MODEL 1
REMARK VINA RESULT:      -5.0      0.000      0.000
REMARK  1 active torsions:
REMARK  status: ('A' for Active; 'I' for Inactive)
REMARK    1  A    between atoms: O_1  and  C_2 
ROOT
HETATM    1  C   UNK N   1      34.584  18.122   8.285  0.00  0.00     0.171 A 
HETATM    2  N   UNK N   1      33.958  17.920   7.089  0.00  0.00    -0.331 N 
ATOM      3  HN  UNK N   1      34.017  18.635   6.363  1.00  0.00     0.168 HD
HETATM    4  C   UNK N   1      33.252  16.767   6.850  0.00  0.00     0.182 A 
HETATM    5  N   UNK N   1      33.163  15.798   7.813  0.00  0.00    -0.352 N 
ATOM      6  HN  UNK N   1      32.639  14.940   7.640  1.00  0.00     0.166 HD
HETATM    7  C   UNK N   1      33.786  16.005   8.998  0.00  0.00     0.062 A 
HETATM    8  C   UNK N   1      34.482  17.127   9.248  0.00  0.00     0.123 A 
HETATM    9  N   UNK N   1      35.003  17.058  10.532  0.00  0.00    -0.299 N 
ATOM     10  HN  UNK N   1      35.572  17.781  10.972  1.00  0.00     0.186 HD
HETATM   11  N   UNK N   1      34.673  15.980  11.070  0.00  0.00    -0.330 N 
ATOM     12  HN  UNK N   1      34.948  15.720  12.017  1.00  0.00     0.180 HD
HETATM   13  C   UNK N   1      33.851  15.124  10.206  0.00  0.00     0.199 A 
ENDROOT
BRANCH   1  14
HETATM   14  O   UNK N   1      35.274  19.251   8.515  0.00  0.00    -0.344 OA
HETATM   15  H   UNK N   1      36.199  19.214   8.657  0.00  0.00     0.219 HD
ENDBRANCH   1  14
TORSDOF 1
ENDMDL
MODEL 2
REMARK VINA RESULT:      -5.0     11.700     12.519
REMARK  1 active torsions:
REMARK  status: ('A' for Active; 'I' for Inactive)
REMARK    1  A    between atoms: O_1  and  C_2 
ROOT
HETATM    1  C   UNK N   1      22.409  11.871  12.030  0.00  0.00     0.171 A 
HETATM    2  N   UNK N   1      21.138  12.058  11.570  0.00  0.00    -0.331 N 
ATOM      3  HN  UNK N   1      20.348  11.718  12.119  1.00  0.00     0.168 HD
HETATM    4  C   UNK N   1      20.908  12.700  10.378  0.00  0.00     0.182 A 
HETATM    5  N   UNK N   1      21.955  13.163   9.628  0.00  0.00    -0.352 N 
ATOM      6  HN  UNK N   1      21.790  13.640   8.741  1.00  0.00     0.166 HD
HETATM    7  C   UNK N   1      23.215  12.973  10.089  0.00  0.00     0.062 A 
HETATM    8  C   UNK N   1      23.457  12.348  11.254  0.00  0.00     0.123 A 
HETATM    9  N   UNK N   1      24.828  12.301  11.464  0.00  0.00    -0.299 N 
ATOM     10  HN  UNK N   1      25.281  11.880  12.275  1.00  0.00     0.186 HD
HETATM   11  N   UNK N   1      25.424  12.851  10.515  0.00  0.00    -0.330 N 
ATOM     12  HN  UNK N   1      26.440  12.931  10.463  1.00  0.00     0.180 HD
HETATM   13  C   UNK N   1      24.522  13.372   9.481  0.00  0.00     0.199 A 
ENDROOT
BRANCH   1  14
HETATM   14  O   UNK N   1      22.629  11.243  13.196  0.00  0.00    -0.344 OA
HETATM   15  H   UNK N   1      23.044  10.403  13.205  0.00  0.00     0.219 HD
ENDBRANCH   1  14
TORSDOF 1
ENDMDL
MODEL 3
REMARK VINA RESULT:      -4.7     14.982     15.784
REMARK  1 active torsions:
REMARK  status: ('A' for Active; 'I' for Inactive)
REMARK    1  A    between atoms: O_1  and  C_2 
ROOT
HETATM    1  C   UNK N   1      20.650  20.030   1.140  0.00  0.00     0.171 A 
HETATM    2  N   UNK N   1      20.894  20.725   2.290  0.00  0.00    -0.331 N 
ATOM      3  HN  UNK N   1      21.077  21.728   2.243  1.00  0.00     0.168 HD
HETATM    4  C   UNK N   1      20.898  20.091   3.508  0.00  0.00     0.182 A 
HETATM    5  N   UNK N   1      20.655  18.746   3.589  0.00  0.00    -0.352 N 
ATOM      6  HN  UNK N   1      20.657  18.271   4.492  1.00  0.00     0.166 HD
HETATM    7  C   UNK N   1      20.413  18.063   2.445  0.00  0.00     0.062 A 
HETATM    8  C   UNK N   1      20.406  18.668   1.245  0.00  0.00     0.123 A 
HETATM    9  N   UNK N   1      20.131  17.723   0.265  0.00  0.00    -0.299 N 
ATOM     10  HN  UNK N   1      20.068  17.918  -0.733  1.00  0.00     0.186 HD
HETATM   11  N   UNK N   1      19.974  16.600   0.788  0.00  0.00    -0.330 N 
ATOM     12  HN  UNK N   1      19.763  15.758   0.252  1.00  0.00     0.180 HD
HETATM   13  C   UNK N   1      20.122  16.608   2.248  0.00  0.00     0.199 A 
ENDROOT
BRANCH   1  14
HETATM   14  O   UNK N   1      20.647  20.654  -0.049  0.00  0.00    -0.344 OA
HETATM   15  H   UNK N   1      20.905  20.190  -0.821  0.00  0.00     0.219 HD
ENDBRANCH   1  14
TORSDOF 1
ENDMDL
MODEL 4
REMARK VINA RESULT:      -4.6      2.105      2.821
REMARK  1 active torsions:
REMARK  status: ('A' for Active; 'I' for Inactive)
REMARK    1  A    between atoms: O_1  and  C_2 
ROOT
HETATM    1  C   UNK N   1      34.958  16.597  10.291  0.00  0.00     0.171 A 
HETATM    2  N   UNK N   1      33.840  16.360   9.545  0.00  0.00    -0.331 N 
ATOM      3  HN  UNK N   1      33.525  17.061   8.873  1.00  0.00     0.168 HD
HETATM    4  C   UNK N   1      33.133  15.191   9.687  0.00  0.00     0.182 A 
HETATM    5  N   UNK N   1      33.541  14.241  10.583  0.00  0.00    -0.352 N 
ATOM      6  HN  UNK N   1      33.020  13.371  10.692  1.00  0.00     0.166 HD
HETATM    7  C   UNK N   1      34.652  14.482  11.321  0.00  0.00     0.062 A 
HETATM    8  C   UNK N   1      35.354  15.621  11.194  0.00  0.00     0.123 A 
HETATM    9  N   UNK N   1      36.430  15.586  12.071  0.00  0.00    -0.299 N 
ATOM     10  HN  UNK N   1      37.123  16.327  12.175  1.00  0.00     0.186 HD
HETATM   11  N   UNK N   1      36.425  14.514  12.712  0.00  0.00    -0.330 N 
ATOM     12  HN  UNK N   1      37.127  14.278  13.413  1.00  0.00     0.180 HD
HETATM   13  C   UNK N   1      35.310  13.628  12.358  0.00  0.00     0.199 A 
ENDROOT
BRANCH   1  14
HETATM   14  O   UNK N   1      35.646  17.742  10.149  0.00  0.00    -0.344 OA
HETATM   15  H   UNK N   1      36.451  17.747   9.670  0.00  0.00     0.219 HD
ENDBRANCH   1  14
TORSDOF 1
ENDMDL
MODEL 5
REMARK VINA RESULT:      -4.6     13.336     14.625
REMARK  1 active torsions:
REMARK  status: ('A' for Active; 'I' for Inactive)
REMARK    1  A    between atoms: O_1  and  C_2 
ROOT
HETATM    1  C   UNK N   1      21.867  20.274   2.928  0.00  0.00     0.171 A 
HETATM    2  N   UNK N   1      23.058  19.844   3.435  0.00  0.00    -0.331 N 
ATOM      3  HN  UNK N   1      23.835  20.500   3.523  1.00  0.00     0.168 HD
HETATM    4  C   UNK N   1      23.226  18.539   3.830  0.00  0.00     0.182 A 
HETATM    5  N   UNK N   1      22.196  17.645   3.719  0.00  0.00    -0.352 N 
ATOM      6  HN  UNK N   1      22.315  16.675   4.011  1.00  0.00     0.166 HD
HETATM    7  C   UNK N   1      21.015  18.078   3.214  0.00  0.00     0.062 A 
HETATM    8  C   UNK N   1      20.835  19.352   2.824  0.00  0.00     0.123 A 
HETATM    9  N   UNK N   1      19.537  19.499   2.354  0.00  0.00    -0.299 N 
ATOM     10  HN  UNK N   1      19.140  20.368   1.997  1.00  0.00     0.186 HD
HETATM   11  N   UNK N   1      18.927  18.412   2.434  0.00  0.00    -0.330 N 
ATOM     12  HN  UNK N   1      17.957  18.291   2.142  1.00  0.00     0.180 HD
HETATM   13  C   UNK N   1      19.743  17.324   2.987  0.00  0.00     0.199 A 
ENDROOT
BRANCH   1  14
HETATM   14  O   UNK N   1      21.707  21.551   2.543  0.00  0.00    -0.344 OA
HETATM   15  H   UNK N   1      22.168  21.875   1.795  0.00  0.00     0.219 HD
ENDBRANCH   1  14
TORSDOF 1
ENDMDL
MODEL 6
REMARK VINA RESULT:      -4.5     11.687     12.361
REMARK  1 active torsions:
REMARK  status: ('A' for Active; 'I' for Inactive)
REMARK    1  A    between atoms: O_1  and  C_2 
ROOT
HETATM    1  C   UNK N   1      44.805  21.659   3.651  0.00  0.00     0.171 A 
HETATM    2  N   UNK N   1      44.937  20.304   3.549  0.00  0.00    -0.331 N 
ATOM      3  HN  UNK N   1      45.767  19.849   3.928  1.00  0.00     0.168 HD
HETATM    4  C   UNK N   1      43.965  19.547   2.943  0.00  0.00     0.182 A 
HETATM    5  N   UNK N   1      42.844  20.141   2.428  0.00  0.00    -0.352 N 
ATOM      6  HN  UNK N   1      42.120  19.583   1.976  1.00  0.00     0.166 HD
HETATM    7  C   UNK N   1      42.720  21.486   2.533  0.00  0.00     0.062 A 
HETATM    8  C   UNK N   1      43.661  22.242   3.124  0.00  0.00     0.123 A 
HETATM    9  N   UNK N   1      43.263  23.571   3.083  0.00  0.00    -0.299 N 
ATOM     10  HN  UNK N   1      43.797  24.353   3.462  1.00  0.00     0.186 HD
HETATM   11  N   UNK N   1      42.156  23.668   2.513  0.00  0.00    -0.330 N 
ATOM     12  HN  UNK N   1      41.675  24.556   2.372  1.00  0.00     0.180 HD
HETATM   13  C   UNK N   1      41.615  22.379   2.065  0.00  0.00     0.199 A 
ENDROOT
BRANCH   1  14
HETATM   14  O   UNK N   1      45.758  22.396   4.246  0.00  0.00    -0.344 OA
HETATM   15  H   UNK N   1      46.023  22.199   5.122  0.00  0.00     0.219 HD
ENDBRANCH   1  14
TORSDOF 1
ENDMDL
MODEL 7
REMARK VINA RESULT:      -4.5      4.679      5.334
REMARK  1 active torsions:
REMARK  status: ('A' for Active; 'I' for Inactive)
REMARK    1  A    between atoms: O_1  and  C_2 
ROOT
HETATM    1  C   UNK N   1      28.167  17.667   8.387  0.00  0.00     0.171 A 
HETATM    2  N   UNK N   1      27.507  17.167   7.301  0.00  0.00    -0.331 N 
ATOM      3  HN  UNK N   1      26.488  17.209   7.267  1.00  0.00     0.168 HD
HETATM    4  C   UNK N   1      28.198  16.608   6.255  0.00  0.00     0.182 A 
HETATM    5  N   UNK N   1      29.565  16.543   6.283  0.00  0.00    -0.352 N 
ATOM      6  HN  UNK N   1      30.083  16.129   5.508  1.00  0.00     0.166 HD
HETATM    7  C   UNK N   1      30.214  17.041   7.363  0.00  0.00     0.062 A 
HETATM    8  C   UNK N   1      29.552  17.592   8.396  0.00  0.00     0.123 A 
HETATM    9  N   UNK N   1      30.472  18.011   9.348  0.00  0.00    -0.299 N 
ATOM     10  HN  UNK N   1      30.235  18.462  10.231  1.00  0.00     0.186 HD
HETATM   11  N   UNK N   1      31.632  17.753   8.963  0.00  0.00    -0.330 N 
ATOM     12  HN  UNK N   1      32.465  17.975   9.509  1.00  0.00     0.180 HD
HETATM   13  C   UNK N   1      31.681  17.099   7.650  0.00  0.00     0.199 A 
ENDROOT
BRANCH   1  14
HETATM   14  O   UNK N   1      27.487  18.213   9.408  0.00  0.00    -0.344 OA
HETATM   15  H   UNK N   1      27.848  18.196  10.273  0.00  0.00     0.219 HD
ENDBRANCH   1  14
TORSDOF 1
ENDMDL
MODEL 8
REMARK VINA RESULT:      -4.4      3.090      4.329
REMARK  1 active torsions:
REMARK  status: ('A' for Active; 'I' for Inactive)
REMARK    1  A    between atoms: O_1  and  C_2 
ROOT
HETATM    1  C   UNK N   1      33.992  15.155  10.940  0.00  0.00     0.171 A 
HETATM    2  N   UNK N   1      34.556  16.333  10.543  0.00  0.00    -0.331 N 
ATOM      3  HN  UNK N   1      33.967  17.065  10.144  1.00  0.00     0.168 HD
HETATM    4  C   UNK N   1      35.906  16.547  10.674  0.00  0.00     0.182 A 
HETATM    5  N   UNK N   1      36.712  15.577  11.208  0.00  0.00    -0.352 N 
ATOM      6  HN  UNK N   1      37.715  15.731  11.308  1.00  0.00     0.166 HD
HETATM    7  C   UNK N   1      36.146  14.410  11.600  0.00  0.00     0.062 A 
HETATM    8  C   UNK N   1      34.826  14.185  11.478  0.00  0.00     0.123 A 
HETATM    9  N   UNK N   1      34.540  12.915  11.959  0.00  0.00    -0.299 N 
ATOM     10  HN  UNK N   1      33.611  12.494  11.982  1.00  0.00     0.186 HD
HETATM   11  N   UNK N   1      35.586  12.363  12.358  0.00  0.00    -0.330 N 
ATOM     12  HN  UNK N   1      35.608  11.422  12.752  1.00  0.00     0.180 HD
HETATM   13  C   UNK N   1      36.783  13.200  12.206  0.00  0.00     0.199 A 
ENDROOT
BRANCH   1  14
HETATM   14  O   UNK N   1      32.671  14.950  10.810  0.00  0.00    -0.344 OA
HETATM   15  H   UNK N   1      32.281  14.174  11.161  0.00  0.00     0.219 HD
ENDBRANCH   1  14
TORSDOF 1
ENDMDL
MODEL 9
REMARK VINA RESULT:      -4.3     11.611     12.396
REMARK  1 active torsions:
REMARK  status: ('A' for Active; 'I' for Inactive)
REMARK    1  A    between atoms: O_1  and  C_2 
ROOT
HETATM    1  C   UNK N   1      43.668  23.291   3.126  0.00  0.00     0.171 A 
HETATM    2  N   UNK N   1      42.395  23.301   2.634  0.00  0.00    -0.331 N 
ATOM      3  HN  UNK N   1      41.899  24.188   2.536  1.00  0.00     0.168 HD
HETATM    4  C   UNK N   1      41.773  22.133   2.270  0.00  0.00     0.182 A 
HETATM    5  N   UNK N   1      42.422  20.934   2.395  0.00  0.00    -0.352 N 
ATOM      6  HN  UNK N   1      41.964  20.063   2.125  1.00  0.00     0.166 HD
HETATM    7  C   UNK N   1      43.686  20.931   2.884  0.00  0.00     0.062 A 
HETATM    8  C   UNK N   1      44.309  22.066   3.246  0.00  0.00     0.123 A 
HETATM    9  N   UNK N   1      45.581  21.754   3.706  0.00  0.00    -0.299 N 
ATOM     10  HN  UNK N   1      46.263  22.433   4.042  1.00  0.00     0.186 HD
HETATM   11  N   UNK N   1      45.766  20.521   3.647  0.00  0.00    -0.330 N 
ATOM     12  HN  UNK N   1      46.635  20.071   3.936  1.00  0.00     0.180 HD
HETATM   13  C   UNK N   1      44.612  19.781   3.122  0.00  0.00     0.199 A 
ENDROOT
BRANCH   1  14
HETATM   14  O   UNK N   1      44.273  24.437   3.482  0.00  0.00    -0.344 OA
HETATM   15  H   UNK N   1      43.789  25.101   3.932  0.00  0.00     0.219 HD
ENDBRANCH   1  14
TORSDOF 1
ENDMDL
