MODEL 1
REMARK VINA RESULT:      -5.9      0.000      0.000
REMARK  6 active torsions:
REMARK  status: ('A' for Active; 'I' for Inactive)
REMARK    1  A    between atoms: C_6  and  C_1 
REMARK    2  A    between atoms: C_8  and  C_5 
REMARK    3  A    between atoms: O_16  and  C_5 
REMARK    4  A    between atoms: C_7  and  O_17 
REMARK    5  A    between atoms: C_9  and  N_15 
REMARK    6  A    between atoms: O_18  and  C_10 
ROOT
HETATM    1  C   UNK N   1      29.805  22.402  -4.882  0.00  0.00     0.114 A 
HETATM    2  C   UNK N   1      30.529  21.229  -5.106  0.00  0.00     0.031 A 
HETATM    3  C   UNK N   1      31.258  20.687  -4.038  0.00  0.00     0.155 A 
HETATM    4  C   UNK N   1      30.564  22.479  -2.640  0.00  0.00     0.330 A 
HETATM    5  N   UNK N   1      31.271  21.324  -2.839  0.00  0.00    -0.288 N 
ATOM      6  HN  UNK N   1      31.817  20.933  -2.070  1.00  0.00     0.172 HD
HETATM    7  N   UNK N   1      29.810  23.018  -3.665  0.00  0.00    -0.281 N 
HETATM    8  O   UNK N   1      30.582  23.009  -1.540  0.00  0.00    -0.246 OA
ENDROOT
BRANCH   7   9
HETATM    9  C   UNK N   1      28.951  24.193  -3.445  0.00  0.00     0.235 C 
HETATM   10  C   UNK N   1      28.916  25.133  -4.643  0.00  0.00     0.088 C 
HETATM   11  C   UNK N   1      27.683  25.893  -4.277  0.00  0.00     0.153 C 
HETATM   12  C   UNK N   1      26.781  24.756  -3.824  0.00  0.00     0.176 C 
HETATM   13  O   UNK N   1      27.609  23.831  -3.147  0.00  0.00    -0.356 OA
BRANCH  11  14
HETATM   14  O   UNK N   1      27.153  26.637  -5.333  0.00  0.00    -0.393 OA
HETATM   15  H   UNK N   1      26.320  26.721  -5.825  0.00  0.00     0.210 HD
ENDBRANCH  11  14
BRANCH  12  16
HETATM   16  C   UNK N   1      26.115  24.047  -5.006  0.00  0.00     0.198 C 
BRANCH  16  17
HETATM   17  O   UNK N   1      25.017  24.786  -5.453  0.00  0.00    -0.398 OA
HETATM   18  H   UNK N   1      24.776  25.663  -5.116  0.00  0.00     0.209 HD
ENDBRANCH  16  17
ENDBRANCH  12  16
ENDBRANCH   7   9
BRANCH   2  19
HETATM   19  C   UNK N   1      30.511  20.570  -6.440  0.00  0.00     0.024 C 
HETATM   20  C   UNK N   1      29.405  20.521  -7.198  0.00  0.00     0.057 C 
HETATM   21 Br   UNK N   1      29.441  19.667  -8.907  0.00  0.00    -0.064 Br
ENDBRANCH   2  19
BRANCH   3  22
HETATM   22  O   UNK N   1      31.950  19.544  -4.188  0.00  0.00    -0.345 OA
HETATM   23  H   UNK N   1      32.875  19.525  -4.044  0.00  0.00     0.219 HD
ENDBRANCH   3  22
TORSDOF 6
ENDMDL
MODEL 2
REMARK VINA RESULT:      -5.9     22.955     25.134
REMARK  6 active torsions:
REMARK  status: ('A' for Active; 'I' for Inactive)
REMARK    1  A    between atoms: C_6  and  C_1 
REMARK    2  A    between atoms: C_8  and  C_5 
REMARK    3  A    between atoms: O_16  and  C_5 
REMARK    4  A    between atoms: C_7  and  O_17 
REMARK    5  A    between atoms: C_9  and  N_15 
REMARK    6  A    between atoms: O_18  and  C_10 
ROOT
HETATM    1  C   UNK N   1      35.311  11.525  17.424  0.00  0.00     0.114 A 
HETATM    2  C   UNK N   1      35.292  10.898  18.672  0.00  0.00     0.031 A 
HETATM    3  C   UNK N   1      35.253  11.706  19.817  0.00  0.00     0.155 A 
HETATM    4  C   UNK N   1      35.300  13.655  18.458  0.00  0.00     0.330 A 
HETATM    5  N   UNK N   1      35.269  13.058  19.689  0.00  0.00    -0.288 N 
ATOM      6  HN  UNK N   1      35.257  13.640  20.527  1.00  0.00     0.172 HD
HETATM    7  N   UNK N   1      35.305  12.883  17.312  0.00  0.00    -0.281 N 
HETATM    8  O   UNK N   1      35.289  14.874  18.384  0.00  0.00    -0.246 OA
ENDROOT
BRANCH   7   9
HETATM    9  C   UNK N   1      35.221  13.499  15.976  0.00  0.00     0.235 C 
HETATM   10  C   UNK N   1      36.583  13.654  15.310  0.00  0.00     0.088 C 
HETATM   11  C   UNK N   1      36.107  13.850  13.907  0.00  0.00     0.153 C 
HETATM   12  C   UNK N   1      35.029  12.781  13.828  0.00  0.00     0.176 C 
HETATM   13  O   UNK N   1      34.394  12.755  15.091  0.00  0.00    -0.356 OA
BRANCH  11  14
HETATM   14  O   UNK N   1      37.114  13.697  12.952  0.00  0.00    -0.393 OA
HETATM   15  H   UNK N   1      37.421  14.124  12.136  0.00  0.00     0.210 HD
ENDBRANCH  11  14
BRANCH  12  16
HETATM   16  C   UNK N   1      35.614  11.396  13.542  0.00  0.00     0.198 C 
BRANCH  16  17
HETATM   17  O   UNK N   1      35.811  11.230  12.170  0.00  0.00    -0.398 OA
HETATM   18  H   UNK N   1      36.455  11.734  11.647  0.00  0.00     0.209 HD
ENDBRANCH  16  17
ENDBRANCH  12  16
ENDBRANCH   7   9
BRANCH   2  19
HETATM   19  C   UNK N   1      35.298   9.414  18.776  0.00  0.00     0.024 C 
HETATM   20  C   UNK N   1      34.165   8.696  18.811  0.00  0.00     0.057 C 
HETATM   21 Br   UNK N   1      34.231   6.791  18.938  0.00  0.00    -0.064 Br
ENDBRANCH   2  19
BRANCH   3  22
HETATM   22  O   UNK N   1      35.202  11.158  21.044  0.00  0.00    -0.345 OA
HETATM   23  H   UNK N   1      34.990  11.683  21.791  0.00  0.00     0.219 HD
ENDBRANCH   3  22
TORSDOF 6
ENDMDL
MODEL 3
REMARK VINA RESULT:      -5.6     11.710     14.237
REMARK  6 active torsions:
REMARK  status: ('A' for Active; 'I' for Inactive)
REMARK    1  A    between atoms: C_6  and  C_1 
REMARK    2  A    between atoms: C_8  and  C_5 
REMARK    3  A    between atoms: O_16  and  C_5 
REMARK    4  A    between atoms: C_7  and  O_17 
REMARK    5  A    between atoms: C_9  and  N_15 
REMARK    6  A    between atoms: O_18  and  C_10 
ROOT
HETATM    1  C   UNK N   1      30.854  16.807   6.576  0.00  0.00     0.114 A 
HETATM    2  C   UNK N   1      29.707  17.029   5.810  0.00  0.00     0.031 A 
HETATM    3  C   UNK N   1      29.867  17.512   4.504  0.00  0.00     0.155 A 
HETATM    4  C   UNK N   1      32.224  17.567   4.800  0.00  0.00     0.330 A 
HETATM    5  N   UNK N   1      31.112  17.780   4.032  0.00  0.00    -0.288 N 
ATOM      6  HN  UNK N   1      31.220  18.147   3.086  1.00  0.00     0.172 HD
HETATM    7  N   UNK N   1      32.098  17.060   6.080  0.00  0.00    -0.281 N 
HETATM    8  O   UNK N   1      33.328  17.797   4.331  0.00  0.00    -0.246 OA
ENDROOT
BRANCH   7   9
HETATM    9  C   UNK N   1      33.282  16.713   6.884  0.00  0.00     0.235 C 
HETATM   10  C   UNK N   1      33.487  17.647   8.070  0.00  0.00     0.088 C 
HETATM   11  C   UNK N   1      34.414  16.783   8.859  0.00  0.00     0.153 C 
HETATM   12  C   UNK N   1      33.731  15.433   8.708  0.00  0.00     0.176 C 
HETATM   13  O   UNK N   1      33.219  15.386   7.391  0.00  0.00    -0.356 OA
BRANCH  11  14
HETATM   14  O   UNK N   1      34.558  17.187  10.187  0.00  0.00    -0.393 OA
HETATM   15  H   UNK N   1      34.666  18.007  10.697  0.00  0.00     0.210 HD
ENDBRANCH  11  14
BRANCH  12  16
HETATM   16  C   UNK N   1      32.573  15.262   9.693  0.00  0.00     0.198 C 
BRANCH  16  17
HETATM   17  O   UNK N   1      33.063  14.937  10.960  0.00  0.00    -0.398 OA
HETATM   18  H   UNK N   1      32.787  15.377  11.780  0.00  0.00     0.209 HD
ENDBRANCH  16  17
ENDBRANCH  12  16
ENDBRANCH   7   9
BRANCH   2  19
HETATM   19  C   UNK N   1      28.357  16.746   6.367  0.00  0.00     0.024 C 
HETATM   20  C   UNK N   1      27.679  15.629   6.063  0.00  0.00     0.057 C 
HETATM   21 Br   UNK N   1      25.950  15.313   6.812  0.00  0.00    -0.064 Br
ENDBRANCH   2  19
BRANCH   3  22
HETATM   22  O   UNK N   1      28.801  17.716   3.711  0.00  0.00    -0.345 OA
HETATM   23  H   UNK N   1      27.945  17.816   4.080  0.00  0.00     0.219 HD
ENDBRANCH   3  22
TORSDOF 6
ENDMDL
MODEL 4
REMARK VINA RESULT:      -5.5     11.429     13.751
REMARK  6 active torsions:
REMARK  status: ('A' for Active; 'I' for Inactive)
REMARK    1  A    between atoms: C_6  and  C_1 
REMARK    2  A    between atoms: C_8  and  C_5 
REMARK    3  A    between atoms: O_16  and  C_5 
REMARK    4  A    between atoms: C_7  and  O_17 
REMARK    5  A    between atoms: C_9  and  N_15 
REMARK    6  A    between atoms: O_18  and  C_10 
ROOT
HETATM    1  C   UNK N   1      28.978  18.074   6.609  0.00  0.00     0.114 A 
HETATM    2  C   UNK N   1      28.011  19.080   6.645  0.00  0.00     0.031 A 
HETATM    3  C   UNK N   1      27.441  19.405   7.883  0.00  0.00     0.155 A 
HETATM    4  C   UNK N   1      28.754  17.732   8.941  0.00  0.00     0.330 A 
HETATM    5  N   UNK N   1      27.812  18.722   8.997  0.00  0.00    -0.288 N 
ATOM      6  HN  UNK N   1      27.381  18.953   9.893  1.00  0.00     0.172 HD
HETATM    7  N   UNK N   1      29.357  17.412   7.739  0.00  0.00    -0.281 N 
HETATM    8  O   UNK N   1      29.079  17.157   9.969  0.00  0.00    -0.246 OA
ENDROOT
BRANCH   7   9
HETATM    9  C   UNK N   1      30.454  16.432   7.671  0.00  0.00     0.235 C 
HETATM   10  C   UNK N   1      30.773  15.999   6.246  0.00  0.00     0.088 C 
HETATM   11  C   UNK N   1      32.128  15.423   6.502  0.00  0.00     0.153 C 
HETATM   12  C   UNK N   1      32.713  16.485   7.418  0.00  0.00     0.176 C 
HETATM   13  O   UNK N   1      31.656  16.928   8.247  0.00  0.00    -0.356 OA
BRANCH  11  14
HETATM   14  O   UNK N   1      32.874  15.219   5.340  0.00  0.00    -0.393 OA
HETATM   15  H   UNK N   1      32.927  14.588   4.603  0.00  0.00     0.210 HD
ENDBRANCH  11  14
BRANCH  12  16
HETATM   16  C   UNK N   1      33.259  17.681   6.635  0.00  0.00     0.198 C 
BRANCH  16  17
HETATM   17  O   UNK N   1      34.611  17.491   6.346  0.00  0.00    -0.398 OA
HETATM   18  H   UNK N   1      34.940  16.996   5.580  0.00  0.00     0.209 HD
ENDBRANCH  16  17
ENDBRANCH  12  16
ENDBRANCH   7   9
BRANCH   2  19
HETATM   19  C   UNK N   1      27.610  19.792   5.402  0.00  0.00     0.024 C 
HETATM   20  C   UNK N   1      26.526  19.440   4.694  0.00  0.00     0.057 C 
HETATM   21 Br   UNK N   1      26.054  20.395   3.108  0.00  0.00    -0.064 Br
ENDBRANCH   2  19
BRANCH   3  22
HETATM   22  O   UNK N   1      26.526  20.386   7.983  0.00  0.00    -0.345 OA
HETATM   23  H   UNK N   1      26.434  21.022   7.302  0.00  0.00     0.219 HD
ENDBRANCH   3  22
TORSDOF 6
ENDMDL
MODEL 5
REMARK VINA RESULT:      -5.4     11.911     13.820
REMARK  6 active torsions:
REMARK  status: ('A' for Active; 'I' for Inactive)
REMARK    1  A    between atoms: C_6  and  C_1 
REMARK    2  A    between atoms: C_8  and  C_5 
REMARK    3  A    between atoms: O_16  and  C_5 
REMARK    4  A    between atoms: C_7  and  O_17 
REMARK    5  A    between atoms: C_9  and  N_15 
REMARK    6  A    between atoms: O_18  and  C_10 
ROOT
HETATM    1  C   UNK N   1      29.639  17.348   6.262  0.00  0.00     0.114 A 
HETATM    2  C   UNK N   1      28.257  17.544   6.287  0.00  0.00     0.031 A 
HETATM    3  C   UNK N   1      27.428  16.451   5.995  0.00  0.00     0.155 A 
HETATM    4  C   UNK N   1      29.338  15.084   5.637  0.00  0.00     0.330 A 
HETATM    5  N   UNK N   1      27.981  15.255   5.667  0.00  0.00    -0.288 N 
ATOM      6  HN  UNK N   1      27.372  14.468   5.440  1.00  0.00     0.172 HD
HETATM    7  N   UNK N   1      30.178  16.135   5.952  0.00  0.00    -0.281 N 
HETATM    8  O   UNK N   1      29.796  13.986   5.361  0.00  0.00    -0.246 OA
ENDROOT
BRANCH   7   9
HETATM    9  C   UNK N   1      31.637  15.947   6.040  0.00  0.00     0.235 C 
HETATM   10  C   UNK N   1      32.416  17.222   5.745  0.00  0.00     0.088 C 
HETATM   11  C   UNK N   1      33.722  16.812   6.343  0.00  0.00     0.153 C 
HETATM   12  C   UNK N   1      33.244  16.163   7.633  0.00  0.00     0.176 C 
HETATM   13  O   UNK N   1      32.044  15.483   7.321  0.00  0.00    -0.356 OA
BRANCH  11  14
HETATM   14  O   UNK N   1      34.599  17.878   6.549  0.00  0.00    -0.393 OA
HETATM   15  H   UNK N   1      35.546  18.030   6.702  0.00  0.00     0.210 HD
ENDBRANCH  11  14
BRANCH  12  16
HETATM   16  C   UNK N   1      32.955  17.198   8.723  0.00  0.00     0.198 C 
BRANCH  16  17
HETATM   17  O   UNK N   1      34.077  17.366   9.537  0.00  0.00    -0.398 OA
HETATM   18  H   UNK N   1      34.962  17.034   9.320  0.00  0.00     0.209 HD
ENDBRANCH  16  17
ENDBRANCH  12  16
ENDBRANCH   7   9
BRANCH   2  19
HETATM   19  C   UNK N   1      27.685  18.875   6.628  0.00  0.00     0.024 C 
HETATM   20  C   UNK N   1      27.707  19.903   5.767  0.00  0.00     0.057 C 
HETATM   21 Br   UNK N   1      26.952  21.590   6.255  0.00  0.00    -0.064 Br
ENDBRANCH   2  19
BRANCH   3  22
HETATM   22  O   UNK N   1      26.090  16.573   6.033  0.00  0.00    -0.345 OA
HETATM   23  H   UNK N   1      25.690  17.420   6.062  0.00  0.00     0.219 HD
ENDBRANCH   3  22
TORSDOF 6
ENDMDL
MODEL 6
REMARK VINA RESULT:      -5.4     10.740     11.713
REMARK  6 active torsions:
REMARK  status: ('A' for Active; 'I' for Inactive)
REMARK    1  A    between atoms: C_6  and  C_1 
REMARK    2  A    between atoms: C_8  and  C_5 
REMARK    3  A    between atoms: O_16  and  C_5 
REMARK    4  A    between atoms: C_7  and  O_17 
REMARK    5  A    between atoms: C_9  and  N_15 
REMARK    6  A    between atoms: O_18  and  C_10 
ROOT
HETATM    1  C   UNK N   1      23.831  18.323   3.845  0.00  0.00     0.114 A 
HETATM    2  C   UNK N   1      25.223  18.429   3.833  0.00  0.00     0.031 A 
HETATM    3  C   UNK N   1      25.790  19.655   3.456  0.00  0.00     0.155 A 
HETATM    4  C   UNK N   1      23.623  20.558   3.090  0.00  0.00     0.330 A 
HETATM    5  N   UNK N   1      24.986  20.684   3.084  0.00  0.00    -0.288 N 
ATOM      6  HN  UNK N   1      25.406  21.568   2.794  1.00  0.00     0.172 HD
HETATM    7  N   UNK N   1      23.036  19.372   3.489  0.00  0.00    -0.281 N 
HETATM    8  O   UNK N   1      22.933  21.514   2.772  0.00  0.00    -0.246 OA
ENDROOT
BRANCH   7   9
HETATM    9  C   UNK N   1      21.574  19.249   3.616  0.00  0.00     0.235 C 
HETATM   10  C   UNK N   1      20.874  19.100   2.271  0.00  0.00     0.088 C 
HETATM   11  C   UNK N   1      19.572  18.565   2.771  0.00  0.00     0.153 C 
HETATM   12  C   UNK N   1      20.062  17.561   3.802  0.00  0.00     0.176 C 
HETATM   13  O   UNK N   1      21.195  18.140   4.421  0.00  0.00    -0.356 OA
BRANCH  11  14
HETATM   14  O   UNK N   1      18.783  17.995   1.770  0.00  0.00    -0.393 OA
HETATM   15  H   UNK N   1      18.840  17.779   0.826  0.00  0.00     0.210 HD
ENDBRANCH  11  14
BRANCH  12  16
HETATM   16  C   UNK N   1      20.474  16.235   3.160  0.00  0.00     0.198 C 
BRANCH  16  17
HETATM   17  O   UNK N   1      19.344  15.471   2.865  0.00  0.00    -0.398 OA
HETATM   18  H   UNK N   1      19.115  15.158   1.976  0.00  0.00     0.209 HD
ENDBRANCH  16  17
ENDBRANCH  12  16
ENDBRANCH   7   9
BRANCH   2  19
HETATM   19  C   UNK N   1      26.075  17.274   4.226  0.00  0.00     0.024 C 
HETATM   20  C   UNK N   1      25.703  16.402   5.174  0.00  0.00     0.057 C 
HETATM   21 Br   UNK N   1      26.833  14.931   5.633  0.00  0.00    -0.064 Br
ENDBRANCH   2  19
BRANCH   3  22
HETATM   22  O   UNK N   1      27.124  19.824   3.455  0.00  0.00    -0.345 OA
HETATM   23  H   UNK N   1      27.508  20.583   3.850  0.00  0.00     0.219 HD
ENDBRANCH   3  22
TORSDOF 6
ENDMDL
MODEL 7
REMARK VINA RESULT:      -5.3     11.649     14.078
REMARK  6 active torsions:
REMARK  status: ('A' for Active; 'I' for Inactive)
REMARK    1  A    between atoms: C_6  and  C_1 
REMARK    2  A    between atoms: C_8  and  C_5 
REMARK    3  A    between atoms: O_16  and  C_5 
REMARK    4  A    between atoms: C_7  and  O_17 
REMARK    5  A    between atoms: C_9  and  N_15 
REMARK    6  A    between atoms: O_18  and  C_10 
ROOT
HETATM    1  C   UNK N   1      30.224  17.319   6.907  0.00  0.00     0.114 A 
HETATM    2  C   UNK N   1      29.044  17.674   6.249  0.00  0.00     0.031 A 
HETATM    3  C   UNK N   1      28.111  18.458   6.941  0.00  0.00     0.155 A 
HETATM    4  C   UNK N   1      29.512  18.454   8.860  0.00  0.00     0.330 A 
HETATM    5  N   UNK N   1      28.355  18.820   8.227  0.00  0.00    -0.288 N 
ATOM      6  HN  UNK N   1      27.664  19.377   8.730  1.00  0.00     0.172 HD
HETATM    7  N   UNK N   1      30.465  17.709   8.191  0.00  0.00    -0.281 N 
HETATM    8  O   UNK N   1      29.706  18.819  10.009  0.00  0.00    -0.246 OA
ENDROOT
BRANCH   7   9
HETATM    9  C   UNK N   1      31.765  17.401   8.810  0.00  0.00     0.235 C 
HETATM   10  C   UNK N   1      32.111  15.918   8.751  0.00  0.00     0.088 C 
HETATM   11  C   UNK N   1      33.577  16.035   9.016  0.00  0.00     0.153 C 
HETATM   12  C   UNK N   1      33.925  17.218   8.126  0.00  0.00     0.176 C 
HETATM   13  O   UNK N   1      32.834  18.114   8.201  0.00  0.00    -0.356 OA
BRANCH  11  14
HETATM   14  O   UNK N   1      34.293  14.877   8.707  0.00  0.00    -0.393 OA
HETATM   15  H   UNK N   1      34.448  14.291   7.949  0.00  0.00     0.210 HD
ENDBRANCH  11  14
BRANCH  12  16
HETATM   16  C   UNK N   1      34.120  16.800   6.667  0.00  0.00     0.198 C 
BRANCH  16  17
HETATM   17  O   UNK N   1      34.064  17.919   5.834  0.00  0.00    -0.398 OA
HETATM   18  H   UNK N   1      33.296  18.508   5.765  0.00  0.00     0.209 HD
ENDBRANCH  16  17
ENDBRANCH  12  16
ENDBRANCH   7   9
BRANCH   2  19
HETATM   19  C   UNK N   1      28.799  17.241   4.847  0.00  0.00     0.024 C 
HETATM   20  C   UNK N   1      28.407  15.994   4.543  0.00  0.00     0.057 C 
HETATM   21 Br   UNK N   1      28.099  15.494   2.725  0.00  0.00    -0.064 Br
ENDBRANCH   2  19
BRANCH   3  22
HETATM   22  O   UNK N   1      26.971  18.855   6.348  0.00  0.00    -0.345 OA
HETATM   23  H   UNK N   1      26.142  18.544   6.654  0.00  0.00     0.219 HD
ENDBRANCH   3  22
TORSDOF 6
ENDMDL
MODEL 8
REMARK VINA RESULT:      -5.2     12.057     13.654
REMARK  6 active torsions:
REMARK  status: ('A' for Active; 'I' for Inactive)
REMARK    1  A    between atoms: C_6  and  C_1 
REMARK    2  A    between atoms: C_8  and  C_5 
REMARK    3  A    between atoms: O_16  and  C_5 
REMARK    4  A    between atoms: C_7  and  O_17 
REMARK    5  A    between atoms: C_9  and  N_15 
REMARK    6  A    between atoms: O_18  and  C_10 
ROOT
HETATM    1  C   UNK N   1      31.788  16.545   6.939  0.00  0.00     0.114 A 
HETATM    2  C   UNK N   1      33.152  16.253   7.005  0.00  0.00     0.031 A 
HETATM    3  C   UNK N   1      33.884  16.239   5.810  0.00  0.00     0.155 A 
HETATM    4  C   UNK N   1      31.914  16.748   4.584  0.00  0.00     0.330 A 
HETATM    5  N   UNK N   1      33.254  16.474   4.630  0.00  0.00    -0.288 N 
ATOM      6  HN  UNK N   1      33.790  16.446   3.762  1.00  0.00     0.172 HD
HETATM    7  N   UNK N   1      31.174  16.800   5.749  0.00  0.00    -0.281 N 
HETATM    8  O   UNK N   1      31.388  16.977   3.505  0.00  0.00    -0.246 OA
ENDROOT
BRANCH   7   9
HETATM    9  C   UNK N   1      29.758  17.206   5.737  0.00  0.00     0.235 C 
HETATM   10  C   UNK N   1      28.817  16.081   6.149  0.00  0.00     0.088 C 
HETATM   11  C   UNK N   1      27.617  16.915   6.459  0.00  0.00     0.153 C 
HETATM   12  C   UNK N   1      28.264  18.058   7.224  0.00  0.00     0.176 C 
HETATM   13  O   UNK N   1      29.507  18.310   6.598  0.00  0.00    -0.356 OA
BRANCH  11  14
HETATM   14  O   UNK N   1      26.641  16.236   7.192  0.00  0.00    -0.393 OA
HETATM   15  H   UNK N   1      26.078  15.450   7.111  0.00  0.00     0.210 HD
ENDBRANCH  11  14
BRANCH  12  16
HETATM   16  C   UNK N   1      28.516  17.696   8.690  0.00  0.00     0.198 C 
BRANCH  16  17
HETATM   17  O   UNK N   1      27.403  18.027   9.465  0.00  0.00    -0.398 OA
HETATM   18  H   UNK N   1      26.615  18.477   9.123  0.00  0.00     0.209 HD
ENDBRANCH  16  17
ENDBRANCH  12  16
ENDBRANCH   7   9
BRANCH   2  19
HETATM   19  C   UNK N   1      33.806  15.978   8.313  0.00  0.00     0.024 C 
HETATM   20  C   UNK N   1      34.459  16.929   8.999  0.00  0.00     0.057 C 
HETATM   21 Br   UNK N   1      35.275  16.522  10.678  0.00  0.00    -0.064 Br
ENDBRANCH   2  19
BRANCH   3  22
HETATM   22  O   UNK N   1      35.206  15.993   5.816  0.00  0.00    -0.345 OA
HETATM   23  H   UNK N   1      35.817  16.681   5.994  0.00  0.00     0.219 HD
ENDBRANCH   3  22
TORSDOF 6
ENDMDL
MODEL 9
REMARK VINA RESULT:      -5.2     13.163     15.249
REMARK  6 active torsions:
REMARK  status: ('A' for Active; 'I' for Inactive)
REMARK    1  A    between atoms: C_6  and  C_1 
REMARK    2  A    between atoms: C_8  and  C_5 
REMARK    3  A    between atoms: O_16  and  C_5 
REMARK    4  A    between atoms: C_7  and  O_17 
REMARK    5  A    between atoms: C_9  and  N_15 
REMARK    6  A    between atoms: O_18  and  C_10 
ROOT
HETATM    1  C   UNK N   1      33.644  15.851   8.464  0.00  0.00     0.114 A 
HETATM    2  C   UNK N   1      34.270  15.420   9.636  0.00  0.00     0.031 A 
HETATM    3  C   UNK N   1      35.069  16.336  10.335  0.00  0.00     0.155 A 
HETATM    4  C   UNK N   1      34.628  17.993   8.690  0.00  0.00     0.330 A 
HETATM    5  N   UNK N   1      35.241  17.591   9.846  0.00  0.00    -0.288 N 
ATOM      6  HN  UNK N   1      35.837  18.248  10.351  1.00  0.00     0.172 HD
HETATM    7  N   UNK N   1      33.809  17.122   7.998  0.00  0.00    -0.281 N 
HETATM    8  O   UNK N   1      34.788  19.138   8.296  0.00  0.00    -0.246 OA
ENDROOT
BRANCH   7   9
HETATM    9  C   UNK N   1      33.048  17.564   6.817  0.00  0.00     0.235 C 
HETATM   10  C   UNK N   1      33.755  17.247   5.505  0.00  0.00     0.088 C 
HETATM   11  C   UNK N   1      32.579  17.391   4.595  0.00  0.00     0.153 C 
HETATM   12  C   UNK N   1      31.514  16.666   5.400  0.00  0.00     0.176 C 
HETATM   13  O   UNK N   1      31.754  16.977   6.759  0.00  0.00    -0.356 OA
BRANCH  11  14
HETATM   14  O   UNK N   1      32.786  16.844   3.327  0.00  0.00    -0.393 OA
HETATM   15  H   UNK N   1      33.115  17.117   2.455  0.00  0.00     0.210 HD
ENDBRANCH  11  14
BRANCH  12  16
HETATM   16  C   UNK N   1      31.593  15.148   5.221  0.00  0.00     0.198 C 
BRANCH  16  17
HETATM   17  O   UNK N   1      31.113  14.503   6.363  0.00  0.00    -0.398 OA
HETATM   18  H   UNK N   1      31.606  14.430   7.195  0.00  0.00     0.209 HD
ENDBRANCH  16  17
ENDBRANCH  12  16
ENDBRANCH   7   9
BRANCH   2  19
HETATM   19  C   UNK N   1      34.078  14.030  10.130  0.00  0.00     0.024 C 
HETATM   20  C   UNK N   1      34.823  13.006   9.688  0.00  0.00     0.057 C 
HETATM   21 Br   UNK N   1      34.538  11.241  10.363  0.00  0.00    -0.064 Br
ENDBRANCH   2  19
BRANCH   3  22
HETATM   22  O   UNK N   1      35.672  15.985  11.484  0.00  0.00    -0.345 OA
HETATM   23  H   UNK N   1      36.589  15.794  11.502  0.00  0.00     0.219 HD
ENDBRANCH   3  22
TORSDOF 6
ENDMDL
