REMARK  1 active torsions:
REMARK  status: ('A' for Active; 'I' for Inactive)
REMARK    1  A    between atoms: O_1  and  C_2 
ROOT
HETATM    1  C   UNK N   1       3.609   1.742  -0.000  0.00  0.00     0.171 A 
HETATM    2  N   UNK N   1       4.786   1.051  -0.000  0.00  0.00    -0.331 N 
ATOM      3  HN  UNK N   1       5.670   1.561  -0.000  1.00  0.00     0.168 HD
HETATM    4  C   UNK N   1       4.796  -0.322  -0.000  0.00  0.00     0.182 A 
HETATM    5  N   UNK N   1       3.620  -1.023  -0.000  0.00  0.00    -0.352 N 
ATOM      6  HN  UNK N   1       3.622  -2.043  -0.000  1.00  0.00     0.166 HD
HETATM    7  C   UNK N   1       2.455  -0.331  -0.000  0.00  0.00     0.062 A 
HETATM    8  C   UNK N   1       2.428   1.013   0.000  0.00  0.00     0.123 A 
HETATM    9  N   UNK N   1       1.106   1.437   0.000  0.00  0.00    -0.299 N 
ATOM     10  HN  UNK N   1       0.805   2.411   0.000  1.00  0.00     0.186 HD
HETATM   11  N   UNK N   1       0.341   0.450   0.000  0.00  0.00    -0.330 N 
ATOM     12  HN  UNK N   1      -0.676   0.530   0.000  1.00  0.00     0.180 HD
HETATM   13  C   UNK N   1       1.047  -0.837   0.000  0.00  0.00     0.199 A 
ENDROOT
BRANCH   1  14
HETATM   14  O   UNK N   1       3.604   3.085   0.000  0.00  0.00    -0.344 OA
HETATM   15  H   UNK N   1       4.414   3.556   0.000  0.00  0.00     0.219 HD
ENDBRANCH   1  14
TORSDOF 1
