MODEL 1
REMARK VINA RESULT:      -2.3      0.000      0.000
REMARK  0 active torsions:
REMARK  status: ('A' for Active; 'I' for Inactive)
ROOT
HETATM    1  C   UNK N   1      24.530  12.207  10.862  0.00  0.00     0.271 C 
HETATM    2  N   UNK N   1      23.082  12.244  10.943  0.00  0.00    -0.082 N 
HETATM    3  C   UNK N   1      21.634  12.282  11.024  0.00  0.00     0.271 C 
HETATM    4  C   UNK N   1      23.152  11.894  12.350  0.00  0.00     0.271 C 
HETATM    5  C   UNK N   1      23.012  12.595   9.537  0.00  0.00     0.271 C 
ENDROOT
TORSDOF 0
ENDMDL
MODEL 2
REMARK VINA RESULT:      -2.3      0.106      2.598
REMARK  0 active torsions:
REMARK  status: ('A' for Active; 'I' for Inactive)
ROOT
HETATM    1  C   UNK N   1      21.647  12.297  10.943  0.00  0.00     0.271 C 
HETATM    2  N   UNK N   1      23.095  12.265  10.842  0.00  0.00    -0.082 N 
HETATM    3  C   UNK N   1      24.542  12.233  10.741  0.00  0.00     0.271 C 
HETATM    4  C   UNK N   1      23.004  12.613   9.436  0.00  0.00     0.271 C 
HETATM    5  C   UNK N   1      23.185  11.916  12.248  0.00  0.00     0.271 C 
ENDROOT
TORSDOF 0
ENDMDL
MODEL 3
REMARK VINA RESULT:      -2.2      0.519      1.902
REMARK  0 active torsions:
REMARK  status: ('A' for Active; 'I' for Inactive)
ROOT
HETATM    1  C   UNK N   1      21.794  12.689  10.578  0.00  0.00     0.271 C 
HETATM    2  N   UNK N   1      23.234  12.512  10.591  0.00  0.00    -0.082 N 
HETATM    3  C   UNK N   1      24.674  12.336  10.605  0.00  0.00     0.271 C 
HETATM    4  C   UNK N   1      23.147  11.904  11.906  0.00  0.00     0.271 C 
HETATM    5  C   UNK N   1      23.321  13.121   9.277  0.00  0.00     0.271 C 
ENDROOT
TORSDOF 0
ENDMDL
MODEL 4
REMARK VINA RESULT:      -2.2     10.493     11.540
REMARK  0 active torsions:
REMARK  status: ('A' for Active; 'I' for Inactive)
ROOT
HETATM    1  C   UNK N   1      22.393  20.405   2.776  0.00  0.00     0.271 C 
HETATM    2  N   UNK N   1      21.043  19.874   2.737  0.00  0.00    -0.082 N 
HETATM    3  C   UNK N   1      19.693  19.342   2.697  0.00  0.00     0.271 C 
HETATM    4  C   UNK N   1      20.829  20.514   1.452  0.00  0.00     0.271 C 
HETATM    5  C   UNK N   1      21.257  19.234   4.021  0.00  0.00     0.271 C 
ENDROOT
TORSDOF 0
ENDMDL
MODEL 5
REMARK VINA RESULT:      -2.0     11.096     11.944
REMARK  0 active torsions:
REMARK  status: ('A' for Active; 'I' for Inactive)
ROOT
HETATM    1  C   UNK N   1      31.736  17.083   6.515  0.00  0.00     0.271 C 
HETATM    2  N   UNK N   1      32.898  17.619   7.200  0.00  0.00    -0.082 N 
HETATM    3  C   UNK N   1      34.059  18.156   7.884  0.00  0.00     0.271 C 
HETATM    4  C   UNK N   1      32.100  17.825   8.394  0.00  0.00     0.271 C 
HETATM    5  C   UNK N   1      33.696  17.414   6.005  0.00  0.00     0.271 C 
ENDROOT
TORSDOF 0
ENDMDL
MODEL 6
REMARK VINA RESULT:      -2.0     20.434     21.342
REMARK  0 active torsions:
REMARK  status: ('A' for Active; 'I' for Inactive)
ROOT
HETATM    1  C   UNK N   1      24.896  27.264  -5.471  0.00  0.00     0.271 C 
HETATM    2  N   UNK N   1      25.715  26.591  -4.480  0.00  0.00    -0.082 N 
HETATM    3  C   UNK N   1      26.533  25.917  -3.490  0.00  0.00     0.271 C 
HETATM    4  C   UNK N   1      25.691  25.382  -5.283  0.00  0.00     0.271 C 
HETATM    5  C   UNK N   1      25.738  27.799  -3.678  0.00  0.00     0.271 C 
ENDROOT
TORSDOF 0
ENDMDL
MODEL 7
REMARK VINA RESULT:      -2.0      9.924     10.777
REMARK  0 active torsions:
REMARK  status: ('A' for Active; 'I' for Inactive)
ROOT
HETATM    1  C   UNK N   1      21.059  17.692   3.271  0.00  0.00     0.271 C 
HETATM    2  N   UNK N   1      20.882  19.124   3.113  0.00  0.00    -0.082 N 
HETATM    3  C   UNK N   1      20.705  20.555   2.954  0.00  0.00     0.271 C 
HETATM    4  C   UNK N   1      22.260  19.339   3.513  0.00  0.00     0.271 C 
HETATM    5  C   UNK N   1      19.504  18.909   2.712  0.00  0.00     0.271 C 
ENDROOT
TORSDOF 0
ENDMDL
MODEL 8
REMARK VINA RESULT:      -2.0     12.782     13.773
REMARK  0 active torsions:
REMARK  status: ('A' for Active; 'I' for Inactive)
ROOT
HETATM    1  C   UNK N   1      35.886  12.861  15.964  0.00  0.00     0.271 C 
HETATM    2  N   UNK N   1      36.083  13.633  14.752  0.00  0.00    -0.082 N 
HETATM    3  C   UNK N   1      36.279  14.405  13.539  0.00  0.00     0.271 C 
HETATM    4  C   UNK N   1      35.158  12.764  14.048  0.00  0.00     0.271 C 
HETATM    5  C   UNK N   1      37.007  14.502  15.456  0.00  0.00     0.271 C 
ENDROOT
TORSDOF 0
ENDMDL
MODEL 9
REMARK VINA RESULT:      -1.9     10.947     11.985
REMARK  0 active torsions:
REMARK  status: ('A' for Active; 'I' for Inactive)
ROOT
HETATM    1  C   UNK N   1      32.832  15.906   8.910  0.00  0.00     0.271 C 
HETATM    2  N   UNK N   1      33.642  17.062   8.577  0.00  0.00    -0.082 N 
HETATM    3  C   UNK N   1      34.453  18.219   8.243  0.00  0.00     0.271 C 
HETATM    4  C   UNK N   1      34.778  16.460   9.250  0.00  0.00     0.271 C 
HETATM    5  C   UNK N   1      32.507  17.664   7.903  0.00  0.00     0.271 C 
ENDROOT
TORSDOF 0
ENDMDL
