REMARK  10 active torsions:
REMARK  status: ('A' for Active; 'I' for Inactive)
REMARK    1  A    between atoms: C_7  and  O_1 
REMARK    2  A    between atoms: C_9  and  O_2 
REMARK    3  A    between atoms: C_10  and  O_3 
REMARK    4  A    between atoms: O_4  and  C_11 
REMARK    5  A    between atoms: O_5  and  C_12 
REMARK    6  A    between atoms: C_7  and  C_8 
REMARK    7  A    between atoms: C_7  and  C_9 
REMARK    8  A    between atoms: C_8  and  C_10 
REMARK    9  A    between atoms: C_9  and  C_11 
REMARK   10  A    between atoms: C_10  and  C_12 
ROOT
HETATM    1  C   UNK N   1      13.367 -15.575   0.160  0.00  0.00     0.151 C 
ENDROOT
BRANCH   1   2
HETATM    2  O   UNK N   1      13.976 -16.828   0.076  0.00  0.00    -0.393 OA
HETATM    3  H   UNK N   1      13.434 -17.630   0.018  0.00  0.00     0.210 HD
ENDBRANCH   1   2
BRANCH   1   4
HETATM    4  C   UNK N   1      12.071 -15.612  -0.627  0.00  0.00     0.077 C 
BRANCH   4   5
HETATM    5  C   UNK N   1      10.906 -15.541   0.338  0.00  0.00     0.218 C 
BRANCH   5   6
HETATM    6  O   UNK N   1      10.158 -16.716   0.251  0.00  0.00    -0.385 OA
HETATM    7  H   UNK N   1       9.191 -16.674   0.191  0.00  0.00     0.210 HD
ENDBRANCH   5   6
BRANCH   5   8
HETATM    8  C   UNK N   1      10.057 -14.341   0.039  0.00  0.00     0.169 C 
HETATM    9  O   UNK N   1      10.550 -13.226   0.057  0.00  0.00    -0.648 OA
BRANCH   8  10
HETATM   10  O   UNK N   1       8.745 -14.485  -0.233  0.00  0.00    -0.774 OA
HETATM   11  H   UNK N   1       8.202 -13.745  -0.421  0.00  0.00     0.167 HD
ENDBRANCH   8  10
ENDBRANCH   5   8
ENDBRANCH   4   5
ENDBRANCH   1   4
BRANCH   1  12
HETATM   12  C   UNK N   1      14.275 -14.476  -0.394  0.00  0.00     0.170 C 
BRANCH  12  13
HETATM   13  O   UNK N   1      13.661 -13.236  -0.207  0.00  0.00    -0.391 OA
HETATM   14  H   UNK N   1      14.194 -12.436  -0.078  0.00  0.00     0.210 HD
ENDBRANCH  12  13
BRANCH  12  15
HETATM   15  C   UNK N   1      15.630 -14.451   0.298  0.00  0.00     0.198 C 
BRANCH  15  16
HETATM   16  O   UNK N   1      16.382 -15.569  -0.064  0.00  0.00    -0.398 OA
HETATM   17  H   UNK N   1      15.970 -16.410  -0.315  0.00  0.00     0.209 HD
ENDBRANCH  15  16
ENDBRANCH  12  15
ENDBRANCH   1  12
TORSDOF 10
