MODEL 1
REMARK VINA RESULT:      -5.4      0.000      0.000
REMARK  2 active torsions:
REMARK  status: ('A' for Active; 'I' for Inactive)
REMARK    1  A    between atoms: N_1  and  S_2 
REMARK    2  A    between atoms: S_2  and  C_5 
ROOT
HETATM    1  C   UNK N   1      22.179  13.231   9.874  0.00  0.00     0.156 A 
HETATM    2  C   UNK N   1      22.011  12.486  11.054  0.00  0.00     0.142 A 
HETATM    3  F   UNK N   1      20.789  12.350  11.624  0.00  0.00    -0.204 F 
HETATM    4  C   UNK N   1      23.116  11.877  11.657  0.00  0.00     0.044 A 
HETATM    5  C   UNK N   1      24.386  12.004  11.091  0.00  0.00     0.006 A 
HETATM    6  C   UNK N   1      24.555  12.736   9.913  0.00  0.00     0.044 A 
HETATM    7  C   UNK N   1      23.457  13.348   9.304  0.00  0.00     0.142 A 
HETATM    8  F   UNK N   1      23.638  14.057   8.163  0.00  0.00    -0.204 F 
ENDROOT
BRANCH   1   9
HETATM    9  S   UNK N   1      20.783  14.060   9.095  0.00  0.00     0.262 S 
HETATM   10  O   UNK N   1      19.497  13.869   9.911  0.00  0.00    -0.201 OA
HETATM   11  O   UNK N   1      20.378  13.468   7.736  0.00  0.00    -0.201 OA
BRANCH   9  12
HETATM   12  N   UNK N   1      20.886  15.801   8.832  0.00  0.00    -0.324 N 
HETATM   13  H   UNK N   1      20.350  16.658   8.971  0.00  0.00     0.169 HD
HETATM   14  H   UNK N   1      21.779  16.026   8.395  0.00  0.00     0.169 HD
ENDBRANCH   9  12
ENDBRANCH   1   9
TORSDOF 2
ENDMDL
MODEL 2
REMARK VINA RESULT:      -5.3      0.078      2.408
REMARK  2 active torsions:
REMARK  status: ('A' for Active; 'I' for Inactive)
REMARK    1  A    between atoms: N_1  and  S_2 
REMARK    2  A    between atoms: S_2  and  C_5 
ROOT
HETATM    1  C   UNK N   1      22.178  13.302   9.828  0.00  0.00     0.156 A 
HETATM    2  C   UNK N   1      23.461  13.406   9.262  0.00  0.00     0.142 A 
HETATM    3  F   UNK N   1      23.670  14.138   8.141  0.00  0.00    -0.204 F 
HETATM    4  C   UNK N   1      24.541  12.746   9.857  0.00  0.00     0.044 A 
HETATM    5  C   UNK N   1      24.351  11.984  11.011  0.00  0.00     0.006 A 
HETATM    6  C   UNK N   1      23.079  11.885  11.581  0.00  0.00     0.044 A 
HETATM    7  C   UNK N   1      21.995  12.542  10.994  0.00  0.00     0.142 A 
HETATM    8  F   UNK N   1      20.767  12.434  11.558  0.00  0.00    -0.204 F 
ENDROOT
BRANCH   1   9
HETATM    9  S   UNK N   1      20.761  14.108   9.064  0.00  0.00     0.262 S 
HETATM   10  O   UNK N   1      19.486  13.894   9.891  0.00  0.00    -0.201 OA
HETATM   11  O   UNK N   1      20.353  13.511   7.708  0.00  0.00    -0.201 OA
BRANCH   9  12
HETATM   12  N   UNK N   1      20.832  15.850   8.802  0.00  0.00    -0.324 N 
HETATM   13  H   UNK N   1      20.227  16.651   8.616  0.00  0.00     0.169 HD
HETATM   14  H   UNK N   1      21.802  16.163   8.854  0.00  0.00     0.169 HD
ENDBRANCH   9  12
ENDBRANCH   1   9
TORSDOF 2
ENDMDL
MODEL 3
REMARK VINA RESULT:      -5.0     23.128     23.822
REMARK  2 active torsions:
REMARK  status: ('A' for Active; 'I' for Inactive)
REMARK    1  A    between atoms: N_1  and  S_2 
REMARK    2  A    between atoms: S_2  and  C_5 
ROOT
HETATM    1  C   UNK N   1      42.812  21.914   2.814  0.00  0.00     0.156 A 
HETATM    2  C   UNK N   1      41.632  22.467   2.287  0.00  0.00     0.142 A 
HETATM    3  F   UNK N   1      41.576  23.771   1.922  0.00  0.00    -0.204 F 
HETATM    4  C   UNK N   1      40.494  21.668   2.136  0.00  0.00     0.044 A 
HETATM    5  C   UNK N   1      40.526  20.322   2.507  0.00  0.00     0.006 A 
HETATM    6  C   UNK N   1      41.699  19.767   3.023  0.00  0.00     0.044 A 
HETATM    7  C   UNK N   1      42.840  20.558   3.176  0.00  0.00     0.142 A 
HETATM    8  F   UNK N   1      43.971  20.005   3.681  0.00  0.00    -0.204 F 
ENDROOT
BRANCH   1   9
HETATM    9  S   UNK N   1      44.281  22.926   3.056  0.00  0.00     0.262 S 
HETATM   10  O   UNK N   1      43.932  24.264   3.723  0.00  0.00    -0.201 OA
HETATM   11  O   UNK N   1      44.944  23.395   1.752  0.00  0.00    -0.201 OA
BRANCH   9  12
HETATM   12  N   UNK N   1      45.594  22.272   4.035  0.00  0.00    -0.324 N 
HETATM   13  H   UNK N   1      45.758  21.756   4.900  0.00  0.00     0.169 HD
HETATM   14  H   UNK N   1      46.487  22.479   3.589  0.00  0.00     0.169 HD
ENDBRANCH   9  12
ENDBRANCH   1   9
TORSDOF 2
ENDMDL
MODEL 4
REMARK VINA RESULT:      -4.9     23.118     23.761
REMARK  2 active torsions:
REMARK  status: ('A' for Active; 'I' for Inactive)
REMARK    1  A    between atoms: N_1  and  S_2 
REMARK    2  A    between atoms: S_2  and  C_5 
ROOT
HETATM    1  C   UNK N   1      42.774  21.934   2.869  0.00  0.00     0.156 A 
HETATM    2  C   UNK N   1      42.762  20.572   3.220  0.00  0.00     0.142 A 
HETATM    3  F   UNK N   1      43.850  19.987   3.776  0.00  0.00    -0.204 F 
HETATM    4  C   UNK N   1      41.616  19.803   2.992  0.00  0.00     0.044 A 
HETATM    5  C   UNK N   1      40.483  20.383   2.417  0.00  0.00     0.006 A 
HETATM    6  C   UNK N   1      40.488  21.737   2.076  0.00  0.00     0.044 A 
HETATM    7  C   UNK N   1      41.628  22.513   2.301  0.00  0.00     0.142 A 
HETATM    8  F   UNK N   1      41.617  23.826   1.962  0.00  0.00    -0.204 F 
ENDROOT
BRANCH   1   9
HETATM    9  S   UNK N   1      44.246  22.940   3.115  0.00  0.00     0.262 S 
HETATM   10  O   UNK N   1      43.907  24.259   3.824  0.00  0.00    -0.201 OA
HETATM   11  O   UNK N   1      44.888  23.445   1.813  0.00  0.00    -0.201 OA
BRANCH   9  12
HETATM   12  N   UNK N   1      45.575  22.260   4.054  0.00  0.00    -0.324 N 
HETATM   13  H   UNK N   1      45.984  22.293   4.989  0.00  0.00     0.169 HD
HETATM   14  H   UNK N   1      46.114  21.622   3.469  0.00  0.00     0.169 HD
ENDBRANCH   9  12
ENDBRANCH   1   9
TORSDOF 2
ENDMDL
MODEL 5
REMARK VINA RESULT:      -4.8      1.014      2.625
REMARK  2 active torsions:
REMARK  status: ('A' for Active; 'I' for Inactive)
REMARK    1  A    between atoms: N_1  and  S_2 
REMARK    2  A    between atoms: S_2  and  C_5 
ROOT
HETATM    1  C   UNK N   1      22.575  13.262   9.583  0.00  0.00     0.156 A 
HETATM    2  C   UNK N   1      23.974  13.152   9.482  0.00  0.00     0.142 A 
HETATM    3  F   UNK N   1      24.643  13.717   8.448  0.00  0.00    -0.204 F 
HETATM    4  C   UNK N   1      24.691  12.451  10.456  0.00  0.00     0.044 A 
HETATM    5  C   UNK N   1      24.024  11.858  11.530  0.00  0.00     0.006 A 
HETATM    6  C   UNK N   1      22.636  11.971  11.639  0.00  0.00     0.044 A 
HETATM    7  C   UNK N   1      21.912  12.671  10.671  0.00  0.00     0.142 A 
HETATM    8  F   UNK N   1      20.565  12.771  10.790  0.00  0.00    -0.204 F 
ENDROOT
BRANCH   1   9
HETATM    9  S   UNK N   1      21.621  14.126   8.326  0.00  0.00     0.262 S 
HETATM   10  O   UNK N   1      20.620  13.184   7.641  0.00  0.00    -0.201 OA
HETATM   11  O   UNK N   1      22.452  14.615   7.130  0.00  0.00    -0.201 OA
BRANCH   9  12
HETATM   12  N   UNK N   1      20.654  15.516   8.819  0.00  0.00    -0.324 N 
HETATM   13  H   UNK N   1      20.106  15.862   9.607  0.00  0.00     0.169 HD
HETATM   14  H   UNK N   1      20.639  16.204   8.066  0.00  0.00     0.169 HD
ENDBRANCH   9  12
ENDBRANCH   1   9
TORSDOF 2
ENDMDL
MODEL 6
REMARK VINA RESULT:      -4.8     11.238     12.035
REMARK  2 active torsions:
REMARK  status: ('A' for Active; 'I' for Inactive)
REMARK    1  A    between atoms: N_1  and  S_2 
REMARK    2  A    between atoms: S_2  and  C_5 
ROOT
HETATM    1  C   UNK N   1      32.398  17.238   6.797  0.00  0.00     0.156 A 
HETATM    2  C   UNK N   1      31.187  17.057   7.490  0.00  0.00     0.142 A 
HETATM    3  F   UNK N   1      31.173  16.886   8.834  0.00  0.00    -0.204 F 
HETATM    4  C   UNK N   1      29.977  17.049   6.789  0.00  0.00     0.044 A 
HETATM    5  C   UNK N   1      29.965  17.221   5.403  0.00  0.00     0.006 A 
HETATM    6  C   UNK N   1      31.165  17.409   4.713  0.00  0.00     0.044 A 
HETATM    7  C   UNK N   1      32.379  17.419   5.405  0.00  0.00     0.142 A 
HETATM    8  F   UNK N   1      33.534  17.601   4.720  0.00  0.00    -0.204 F 
ENDROOT
BRANCH   1   9
HETATM    9  S   UNK N   1      33.974  17.214   7.666  0.00  0.00     0.262 S 
HETATM   10  O   UNK N   1      34.721  18.545   7.502  0.00  0.00    -0.201 OA
HETATM   11  O   UNK N   1      34.993  16.216   7.094  0.00  0.00    -0.201 OA
BRANCH   9  12
HETATM   12  N   UNK N   1      33.964  16.922   9.406  0.00  0.00    -0.324 N 
HETATM   13  H   UNK N   1      33.455  16.402  10.120  0.00  0.00     0.169 HD
HETATM   14  H   UNK N   1      34.720  17.449   9.843  0.00  0.00     0.169 HD
ENDBRANCH   9  12
ENDBRANCH   1   9
TORSDOF 2
ENDMDL
MODEL 7
REMARK VINA RESULT:      -4.8      1.893      3.080
REMARK  2 active torsions:
REMARK  status: ('A' for Active; 'I' for Inactive)
REMARK    1  A    between atoms: N_1  and  S_2 
REMARK    2  A    between atoms: S_2  and  C_5 
ROOT
HETATM    1  C   UNK N   1      21.334  14.189   9.132  0.00  0.00     0.156 A 
HETATM    2  C   UNK N   1      22.599  13.578   9.076  0.00  0.00     0.142 A 
HETATM    3  F   UNK N   1      23.541  14.006   8.202  0.00  0.00    -0.204 F 
HETATM    4  C   UNK N   1      22.896  12.511   9.930  0.00  0.00     0.044 A 
HETATM    5  C   UNK N   1      21.941  12.049  10.838  0.00  0.00     0.006 A 
HETATM    6  C   UNK N   1      20.686  12.660  10.902  0.00  0.00     0.044 A 
HETATM    7  C   UNK N   1      20.381  13.727  10.054  0.00  0.00     0.142 A 
HETATM    8  F   UNK N   1      19.158  14.307  10.127  0.00  0.00    -0.204 F 
ENDROOT
BRANCH   1   9
HETATM    9  S   UNK N   1      20.908  15.539   8.020  0.00  0.00     0.262 S 
HETATM   10  O   UNK N   1      20.621  16.832   8.797  0.00  0.00    -0.201 OA
HETATM   11  O   UNK N   1      19.588  15.337   7.260  0.00  0.00    -0.201 OA
BRANCH   9  12
HETATM   12  N   UNK N   1      22.083  16.012   6.792  0.00  0.00    -0.324 N 
HETATM   13  H   UNK N   1      22.271  15.914   5.794  0.00  0.00     0.169 HD
HETATM   14  H   UNK N   1      22.821  16.569   7.224  0.00  0.00     0.169 HD
ENDBRANCH   9  12
ENDBRANCH   1   9
TORSDOF 2
ENDMDL
MODEL 8
REMARK VINA RESULT:      -4.7     14.369     15.137
REMARK  2 active torsions:
REMARK  status: ('A' for Active; 'I' for Inactive)
REMARK    1  A    between atoms: N_1  and  S_2 
REMARK    2  A    between atoms: S_2  and  C_5 
ROOT
HETATM    1  C   UNK N   1      35.874  13.896  15.312  0.00  0.00     0.156 A 
HETATM    2  C   UNK N   1      36.677  14.809  16.019  0.00  0.00     0.142 A 
HETATM    3  F   UNK N   1      37.581  15.585  15.374  0.00  0.00    -0.204 F 
HETATM    4  C   UNK N   1      36.548  14.923  17.407  0.00  0.00     0.044 A 
HETATM    5  C   UNK N   1      35.624  14.133  18.095  0.00  0.00     0.006 A 
HETATM    6  C   UNK N   1      34.819  13.231  17.395  0.00  0.00     0.044 A 
HETATM    7  C   UNK N   1      34.940  13.112  16.008  0.00  0.00     0.142 A 
HETATM    8  F   UNK N   1      34.153  12.230  15.345  0.00  0.00    -0.204 F 
ENDROOT
BRANCH   1   9
HETATM    9  S   UNK N   1      36.043  13.700  13.531  0.00  0.00     0.262 S 
HETATM   10  O   UNK N   1      36.209  15.057  12.834  0.00  0.00    -0.201 OA
HETATM   11  O   UNK N   1      34.789  13.147  12.837  0.00  0.00    -0.201 OA
BRANCH   9  12
HETATM   12  N   UNK N   1      37.379  12.723  12.922  0.00  0.00    -0.324 N 
HETATM   13  H   UNK N   1      37.666  11.749  12.814  0.00  0.00     0.169 HD
HETATM   14  H   UNK N   1      38.109  13.334  12.556  0.00  0.00     0.169 HD
ENDBRANCH   9  12
ENDBRANCH   1   9
TORSDOF 2
ENDMDL
MODEL 9
REMARK VINA RESULT:      -4.7      8.124      8.927
REMARK  2 active torsions:
REMARK  status: ('A' for Active; 'I' for Inactive)
REMARK    1  A    between atoms: N_1  and  S_2 
REMARK    2  A    between atoms: S_2  and  C_5 
ROOT
HETATM    1  C   UNK N   1      22.136  18.802   3.438  0.00  0.00     0.156 A 
HETATM    2  C   UNK N   1      23.468  18.852   3.885  0.00  0.00     0.142 A 
HETATM    3  F   UNK N   1      24.156  20.020   3.895  0.00  0.00    -0.204 F 
HETATM    4  C   UNK N   1      24.101  17.685   4.324  0.00  0.00     0.044 A 
HETATM    5  C   UNK N   1      23.415  16.469   4.322  0.00  0.00     0.006 A 
HETATM    6  C   UNK N   1      22.088  16.417   3.886  0.00  0.00     0.044 A 
HETATM    7  C   UNK N   1      21.448  17.578   3.446  0.00  0.00     0.142 A 
HETATM    8  F   UNK N   1      20.161  17.510   3.025  0.00  0.00    -0.204 F 
ENDROOT
BRANCH   1   9
HETATM    9  S   UNK N   1      21.307  20.280   2.831  0.00  0.00     0.262 S 
HETATM   10  O   UNK N   1      22.278  21.465   2.738  0.00  0.00    -0.201 OA
HETATM   11  O   UNK N   1      20.233  20.834   3.780  0.00  0.00    -0.201 OA
BRANCH   9  12
HETATM   12  N   UNK N   1      20.536  20.213   1.245  0.00  0.00    -0.324 N 
HETATM   13  H   UNK N   1      19.879  20.730   0.660  0.00  0.00     0.169 HD
HETATM   14  H   UNK N   1      20.852  19.380   0.748  0.00  0.00     0.169 HD
ENDBRANCH   9  12
ENDBRANCH   1   9
TORSDOF 2
ENDMDL
