MODEL 1
REMARK VINA RESULT:      -7.5      0.000      0.000
REMARK  16 active torsions:
REMARK  status: ('A' for Active; 'I' for Inactive)
REMARK    1  A    between atoms: C_6  and  C_4 
REMARK    2  A    between atoms: O_31  and  C_4 
REMARK    3  A    between atoms: C_5  and  O_20 
REMARK    4  A    between atoms: C_8  and  O_21 
REMARK    5  A    between atoms: C_9  and  O_22 
REMARK    6  A    between atoms: C_10  and  O_23 
REMARK    7  A    between atoms: C_11  and  O_24 
REMARK    8  A    between atoms: C_12  and  N_19 
REMARK    9  A    between atoms: C_13  and  O_33 
REMARK   10  A    between atoms: O_25  and  C_14 
REMARK   11  A    between atoms: P_35  and  O_26 
REMARK   12  A    between atoms: P_36  and  O_28 
REMARK   13  A    between atoms: P_35  and  O_31 
REMARK   14  A    between atoms: P_36  and  O_33 
REMARK   15  A    between atoms: P_35  and  O_34 
REMARK   16  A    between atoms: P_36  and  O_34 
ROOT
HETATM    1  O   UNK N   1      35.222  14.620   9.309  0.00  0.00    -0.294 OA
ENDROOT
BRANCH   1   2
HETATM    2  C   UNK N   1      35.847  15.282  10.371  0.00  0.00     0.215 C 
BRANCH   2   3
HETATM    3  C   UNK N   1      36.263  14.316  11.480  0.00  0.00     0.180 C 
HETATM    4  C   UNK N   1      36.295  12.835  11.111  0.00  0.00     0.182 C 
HETATM    5  C   UNK N   1      36.441  12.262  12.490  0.00  0.00     0.198 C 
HETATM    6  C   UNK N   1      35.379  13.131  13.210  0.00  0.00     0.262 C 
HETATM    7  O   UNK N   1      35.406  14.413  12.588  0.00  0.00    -0.353 OA
BRANCH   4   8
HETATM    8  O   UNK N   1      37.359  12.507  10.266  0.00  0.00    -0.390 OA
HETATM    9  H   UNK N   1      37.947  11.736  10.233  0.00  0.00     0.210 HD
ENDBRANCH   4   8
BRANCH   5  10
HETATM   10  O   UNK N   1      37.737  12.553  12.942  0.00  0.00    -0.388 OA
HETATM   11  H   UNK N   1      38.660  12.308  13.118  0.00  0.00     0.210 HD
ENDBRANCH   5  10
BRANCH   6  12
HETATM   12  N   UNK N   1      35.525  13.319  14.672  0.00  0.00    -0.293 N 
HETATM   13  C   UNK N   1      34.721  12.529  15.446  0.00  0.00     0.101 A 
HETATM   14  C   UNK N   1      34.669  12.678  16.823  0.00  0.00     0.065 A 
HETATM   15  C   UNK N   1      35.462  13.648  17.410  0.00  0.00     0.102 A 
HETATM   16  N   UNK N   1      35.410  13.840  18.671  0.00  0.00    -0.385 N 
HETATM   17  N   UNK N   1      36.299  14.390  16.643  0.00  0.00    -0.308 N 
HETATM   18  H   UNK N   1      35.996  14.498  19.109  0.00  0.00     0.157 HD
ATOM     19  HN  UNK N   1      34.748  13.303  19.232  1.00  0.00     0.157 HD
HETATM   20  C   UNK N   1      36.348  14.235  15.293  0.00  0.00     0.227 A 
ATOM     21  HN  UNK N   1      36.905  15.079  17.088  1.00  0.00     0.171 HD
BRANCH  20  22
HETATM   22  O   UNK N   1      37.223  14.982  14.597  0.00  0.00    -0.332 OA
HETATM   23  H   UNK N   1      37.558  15.776  14.965  0.00  0.00     0.221 HD
ENDBRANCH  20  22
ENDBRANCH   6  12
ENDBRANCH   2   3
ENDBRANCH   1   2
BRANCH   1  24
HETATM   24  P   UNK N   1      33.537  15.068   9.333  0.00  0.00     0.401 P 
HETATM   25  O   UNK N   1      32.731  13.981   8.563  0.00  0.00    -0.631 OA
BRANCH  24  26
HETATM   26  O   UNK N   1      32.985  15.054  10.980  0.00  0.00    -0.307 OA
HETATM   27  H   UNK N   1      33.033  15.259  11.927  0.00  0.00     0.222 HD
ENDBRANCH  24  26
BRANCH  24  28
HETATM   28  O   UNK N   1      33.293  16.618   8.517  0.00  0.00    -0.195 OA
BRANCH  28  29
HETATM   29  P   UNK N   1      33.287  16.522   6.737  0.00  0.00     0.404 P 
HETATM   30  O   UNK N   1      33.656  17.922   6.177  0.00  0.00    -0.631 OA
BRANCH  29  31
HETATM   31  O   UNK N   1      34.953  16.712   7.196  0.00  0.00    -0.307 OA
HETATM   32  H   UNK N   1      35.602  17.428   7.109  0.00  0.00     0.222 HD
ENDBRANCH  29  31
BRANCH  29  33
HETATM   33  O   UNK N   1      31.838  17.466   7.045  0.00  0.00    -0.263 OA
BRANCH  33  34
HETATM   34  C   UNK N   1      30.632  16.734   7.252  0.00  0.00     0.302 C 
HETATM   35  C   UNK N   1      29.807  17.192   8.469  0.00  0.00     0.205 C 
HETATM   36  C   UNK N   1      28.999  18.436   8.118  0.00  0.00     0.182 C 
HETATM   37  C   UNK N   1      28.149  18.131   6.876  0.00  0.00     0.173 C 
HETATM   38  C   UNK N   1      29.056  17.647   5.745  0.00  0.00     0.205 C 
HETATM   39  O   UNK N   1      29.836  16.512   6.090  0.00  0.00    -0.355 OA
BRANCH  35  40
HETATM   40  O   UNK N   1      30.642  17.425   9.566  0.00  0.00    -0.388 OA
HETATM   41  H   UNK N   1      30.564  18.154  10.202  0.00  0.00     0.210 HD
ENDBRANCH  35  40
BRANCH  36  42
HETATM   42  O   UNK N   1      28.179  18.802   9.187  0.00  0.00    -0.390 OA
HETATM   43  H   UNK N   1      28.421  19.556   9.749  0.00  0.00     0.210 HD
ENDBRANCH  36  42
BRANCH  37  44
HETATM   44  O   UNK N   1      27.194  17.150   7.154  0.00  0.00    -0.391 OA
HETATM   45  H   UNK N   1      26.854  16.278   7.409  0.00  0.00     0.210 HD
ENDBRANCH  37  44
ENDBRANCH  33  34
ENDBRANCH  29  33
ENDBRANCH  28  29
ENDBRANCH  24  28
ENDBRANCH   1  24
TORSDOF 16
ENDMDL
MODEL 2
REMARK VINA RESULT:      -7.0      5.267     10.677
REMARK  16 active torsions:
REMARK  status: ('A' for Active; 'I' for Inactive)
REMARK    1  A    between atoms: C_6  and  C_4 
REMARK    2  A    between atoms: O_31  and  C_4 
REMARK    3  A    between atoms: C_5  and  O_20 
REMARK    4  A    between atoms: C_8  and  O_21 
REMARK    5  A    between atoms: C_9  and  O_22 
REMARK    6  A    between atoms: C_10  and  O_23 
REMARK    7  A    between atoms: C_11  and  O_24 
REMARK    8  A    between atoms: C_12  and  N_19 
REMARK    9  A    between atoms: C_13  and  O_33 
REMARK   10  A    between atoms: O_25  and  C_14 
REMARK   11  A    between atoms: P_35  and  O_26 
REMARK   12  A    between atoms: P_36  and  O_28 
REMARK   13  A    between atoms: P_35  and  O_31 
REMARK   14  A    between atoms: P_36  and  O_33 
REMARK   15  A    between atoms: P_35  and  O_34 
REMARK   16  A    between atoms: P_36  and  O_34 
ROOT
HETATM    1  O   UNK N   1      31.933  16.424   5.575  0.00  0.00    -0.294 OA
ENDROOT
BRANCH   1   2
HETATM    2  C   UNK N   1      30.619  15.998   5.348  0.00  0.00     0.215 C 
BRANCH   2   3
HETATM    3  C   UNK N   1      29.597  17.057   5.758  0.00  0.00     0.180 C 
HETATM    4  C   UNK N   1      29.051  16.957   7.180  0.00  0.00     0.182 C 
HETATM    5  C   UNK N   1      27.922  17.938   7.059  0.00  0.00     0.198 C 
HETATM    6  C   UNK N   1      27.359  17.466   5.695  0.00  0.00     0.262 C 
HETATM    7  O   UNK N   1      28.473  17.032   4.917  0.00  0.00    -0.353 OA
BRANCH   4   8
HETATM    8  O   UNK N   1      29.989  17.320   8.151  0.00  0.00    -0.390 OA
HETATM    9  H   UNK N   1      29.898  17.543   9.090  0.00  0.00     0.210 HD
ENDBRANCH   4   8
BRANCH   5  10
HETATM   10  O   UNK N   1      28.477  19.224   6.971  0.00  0.00    -0.388 OA
HETATM   11  H   UNK N   1      28.432  20.186   7.085  0.00  0.00     0.210 HD
ENDBRANCH   5  10
BRANCH   6  12
HETATM   12  N   UNK N   1      26.588  18.448   4.896  0.00  0.00    -0.293 N 
HETATM   13  C   UNK N   1      25.229  18.308   4.952  0.00  0.00     0.101 A 
HETATM   14  C   UNK N   1      24.388  19.082   4.168  0.00  0.00     0.065 A 
HETATM   15  C   UNK N   1      24.956  20.018   3.322  0.00  0.00     0.102 A 
HETATM   16  N   UNK N   1      24.215  20.720   2.555  0.00  0.00    -0.385 N 
HETATM   17  N   UNK N   1      26.301  20.190   3.311  0.00  0.00    -0.308 N 
HETATM   18  H   UNK N   1      24.599  21.417   1.976  0.00  0.00     0.157 HD
ATOM     19  HN  UNK N   1      23.208  20.554   2.543  1.00  0.00     0.157 HD
HETATM   20  C   UNK N   1      27.119  19.430   4.087  0.00  0.00     0.227 A 
ATOM     21  HN  UNK N   1      26.708  20.906   2.709  1.00  0.00     0.171 HD
BRANCH  20  22
HETATM   22  O   UNK N   1      28.441  19.675   4.051  0.00  0.00    -0.332 OA
HETATM   23  H   UNK N   1      29.035  18.999   3.790  0.00  0.00     0.221 HD
ENDBRANCH  20  22
ENDBRANCH   6  12
ENDBRANCH   2   3
ENDBRANCH   1   2
BRANCH   1  24
HETATM   24  P   UNK N   1      32.602  15.409   6.825  0.00  0.00     0.401 P 
HETATM   25  O   UNK N   1      31.741  14.116   6.918  0.00  0.00    -0.631 OA
BRANCH  24  26
HETATM   26  O   UNK N   1      34.204  14.934   6.353  0.00  0.00    -0.307 OA
HETATM   27  H   UNK N   1      35.170  15.012   6.313  0.00  0.00     0.222 HD
ENDBRANCH  24  26
BRANCH  24  28
HETATM   28  O   UNK N   1      32.539  16.228   8.392  0.00  0.00    -0.195 OA
BRANCH  28  29
HETATM   29  P   UNK N   1      33.788  17.478   8.622  0.00  0.00     0.404 P 
HETATM   30  O   UNK N   1      34.808  17.362   7.457  0.00  0.00    -0.631 OA
BRANCH  29  31
HETATM   31  O   UNK N   1      32.870  17.976   7.233  0.00  0.00    -0.307 OA
HETATM   32  H   UNK N   1      33.077  18.478   6.429  0.00  0.00     0.222 HD
ENDBRANCH  29  31
BRANCH  29  33
HETATM   33  O   UNK N   1      34.676  16.014   9.018  0.00  0.00    -0.263 OA
BRANCH  33  34
HETATM   34  C   UNK N   1      35.240  15.944  10.326  0.00  0.00     0.302 C 
HETATM   35  C   UNK N   1      34.575  14.910  11.253  0.00  0.00     0.205 C 
HETATM   36  C   UNK N   1      35.101  13.512  10.945  0.00  0.00     0.182 C 
HETATM   37  C   UNK N   1      36.633  13.535  11.042  0.00  0.00     0.173 C 
HETATM   38  C   UNK N   1      37.186  14.619  10.118  0.00  0.00     0.205 C 
HETATM   39  O   UNK N   1      36.664  15.912  10.383  0.00  0.00    -0.355 OA
BRANCH  35  40
HETATM   40  O   UNK N   1      33.184  14.965  11.130  0.00  0.00    -0.388 OA
HETATM   41  H   UNK N   1      32.538  14.792  11.833  0.00  0.00     0.210 HD
ENDBRANCH  35  40
BRANCH  36  42
HETATM   42  O   UNK N   1      34.572  12.584  11.843  0.00  0.00    -0.390 OA
HETATM   43  H   UNK N   1      35.154  11.934  12.268  0.00  0.00     0.210 HD
ENDBRANCH  36  42
BRANCH  37  44
HETATM   44  O   UNK N   1      37.046  13.792  12.353  0.00  0.00    -0.391 OA
HETATM   45  H   UNK N   1      37.646  14.057  13.066  0.00  0.00     0.210 HD
ENDBRANCH  37  44
ENDBRANCH  33  34
ENDBRANCH  29  33
ENDBRANCH  28  29
ENDBRANCH  24  28
ENDBRANCH   1  24
TORSDOF 16
ENDMDL
MODEL 3
REMARK VINA RESULT:      -7.0      1.651      2.547
REMARK  16 active torsions:
REMARK  status: ('A' for Active; 'I' for Inactive)
REMARK    1  A    between atoms: C_6  and  C_4 
REMARK    2  A    between atoms: O_31  and  C_4 
REMARK    3  A    between atoms: C_5  and  O_20 
REMARK    4  A    between atoms: C_8  and  O_21 
REMARK    5  A    between atoms: C_9  and  O_22 
REMARK    6  A    between atoms: C_10  and  O_23 
REMARK    7  A    between atoms: C_11  and  O_24 
REMARK    8  A    between atoms: C_12  and  N_19 
REMARK    9  A    between atoms: C_13  and  O_33 
REMARK   10  A    between atoms: O_25  and  C_14 
REMARK   11  A    between atoms: P_35  and  O_26 
REMARK   12  A    between atoms: P_36  and  O_28 
REMARK   13  A    between atoms: P_35  and  O_31 
REMARK   14  A    between atoms: P_36  and  O_33 
REMARK   15  A    between atoms: P_35  and  O_34 
REMARK   16  A    between atoms: P_36  and  O_34 
ROOT
HETATM    1  O   UNK N   1      35.368  13.748   7.342  0.00  0.00    -0.294 OA
ENDROOT
BRANCH   1   2
HETATM    2  C   UNK N   1      35.238  12.892   8.441  0.00  0.00     0.215 C 
BRANCH   2   3
HETATM    3  C   UNK N   1      35.125  13.662   9.756  0.00  0.00     0.180 C 
HETATM    4  C   UNK N   1      35.733  15.063   9.774  0.00  0.00     0.182 C 
HETATM    5  C   UNK N   1      35.676  15.314  11.252  0.00  0.00     0.198 C 
HETATM    6  C   UNK N   1      36.212  13.943  11.735  0.00  0.00     0.262 C 
HETATM    7  O   UNK N   1      35.740  12.967  10.808  0.00  0.00    -0.353 OA
BRANCH   4   8
HETATM    8  O   UNK N   1      34.992  15.988   9.033  0.00  0.00    -0.390 OA
HETATM    9  H   UNK N   1      34.902  16.131   8.078  0.00  0.00     0.210 HD
ENDBRANCH   4   8
BRANCH   5  10
HETATM   10  O   UNK N   1      34.331  15.496  11.606  0.00  0.00    -0.388 OA
HETATM   11  H   UNK N   1      33.439  15.159  11.791  0.00  0.00     0.210 HD
ENDBRANCH   5  10
BRANCH   6  12
HETATM   12  N   UNK N   1      35.840  13.504  13.101  0.00  0.00    -0.293 N 
HETATM   13  C   UNK N   1      36.489  14.148  14.118  0.00  0.00     0.101 A 
HETATM   14  C   UNK N   1      36.326  13.764  15.439  0.00  0.00     0.065 A 
HETATM   15  C   UNK N   1      35.474  12.709  15.716  0.00  0.00     0.102 A 
HETATM   16  N   UNK N   1      35.331  12.302  16.918  0.00  0.00    -0.385 N 
HETATM   17  N   UNK N   1      34.790  12.111  14.709  0.00  0.00    -0.308 N 
HETATM   18  H   UNK N   1      34.699  11.579  17.137  0.00  0.00     0.157 HD
ATOM     19  HN  UNK N   1      35.880  12.733  17.662  1.00  0.00     0.157 HD
HETATM   20  C   UNK N   1      34.953  12.496  13.416  0.00  0.00     0.227 A 
ATOM     21  HN  UNK N   1      34.139  11.357  14.927  1.00  0.00     0.171 HD
BRANCH  20  22
HETATM   22  O   UNK N   1      34.220  11.882  12.470  0.00  0.00    -0.332 OA
HETATM   23  H   UNK N   1      33.637  11.188  12.708  0.00  0.00     0.221 HD
ENDBRANCH  20  22
ENDBRANCH   6  12
ENDBRANCH   2   3
ENDBRANCH   1   2
BRANCH   1  24
HETATM   24  P   UNK N   1      33.783  13.944   6.642  0.00  0.00     0.401 P 
HETATM   25  O   UNK N   1      33.898  13.727   5.105  0.00  0.00    -0.631 OA
BRANCH  24  26
HETATM   26  O   UNK N   1      32.744  12.699   7.265  0.00  0.00    -0.307 OA
HETATM   27  H   UNK N   1      32.026  12.049   7.224  0.00  0.00     0.222 HD
ENDBRANCH  24  26
BRANCH  24  28
HETATM   28  O   UNK N   1      33.176  15.581   6.925  0.00  0.00    -0.195 OA
BRANCH  28  29
HETATM   29  P   UNK N   1      33.462  16.717   5.581  0.00  0.00     0.404 P 
HETATM   30  O   UNK N   1      34.238  17.940   6.139  0.00  0.00    -0.631 OA
BRANCH  29  31
HETATM   31  O   UNK N   1      35.019  16.056   5.982  0.00  0.00    -0.307 OA
HETATM   32  H   UNK N   1      35.474  15.852   6.814  0.00  0.00     0.222 HD
ENDBRANCH  29  31
BRANCH  29  33
HETATM   33  O   UNK N   1      32.240  17.570   6.511  0.00  0.00    -0.263 OA
BRANCH  33  34
HETATM   34  C   UNK N   1      31.222  16.772   7.111  0.00  0.00     0.302 C 
HETATM   35  C   UNK N   1      31.006  17.035   8.613  0.00  0.00     0.205 C 
HETATM   36  C   UNK N   1      30.153  18.283   8.812  0.00  0.00     0.182 C 
HETATM   37  C   UNK N   1      28.848  18.112   8.021  0.00  0.00     0.173 C 
HETATM   38  C   UNK N   1      29.174  17.815   6.558  0.00  0.00     0.205 C 
HETATM   39  O   UNK N   1      30.002  16.675   6.380  0.00  0.00    -0.355 OA
BRANCH  35  40
HETATM   40  O   UNK N   1      32.235  17.153   9.271  0.00  0.00    -0.388 OA
HETATM   41  H   UNK N   1      32.843  16.428   9.485  0.00  0.00     0.210 HD
ENDBRANCH  35  40
BRANCH  36  42
HETATM   42  O   UNK N   1      29.877  18.473  10.166  0.00  0.00    -0.390 OA
HETATM   43  H   UNK N   1      29.244  17.894  10.619  0.00  0.00     0.210 HD
ENDBRANCH  36  42
BRANCH  37  44
HETATM   44  O   UNK N   1      28.082  17.067   8.543  0.00  0.00    -0.391 OA
HETATM   45  H   UNK N   1      27.615  16.217   8.553  0.00  0.00     0.210 HD
ENDBRANCH  37  44
ENDBRANCH  33  34
ENDBRANCH  29  33
ENDBRANCH  28  29
ENDBRANCH  24  28
ENDBRANCH   1  24
TORSDOF 16
ENDMDL
MODEL 4
REMARK VINA RESULT:      -7.0      2.189      3.021
REMARK  16 active torsions:
REMARK  status: ('A' for Active; 'I' for Inactive)
REMARK    1  A    between atoms: C_6  and  C_4 
REMARK    2  A    between atoms: O_31  and  C_4 
REMARK    3  A    between atoms: C_5  and  O_20 
REMARK    4  A    between atoms: C_8  and  O_21 
REMARK    5  A    between atoms: C_9  and  O_22 
REMARK    6  A    between atoms: C_10  and  O_23 
REMARK    7  A    between atoms: C_11  and  O_24 
REMARK    8  A    between atoms: C_12  and  N_19 
REMARK    9  A    between atoms: C_13  and  O_33 
REMARK   10  A    between atoms: O_25  and  C_14 
REMARK   11  A    between atoms: P_35  and  O_26 
REMARK   12  A    between atoms: P_36  and  O_28 
REMARK   13  A    between atoms: P_35  and  O_31 
REMARK   14  A    between atoms: P_36  and  O_33 
REMARK   15  A    between atoms: P_35  and  O_34 
REMARK   16  A    between atoms: P_36  and  O_34 
ROOT
HETATM    1  O   UNK N   1      34.332  16.497   9.435  0.00  0.00    -0.294 OA
ENDROOT
BRANCH   1   2
HETATM    2  C   UNK N   1      35.396  16.773  10.300  0.00  0.00     0.215 C 
BRANCH   2   3
HETATM    3  C   UNK N   1      35.942  15.506  10.958  0.00  0.00     0.180 C 
HETATM    4  C   UNK N   1      36.136  14.298  10.044  0.00  0.00     0.182 C 
HETATM    5  C   UNK N   1      36.374  13.255  11.095  0.00  0.00     0.198 C 
HETATM    6  C   UNK N   1      35.233  13.649  12.067  0.00  0.00     0.262 C 
HETATM    7  O   UNK N   1      35.102  15.067  11.993  0.00  0.00    -0.353 OA
BRANCH   4   8
HETATM    8  O   UNK N   1      37.214  14.447   9.166  0.00  0.00    -0.390 OA
HETATM    9  H   UNK N   1      37.631  15.232   8.778  0.00  0.00     0.210 HD
ENDBRANCH   4   8
BRANCH   5  10
HETATM   10  O   UNK N   1      37.637  13.493  11.659  0.00  0.00    -0.388 OA
HETATM   11  H   UNK N   1      38.239  13.560  12.417  0.00  0.00     0.210 HD
ENDBRANCH   5  10
BRANCH   6  12
HETATM   12  N   UNK N   1      35.386  13.270  13.492  0.00  0.00    -0.293 N 
HETATM   13  C   UNK N   1      34.674  12.169  13.882  0.00  0.00     0.101 A 
HETATM   14  C   UNK N   1      34.632  11.768  15.208  0.00  0.00     0.065 A 
HETATM   15  C   UNK N   1      35.339  12.505  16.141  0.00  0.00     0.102 A 
HETATM   16  N   UNK N   1      35.290  12.188  17.377  0.00  0.00    -0.385 N 
HETATM   17  N   UNK N   1      36.088  13.561  15.739  0.00  0.00    -0.308 N 
HETATM   18  H   UNK N   1      35.819  12.677  18.048  0.00  0.00     0.157 HD
ATOM     19  HN  UNK N   1      34.693  11.416  17.673  1.00  0.00     0.157 HD
HETATM   20  C   UNK N   1      36.128  13.947  14.436  0.00  0.00     0.227 A 
ATOM     21  HN  UNK N   1      36.633  14.078  16.429  1.00  0.00     0.171 HD
BRANCH  20  22
HETATM   22  O   UNK N   1      36.916  14.985  14.102  0.00  0.00    -0.332 OA
HETATM   23  H   UNK N   1      37.236  15.065  13.225  0.00  0.00     0.221 HD
ENDBRANCH  20  22
ENDBRANCH   6  12
ENDBRANCH   2   3
ENDBRANCH   1   2
BRANCH   1  24
HETATM   24  P   UNK N   1      34.270  17.780   8.256  0.00  0.00     0.401 P 
HETATM   25  O   UNK N   1      32.836  18.386   8.270  0.00  0.00    -0.631 OA
BRANCH  24  26
HETATM   26  O   UNK N   1      35.368  19.034   8.745  0.00  0.00    -0.307 OA
HETATM   27  H   UNK N   1      36.238  19.415   8.942  0.00  0.00     0.222 HD
ENDBRANCH  24  26
BRANCH  24  28
HETATM   28  O   UNK N   1      34.589  17.151   6.634  0.00  0.00    -0.195 OA
BRANCH  28  29
HETATM   29  P   UNK N   1      34.130  15.445   6.401  0.00  0.00     0.404 P 
HETATM   30  O   UNK N   1      34.724  14.966   5.049  0.00  0.00    -0.631 OA
BRANCH  29  31
HETATM   31  O   UNK N   1      35.844  15.439   6.693  0.00  0.00    -0.307 OA
HETATM   32  H   UNK N   1      36.611  15.087   6.216  0.00  0.00     0.222 HD
ENDBRANCH  29  31
BRANCH  29  33
HETATM   33  O   UNK N   1      33.113  16.249   5.216  0.00  0.00    -0.263 OA
BRANCH  33  34
HETATM   34  C   UNK N   1      31.742  16.426   5.567  0.00  0.00     0.302 C 
HETATM   35  C   UNK N   1      30.889  17.114   4.485  0.00  0.00     0.205 C 
HETATM   36  C   UNK N   1      30.491  16.108   3.411  0.00  0.00     0.182 C 
HETATM   37  C   UNK N   1      29.789  14.922   4.090  0.00  0.00     0.173 C 
HETATM   38  C   UNK N   1      30.701  14.342   5.171  0.00  0.00     0.205 C 
HETATM   39  O   UNK N   1      31.102  15.292   6.146  0.00  0.00    -0.355 OA
BRANCH  35  40
HETATM   40  O   UNK N   1      31.580  18.196   3.931  0.00  0.00    -0.388 OA
HETATM   41  H   UNK N   1      31.213  19.073   3.738  0.00  0.00     0.210 HD
ENDBRANCH  35  40
BRANCH  36  42
HETATM   42  O   UNK N   1      29.641  16.703   2.477  0.00  0.00    -0.390 OA
HETATM   43  H   UNK N   1      29.093  17.462   2.733  0.00  0.00     0.210 HD
ENDBRANCH  36  42
BRANCH  37  44
HETATM   44  O   UNK N   1      28.583  15.323   4.672  0.00  0.00    -0.391 OA
HETATM   45  H   UNK N   1      27.661  15.622   4.705  0.00  0.00     0.210 HD
ENDBRANCH  37  44
ENDBRANCH  33  34
ENDBRANCH  29  33
ENDBRANCH  28  29
ENDBRANCH  24  28
ENDBRANCH   1  24
TORSDOF 16
ENDMDL
MODEL 5
REMARK VINA RESULT:      -7.0      2.072      2.904
REMARK  16 active torsions:
REMARK  status: ('A' for Active; 'I' for Inactive)
REMARK    1  A    between atoms: C_6  and  C_4 
REMARK    2  A    between atoms: O_31  and  C_4 
REMARK    3  A    between atoms: C_5  and  O_20 
REMARK    4  A    between atoms: C_8  and  O_21 
REMARK    5  A    between atoms: C_9  and  O_22 
REMARK    6  A    between atoms: C_10  and  O_23 
REMARK    7  A    between atoms: C_11  and  O_24 
REMARK    8  A    between atoms: C_12  and  N_19 
REMARK    9  A    between atoms: C_13  and  O_33 
REMARK   10  A    between atoms: O_25  and  C_14 
REMARK   11  A    between atoms: P_35  and  O_26 
REMARK   12  A    between atoms: P_36  and  O_28 
REMARK   13  A    between atoms: P_35  and  O_31 
REMARK   14  A    between atoms: P_36  and  O_33 
REMARK   15  A    between atoms: P_35  and  O_34 
REMARK   16  A    between atoms: P_36  and  O_34 
ROOT
HETATM    1  O   UNK N   1      34.909  15.162   8.527  0.00  0.00    -0.294 OA
ENDROOT
BRANCH   1   2
HETATM    2  C   UNK N   1      35.480  13.914   8.797  0.00  0.00     0.215 C 
BRANCH   2   3
HETATM    3  C   UNK N   1      35.365  13.540  10.274  0.00  0.00     0.180 C 
HETATM    4  C   UNK N   1      34.886  14.642  11.216  0.00  0.00     0.182 C 
HETATM    5  C   UNK N   1      35.200  13.974  12.523  0.00  0.00     0.198 C 
HETATM    6  C   UNK N   1      36.615  13.448  12.174  0.00  0.00     0.262 C 
HETATM    7  O   UNK N   1      36.597  13.109  10.789  0.00  0.00    -0.353 OA
BRANCH   4   8
HETATM    8  O   UNK N   1      33.528  14.937  11.065  0.00  0.00    -0.390 OA
HETATM    9  H   UNK N   1      32.776  14.861  11.672  0.00  0.00     0.210 HD
ENDBRANCH   4   8
BRANCH   5  10
HETATM   10  O   UNK N   1      34.287  12.923  12.699  0.00  0.00    -0.388 OA
HETATM   11  H   UNK N   1      33.398  12.581  12.886  0.00  0.00     0.210 HD
ENDBRANCH   5  10
BRANCH   6  12
HETATM   12  N   UNK N   1      37.117  12.278  12.933  0.00  0.00    -0.293 N 
HETATM   13  C   UNK N   1      37.279  11.134  12.202  0.00  0.00     0.101 A 
HETATM   14  C   UNK N   1      37.631   9.935  12.802  0.00  0.00     0.065 A 
HETATM   15  C   UNK N   1      37.829   9.919  14.171  0.00  0.00     0.102 A 
HETATM   16  N   UNK N   1      38.115   8.824  14.763  0.00  0.00    -0.385 N 
HETATM   17  N   UNK N   1      37.721  11.068  14.882  0.00  0.00    -0.308 N 
HETATM   18  H   UNK N   1      38.297   8.802  15.730  0.00  0.00     0.157 HD
ATOM     19  HN  UNK N   1      38.154   7.959  14.224  1.00  0.00     0.157 HD
HETATM   20  C   UNK N   1      37.379  12.242  14.286  0.00  0.00     0.227 A 
ATOM     21  HN  UNK N   1      37.901  11.053  15.886  1.00  0.00     0.171 HD
BRANCH  20  22
HETATM   22  O   UNK N   1      37.320  13.350  15.045  0.00  0.00    -0.332 OA
HETATM   23  H   UNK N   1      37.353  14.195  14.642  0.00  0.00     0.221 HD
ENDBRANCH  20  22
ENDBRANCH   6  12
ENDBRANCH   2   3
ENDBRANCH   1   2
BRANCH   1  24
HETATM   24  P   UNK N   1      33.584  14.904   7.423  0.00  0.00     0.401 P 
HETATM   25  O   UNK N   1      34.056  13.913   6.319  0.00  0.00    -0.631 OA
BRANCH  24  26
HETATM   26  O   UNK N   1      32.286  14.139   8.286  0.00  0.00    -0.307 OA
HETATM   27  H   UNK N   1      31.368  13.859   8.430  0.00  0.00     0.222 HD
ENDBRANCH  24  26
BRANCH  24  28
HETATM   28  O   UNK N   1      33.120  16.421   6.643  0.00  0.00    -0.195 OA
BRANCH  28  29
HETATM   29  P   UNK N   1      31.857  16.254   5.396  0.00  0.00     0.404 P 
HETATM   30  O   UNK N   1      31.800  17.577   4.585  0.00  0.00    -0.631 OA
BRANCH  29  31
HETATM   31  O   UNK N   1      33.370  16.266   4.540  0.00  0.00    -0.307 OA
HETATM   32  H   UNK N   1      34.293  16.418   4.797  0.00  0.00     0.222 HD
ENDBRANCH  29  31
BRANCH  29  33
HETATM   33  O   UNK N   1      31.099  17.373   6.518  0.00  0.00    -0.263 OA
BRANCH  33  34
HETATM   34  C   UNK N   1      30.060  16.846   7.340  0.00  0.00     0.302 C 
HETATM   35  C   UNK N   1      30.221  17.141   8.842  0.00  0.00     0.205 C 
HETATM   36  C   UNK N   1      29.756  18.559   9.153  0.00  0.00     0.182 C 
HETATM   37  C   UNK N   1      28.317  18.723   8.643  0.00  0.00     0.173 C 
HETATM   38  C   UNK N   1      28.260  18.367   7.157  0.00  0.00     0.205 C 
HETATM   39  O   UNK N   1      28.731  17.060   6.868  0.00  0.00    -0.355 OA
BRANCH  35  40
HETATM   40  O   UNK N   1      31.548  16.946   9.240  0.00  0.00    -0.388 OA
HETATM   41  H   UNK N   1      31.861  16.310   9.901  0.00  0.00     0.210 HD
ENDBRANCH  35  40
BRANCH  36  42
HETATM   42  O   UNK N   1      29.813  18.801  10.526  0.00  0.00    -0.390 OA
HETATM   43  H   UNK N   1      30.597  18.537  11.034  0.00  0.00     0.210 HD
ENDBRANCH  36  42
BRANCH  37  44
HETATM   44  O   UNK N   1      27.440  17.896   9.349  0.00  0.00    -0.391 OA
HETATM   45  H   UNK N   1      26.836  17.631  10.060  0.00  0.00     0.210 HD
ENDBRANCH  37  44
ENDBRANCH  33  34
ENDBRANCH  29  33
ENDBRANCH  28  29
ENDBRANCH  24  28
ENDBRANCH   1  24
TORSDOF 16
ENDMDL
MODEL 6
REMARK VINA RESULT:      -7.0      1.529      2.266
REMARK  16 active torsions:
REMARK  status: ('A' for Active; 'I' for Inactive)
REMARK    1  A    between atoms: C_6  and  C_4 
REMARK    2  A    between atoms: O_31  and  C_4 
REMARK    3  A    between atoms: C_5  and  O_20 
REMARK    4  A    between atoms: C_8  and  O_21 
REMARK    5  A    between atoms: C_9  and  O_22 
REMARK    6  A    between atoms: C_10  and  O_23 
REMARK    7  A    between atoms: C_11  and  O_24 
REMARK    8  A    between atoms: C_12  and  N_19 
REMARK    9  A    between atoms: C_13  and  O_33 
REMARK   10  A    between atoms: O_25  and  C_14 
REMARK   11  A    between atoms: P_35  and  O_26 
REMARK   12  A    between atoms: P_36  and  O_28 
REMARK   13  A    between atoms: P_35  and  O_31 
REMARK   14  A    between atoms: P_36  and  O_33 
REMARK   15  A    between atoms: P_35  and  O_34 
REMARK   16  A    between atoms: P_36  and  O_34 
ROOT
HETATM    1  O   UNK N   1      34.183  16.628   9.712  0.00  0.00    -0.294 OA
ENDROOT
BRANCH   1   2
HETATM    2  C   UNK N   1      35.428  16.819  10.319  0.00  0.00     0.215 C 
BRANCH   2   3
HETATM    3  C   UNK N   1      35.958  15.534  10.954  0.00  0.00     0.180 C 
HETATM    4  C   UNK N   1      36.159  14.348  10.015  0.00  0.00     0.182 C 
HETATM    5  C   UNK N   1      36.377  13.279  11.045  0.00  0.00     0.198 C 
HETATM    6  C   UNK N   1      35.225  13.656  12.010  0.00  0.00     0.262 C 
HETATM    7  O   UNK N   1      35.101  15.076  11.967  0.00  0.00    -0.353 OA
BRANCH   4   8
HETATM    8  O   UNK N   1      37.250  14.511   9.156  0.00  0.00    -0.390 OA
HETATM    9  H   UNK N   1      37.323  14.494   8.189  0.00  0.00     0.210 HD
ENDBRANCH   4   8
BRANCH   5  10
HETATM   10  O   UNK N   1      37.634  13.496  11.631  0.00  0.00    -0.388 OA
HETATM   11  H   UNK N   1      38.310  14.073  12.020  0.00  0.00     0.210 HD
ENDBRANCH   5  10
BRANCH   6  12
HETATM   12  N   UNK N   1      35.356  13.242  13.427  0.00  0.00    -0.293 N 
HETATM   13  C   UNK N   1      34.638  12.134  13.780  0.00  0.00     0.101 A 
HETATM   14  C   UNK N   1      34.574  11.701  15.095  0.00  0.00     0.065 A 
HETATM   15  C   UNK N   1      35.268  12.414  16.056  0.00  0.00     0.102 A 
HETATM   16  N   UNK N   1      35.200  12.068  17.283  0.00  0.00    -0.385 N 
HETATM   17  N   UNK N   1      36.024  13.479  15.691  0.00  0.00    -0.308 N 
HETATM   18  H   UNK N   1      35.719  12.540  17.974  0.00  0.00     0.157 HD
ATOM     19  HN  UNK N   1      34.597  11.290  17.551  1.00  0.00     0.157 HD
HETATM   20  C   UNK N   1      36.084  13.896  14.398  0.00  0.00     0.227 A 
ATOM     21  HN  UNK N   1      36.559  13.979  16.401  1.00  0.00     0.171 HD
BRANCH  20  22
HETATM   22  O   UNK N   1      36.877  14.941  14.101  0.00  0.00    -0.332 OA
HETATM   23  H   UNK N   1      36.918  15.677  14.679  0.00  0.00     0.221 HD
ENDBRANCH  20  22
ENDBRANCH   6  12
ENDBRANCH   2   3
ENDBRANCH   1   2
BRANCH   1  24
HETATM   24  P   UNK N   1      34.212  17.466   8.183  0.00  0.00     0.401 P 
HETATM   25  O   UNK N   1      34.940  18.826   8.386  0.00  0.00    -0.631 OA
BRANCH  24  26
HETATM   26  O   UNK N   1      35.154  16.535   7.059  0.00  0.00    -0.307 OA
HETATM   27  H   UNK N   1      35.712  16.401   6.278  0.00  0.00     0.222 HD
ENDBRANCH  24  26
BRANCH  24  28
HETATM   28  O   UNK N   1      32.567  17.798   7.624  0.00  0.00    -0.195 OA
BRANCH  28  29
HETATM   29  P   UNK N   1      31.335  16.671   8.246  0.00  0.00     0.404 P 
HETATM   30  O   UNK N   1      30.733  15.898   7.041  0.00  0.00    -0.631 OA
BRANCH  29  31
HETATM   31  O   UNK N   1      32.655  15.678   7.706  0.00  0.00    -0.307 OA
HETATM   32  H   UNK N   1      33.165  15.617   6.883  0.00  0.00     0.222 HD
ENDBRANCH  29  31
BRANCH  29  33
HETATM   33  O   UNK N   1      30.338  17.883   7.457  0.00  0.00    -0.263 OA
BRANCH  33  34
HETATM   34  C   UNK N   1      28.983  17.523   7.196  0.00  0.00     0.302 C 
HETATM   35  C   UNK N   1      27.942  18.336   7.987  0.00  0.00     0.205 C 
HETATM   36  C   UNK N   1      27.717  19.690   7.324  0.00  0.00     0.182 C 
HETATM   37  C   UNK N   1      27.331  19.456   5.856  0.00  0.00     0.173 C 
HETATM   38  C   UNK N   1      28.406  18.608   5.176  0.00  0.00     0.205 C 
HETATM   39  O   UNK N   1      28.641  17.365   5.821  0.00  0.00    -0.355 OA
BRANCH  35  40
HETATM   40  O   UNK N   1      28.346  18.486   9.317  0.00  0.00    -0.388 OA
HETATM   41  H   UNK N   1      28.267  17.821  10.019  0.00  0.00     0.210 HD
ENDBRANCH  35  40
BRANCH  36  42
HETATM   42  O   UNK N   1      26.707  20.394   7.983  0.00  0.00    -0.390 OA
HETATM   43  H   UNK N   1      26.069  20.919   7.474  0.00  0.00     0.210 HD
ENDBRANCH  36  42
BRANCH  37  44
HETATM   44  O   UNK N   1      26.100  18.801   5.762  0.00  0.00    -0.391 OA
HETATM   45  H   UNK N   1      25.453  18.090   5.883  0.00  0.00     0.210 HD
ENDBRANCH  37  44
ENDBRANCH  33  34
ENDBRANCH  29  33
ENDBRANCH  28  29
ENDBRANCH  24  28
ENDBRANCH   1  24
TORSDOF 16
ENDMDL
MODEL 7
REMARK VINA RESULT:      -6.9      4.825      9.967
REMARK  16 active torsions:
REMARK  status: ('A' for Active; 'I' for Inactive)
REMARK    1  A    between atoms: C_6  and  C_4 
REMARK    2  A    between atoms: O_31  and  C_4 
REMARK    3  A    between atoms: C_5  and  O_20 
REMARK    4  A    between atoms: C_8  and  O_21 
REMARK    5  A    between atoms: C_9  and  O_22 
REMARK    6  A    between atoms: C_10  and  O_23 
REMARK    7  A    between atoms: C_11  and  O_24 
REMARK    8  A    between atoms: C_12  and  N_19 
REMARK    9  A    between atoms: C_13  and  O_33 
REMARK   10  A    between atoms: O_25  and  C_14 
REMARK   11  A    between atoms: P_35  and  O_26 
REMARK   12  A    between atoms: P_36  and  O_28 
REMARK   13  A    between atoms: P_35  and  O_31 
REMARK   14  A    between atoms: P_36  and  O_33 
REMARK   15  A    between atoms: P_35  and  O_34 
REMARK   16  A    between atoms: P_36  and  O_34 
ROOT
HETATM    1  O   UNK N   1      32.059  15.833   5.674  0.00  0.00    -0.294 OA
ENDROOT
BRANCH   1   2
HETATM    2  C   UNK N   1      31.084  14.941   5.215  0.00  0.00     0.215 C 
BRANCH   2   3
HETATM    3  C   UNK N   1      29.751  15.640   4.946  0.00  0.00     0.180 C 
HETATM    4  C   UNK N   1      29.226  15.568   3.514  0.00  0.00     0.182 C 
HETATM    5  C   UNK N   1      28.127  16.583   3.626  0.00  0.00     0.198 C 
HETATM    6  C   UNK N   1      28.910  17.680   4.391  0.00  0.00     0.262 C 
HETATM    7  O   UNK N   1      29.821  17.007   5.257  0.00  0.00    -0.353 OA
BRANCH   4   8
HETATM    8  O   UNK N   1      28.762  14.296   3.167  0.00  0.00    -0.390 OA
HETATM    9  H   UNK N   1      28.131  13.996   2.494  0.00  0.00     0.210 HD
ENDBRANCH   4   8
BRANCH   5  10
HETATM   10  O   UNK N   1      27.108  16.030   4.416  0.00  0.00    -0.388 OA
HETATM   11  H   UNK N   1      26.648  15.276   4.818  0.00  0.00     0.210 HD
ENDBRANCH   5  10
BRANCH   6  12
HETATM   12  N   UNK N   1      28.126  18.643   5.200  0.00  0.00    -0.293 N 
HETATM   13  C   UNK N   1      27.828  19.823   4.576  0.00  0.00     0.101 A 
HETATM   14  C   UNK N   1      27.201  20.860   5.248  0.00  0.00     0.065 A 
HETATM   15  C   UNK N   1      26.867  20.674   6.578  0.00  0.00     0.102 A 
HETATM   16  N   UNK N   1      26.325  21.621   7.240  0.00  0.00    -0.385 N 
HETATM   17  N   UNK N   1      27.114  19.482   7.175  0.00  0.00    -0.308 N 
HETATM   18  H   UNK N   1      26.045  21.493   8.175  0.00  0.00     0.157 HD
ATOM     19  HN  UNK N   1      26.180  22.526   6.792  1.00  0.00     0.157 HD
HETATM   20  C   UNK N   1      27.727  18.468   6.508  0.00  0.00     0.227 A 
ATOM     21  HN  UNK N   1      26.834  19.342   8.146  1.00  0.00     0.171 HD
BRANCH  20  22
HETATM   22  O   UNK N   1      27.913  17.301   7.151  0.00  0.00    -0.332 OA
HETATM   23  H   UNK N   1      27.281  17.005   7.775  0.00  0.00     0.221 HD
ENDBRANCH  20  22
ENDBRANCH   6  12
ENDBRANCH   2   3
ENDBRANCH   1   2
BRANCH   1  24
HETATM   24  P   UNK N   1      32.746  15.154   7.126  0.00  0.00     0.401 P 
HETATM   25  O   UNK N   1      31.948  13.868   7.489  0.00  0.00    -0.631 OA
BRANCH  24  26
HETATM   26  O   UNK N   1      34.381  14.675   6.793  0.00  0.00    -0.307 OA
HETATM   27  H   UNK N   1      35.128  14.426   6.226  0.00  0.00     0.222 HD
ENDBRANCH  24  26
BRANCH  24  28
HETATM   28  O   UNK N   1      32.601  16.292   8.473  0.00  0.00    -0.195 OA
BRANCH  28  29
HETATM   29  P   UNK N   1      33.881  17.531   8.532  0.00  0.00     0.404 P 
HETATM   30  O   UNK N   1      34.857  17.275   7.353  0.00  0.00    -0.631 OA
BRANCH  29  31
HETATM   31  O   UNK N   1      32.924  17.905   7.130  0.00  0.00    -0.307 OA
HETATM   32  H   UNK N   1      32.965  18.590   6.445  0.00  0.00     0.222 HD
ENDBRANCH  29  31
BRANCH  29  33
HETATM   33  O   UNK N   1      34.754  16.097   9.047  0.00  0.00    -0.263 OA
BRANCH  33  34
HETATM   34  C   UNK N   1      35.211  16.078  10.398  0.00  0.00     0.302 C 
HETATM   35  C   UNK N   1      34.522  15.030  11.291  0.00  0.00     0.205 C 
HETATM   36  C   UNK N   1      35.136  13.655  11.058  0.00  0.00     0.182 C 
HETATM   37  C   UNK N   1      36.652  13.753  11.279  0.00  0.00     0.173 C 
HETATM   38  C   UNK N   1      37.228  14.846  10.379  0.00  0.00     0.205 C 
HETATM   39  O   UNK N   1      36.626  16.117  10.571  0.00  0.00    -0.355 OA
BRANCH  35  40
HETATM   40  O   UNK N   1      33.144  15.015  11.054  0.00  0.00    -0.388 OA
HETATM   41  H   UNK N   1      32.473  15.526  11.533  0.00  0.00     0.210 HD
ENDBRANCH  35  40
BRANCH  36  42
HETATM   42  O   UNK N   1      34.579  12.718  11.930  0.00  0.00    -0.390 OA
HETATM   43  H   UNK N   1      33.936  12.070  11.602  0.00  0.00     0.210 HD
ENDBRANCH  36  42
BRANCH  37  44
HETATM   44  O   UNK N   1      36.942  14.054  12.613  0.00  0.00    -0.391 OA
HETATM   45  H   UNK N   1      37.120  14.611  13.387  0.00  0.00     0.210 HD
ENDBRANCH  37  44
ENDBRANCH  33  34
ENDBRANCH  29  33
ENDBRANCH  28  29
ENDBRANCH  24  28
ENDBRANCH   1  24
TORSDOF 16
ENDMDL
MODEL 8
REMARK VINA RESULT:      -6.9      7.365     13.221
REMARK  16 active torsions:
REMARK  status: ('A' for Active; 'I' for Inactive)
REMARK    1  A    between atoms: C_6  and  C_4 
REMARK    2  A    between atoms: O_31  and  C_4 
REMARK    3  A    between atoms: C_5  and  O_20 
REMARK    4  A    between atoms: C_8  and  O_21 
REMARK    5  A    between atoms: C_9  and  O_22 
REMARK    6  A    between atoms: C_10  and  O_23 
REMARK    7  A    between atoms: C_11  and  O_24 
REMARK    8  A    between atoms: C_12  and  N_19 
REMARK    9  A    between atoms: C_13  and  O_33 
REMARK   10  A    between atoms: O_25  and  C_14 
REMARK   11  A    between atoms: P_35  and  O_26 
REMARK   12  A    between atoms: P_36  and  O_28 
REMARK   13  A    between atoms: P_35  and  O_31 
REMARK   14  A    between atoms: P_36  and  O_33 
REMARK   15  A    between atoms: P_35  and  O_34 
REMARK   16  A    between atoms: P_36  and  O_34 
ROOT
HETATM    1  O   UNK N   1      28.048  18.772   4.738  0.00  0.00    -0.294 OA
ENDROOT
BRANCH   1   2
HETATM    2  C   UNK N   1      27.109  17.988   4.060  0.00  0.00     0.215 C 
BRANCH   2   3
HETATM    3  C   UNK N   1      25.999  18.835   3.437  0.00  0.00     0.180 C 
HETATM    4  C   UNK N   1      26.161  20.349   3.547  0.00  0.00     0.182 C 
HETATM    5  C   UNK N   1      24.785  20.756   3.110  0.00  0.00     0.198 C 
HETATM    6  C   UNK N   1      23.972  19.735   3.945  0.00  0.00     0.262 C 
HETATM    7  O   UNK N   1      24.753  18.544   4.013  0.00  0.00    -0.353 OA
BRANCH   4   8
HETATM    8  O   UNK N   1      27.169  20.850   2.718  0.00  0.00    -0.390 OA
HETATM    9  H   UNK N   1      28.042  20.504   2.475  0.00  0.00     0.210 HD
ENDBRANCH   4   8
BRANCH   5  10
HETATM   10  O   UNK N   1      24.677  20.499   1.734  0.00  0.00    -0.388 OA
HETATM   11  H   UNK N   1      24.461  19.923   0.984  0.00  0.00     0.210 HD
ENDBRANCH   5  10
BRANCH   6  12
HETATM   12  N   UNK N   1      22.618  19.377   3.461  0.00  0.00    -0.293 N 
HETATM   13  C   UNK N   1      22.288  18.055   3.573  0.00  0.00     0.101 A 
HETATM   14  C   UNK N   1      21.102  17.558   3.056  0.00  0.00     0.065 A 
HETATM   15  C   UNK N   1      20.241  18.438   2.425  0.00  0.00     0.102 A 
HETATM   16  N   UNK N   1      19.158  18.008   1.902  0.00  0.00    -0.385 N 
HETATM   17  N   UNK N   1      20.547  19.757   2.367  0.00  0.00    -0.308 N 
HETATM   18  H   UNK N   1      18.515  18.626   1.485  0.00  0.00     0.157 HD
ATOM     19  HN  UNK N   1      18.957  17.008   1.917  1.00  0.00     0.157 HD
HETATM   20  C   UNK N   1      21.711  20.238   2.879  0.00  0.00     0.227 A 
ATOM     21  HN  UNK N   1      19.890  20.404   1.929  1.00  0.00     0.171 HD
BRANCH  20  22
HETATM   22  O   UNK N   1      21.938  21.562   2.815  0.00  0.00    -0.332 OA
HETATM   23  H   UNK N   1      21.268  22.137   2.500  0.00  0.00     0.221 HD
ENDBRANCH  20  22
ENDBRANCH   6  12
ENDBRANCH   2   3
ENDBRANCH   1   2
BRANCH   1  24
HETATM   24  P   UNK N   1      27.676  18.680   6.439  0.00  0.00     0.401 P 
HETATM   25  O   UNK N   1      26.842  19.936   6.825  0.00  0.00    -0.631 OA
BRANCH  24  26
HETATM   26  O   UNK N   1      26.675  17.287   6.711  0.00  0.00    -0.307 OA
HETATM   27  H   UNK N   1      26.272  16.435   6.485  0.00  0.00     0.222 HD
ENDBRANCH  24  26
BRANCH  24  28
HETATM   28  O   UNK N   1      29.160  18.684   7.401  0.00  0.00    -0.195 OA
BRANCH  28  29
HETATM   29  P   UNK N   1      29.127  17.600   8.815  0.00  0.00     0.404 P 
HETATM   30  O   UNK N   1      29.542  18.422  10.065  0.00  0.00    -0.631 OA
BRANCH  29  31
HETATM   31  O   UNK N   1      27.800  18.702   9.031  0.00  0.00    -0.307 OA
HETATM   32  H   UNK N   1      27.681  19.654   8.893  0.00  0.00     0.222 HD
ENDBRANCH  29  31
BRANCH  29  33
HETATM   33  O   UNK N   1      30.853  17.825   8.584  0.00  0.00    -0.263 OA
BRANCH  33  34
HETATM   34  C   UNK N   1      31.588  16.694   8.120  0.00  0.00     0.302 C 
HETATM   35  C   UNK N   1      32.168  16.846   6.702  0.00  0.00     0.205 C 
HETATM   36  C   UNK N   1      33.451  17.669   6.744  0.00  0.00     0.182 C 
HETATM   37  C   UNK N   1      34.418  17.013   7.740  0.00  0.00     0.173 C 
HETATM   38  C   UNK N   1      33.732  16.871   9.099  0.00  0.00     0.205 C 
HETATM   39  O   UNK N   1      32.517  16.139   9.048  0.00  0.00    -0.355 OA
BRANCH  35  40
HETATM   40  O   UNK N   1      31.225  17.424   5.847  0.00  0.00    -0.388 OA
HETATM   41  H   UNK N   1      30.809  18.294   5.955  0.00  0.00     0.210 HD
ENDBRANCH  35  40
BRANCH  36  42
HETATM   42  O   UNK N   1      34.031  17.733   5.476  0.00  0.00    -0.390 OA
HETATM   43  H   UNK N   1      34.311  18.587   5.112  0.00  0.00     0.210 HD
ENDBRANCH  36  42
BRANCH  37  44
HETATM   44  O   UNK N   1      34.816  15.751   7.291  0.00  0.00    -0.391 OA
HETATM   45  H   UNK N   1      34.877  14.784   7.279  0.00  0.00     0.210 HD
ENDBRANCH  37  44
ENDBRANCH  33  34
ENDBRANCH  29  33
ENDBRANCH  28  29
ENDBRANCH  24  28
ENDBRANCH   1  24
TORSDOF 16
ENDMDL
MODEL 9
REMARK VINA RESULT:      -6.9      2.852      4.304
REMARK  16 active torsions:
REMARK  status: ('A' for Active; 'I' for Inactive)
REMARK    1  A    between atoms: C_6  and  C_4 
REMARK    2  A    between atoms: O_31  and  C_4 
REMARK    3  A    between atoms: C_5  and  O_20 
REMARK    4  A    between atoms: C_8  and  O_21 
REMARK    5  A    between atoms: C_9  and  O_22 
REMARK    6  A    between atoms: C_10  and  O_23 
REMARK    7  A    between atoms: C_11  and  O_24 
REMARK    8  A    between atoms: C_12  and  N_19 
REMARK    9  A    between atoms: C_13  and  O_33 
REMARK   10  A    between atoms: O_25  and  C_14 
REMARK   11  A    between atoms: P_35  and  O_26 
REMARK   12  A    between atoms: P_36  and  O_28 
REMARK   13  A    between atoms: P_35  and  O_31 
REMARK   14  A    between atoms: P_36  and  O_33 
REMARK   15  A    between atoms: P_35  and  O_34 
REMARK   16  A    between atoms: P_36  and  O_34 
ROOT
HETATM    1  O   UNK N   1      34.911  15.547  11.948  0.00  0.00    -0.294 OA
ENDROOT
BRANCH   1   2
HETATM    2  C   UNK N   1      34.877  14.149  11.989  0.00  0.00     0.215 C 
BRANCH   2   3
HETATM    3  C   UNK N   1      35.691  13.592  13.156  0.00  0.00     0.180 C 
HETATM    4  C   UNK N   1      36.719  12.517  12.812  0.00  0.00     0.182 C 
HETATM    5  C   UNK N   1      37.045  12.063  14.204  0.00  0.00     0.198 C 
HETATM    6  C   UNK N   1      35.600  11.978  14.758  0.00  0.00     0.262 C 
HETATM    7  O   UNK N   1      34.858  13.022  14.132  0.00  0.00    -0.353 OA
BRANCH   4   8
HETATM    8  O   UNK N   1      37.828  13.024  12.129  0.00  0.00    -0.390 OA
HETATM    9  H   UNK N   1      38.121  12.933  11.208  0.00  0.00     0.210 HD
ENDBRANCH   4   8
BRANCH   5  10
HETATM   10  O   UNK N   1      37.778  13.083  14.830  0.00  0.00    -0.388 OA
HETATM   11  H   UNK N   1      38.505  13.395  15.392  0.00  0.00     0.210 HD
ENDBRANCH   5  10
BRANCH   6  12
HETATM   12  N   UNK N   1      35.421  12.095  16.225  0.00  0.00    -0.293 N 
HETATM   13  C   UNK N   1      35.053  13.334  16.671  0.00  0.00     0.101 A 
HETATM   14  C   UNK N   1      34.961  13.618  18.025  0.00  0.00     0.065 A 
HETATM   15  C   UNK N   1      35.242  12.609  18.928  0.00  0.00     0.102 A 
HETATM   16  N   UNK N   1      35.206  12.846  20.183  0.00  0.00    -0.385 N 
HETATM   17  N   UNK N   1      35.552  11.368  18.480  0.00  0.00    -0.308 N 
HETATM   18  H   UNK N   1      35.365  12.131  20.839  0.00  0.00     0.157 HD
ATOM     19  HN  UNK N   1      35.011  13.793  20.508  1.00  0.00     0.157 HD
HETATM   20  C   UNK N   1      35.637  11.095  17.150  0.00  0.00     0.227 A 
ATOM     21  HN  UNK N   1      35.725  10.622  19.153  1.00  0.00     0.171 HD
BRANCH  20  22
HETATM   22  O   UNK N   1      35.917   9.835  16.774  0.00  0.00    -0.332 OA
HETATM   23  H   UNK N   1      35.228   9.266  16.493  0.00  0.00     0.221 HD
ENDBRANCH  20  22
ENDBRANCH   6  12
ENDBRANCH   2   3
ENDBRANCH   1   2
BRANCH   1  24
HETATM   24  P   UNK N   1      35.699  16.007  10.461  0.00  0.00     0.401 P 
HETATM   25  O   UNK N   1      35.582  17.551  10.303  0.00  0.00    -0.631 OA
BRANCH  24  26
HETATM   26  O   UNK N   1      37.388  15.624  10.589  0.00  0.00    -0.307 OA
HETATM   27  H   UNK N   1      38.150  15.059  10.790  0.00  0.00     0.222 HD
ENDBRANCH  24  26
BRANCH  24  28
HETATM   28  O   UNK N   1      34.904  15.248   9.076  0.00  0.00    -0.195 OA
BRANCH  28  29
HETATM   29  P   UNK N   1      33.817  16.329   8.166  0.00  0.00     0.404 P 
HETATM   30  O   UNK N   1      32.458  15.601   7.979  0.00  0.00    -0.631 OA
BRANCH  29  31
HETATM   31  O   UNK N   1      33.173  16.258   9.779  0.00  0.00    -0.307 OA
HETATM   32  H   UNK N   1      32.285  16.346  10.158  0.00  0.00     0.222 HD
ENDBRANCH  29  31
BRANCH  29  33
HETATM   33  O   UNK N   1      34.186  15.104   6.962  0.00  0.00    -0.263 OA
BRANCH  33  34
HETATM   34  C   UNK N   1      34.659  15.572   5.700  0.00  0.00     0.302 C 
HETATM   35  C   UNK N   1      34.871  14.468   4.648  0.00  0.00     0.205 C 
HETATM   36  C   UNK N   1      33.539  14.083   4.013  0.00  0.00     0.182 C 
HETATM   37  C   UNK N   1      32.881  15.353   3.453  0.00  0.00     0.173 C 
HETATM   38  C   UNK N   1      32.756  16.395   4.564  0.00  0.00     0.205 C 
HETATM   39  O   UNK N   1      33.993  16.720   5.179  0.00  0.00    -0.355 OA
BRANCH  35  40
HETATM   40  O   UNK N   1      35.495  13.357   5.223  0.00  0.00    -0.388 OA
HETATM   41  H   UNK N   1      35.124  12.464   5.297  0.00  0.00     0.210 HD
ENDBRANCH  35  40
BRANCH  36  42
HETATM   42  O   UNK N   1      33.736  13.150   2.994  0.00  0.00    -0.390 OA
HETATM   43  H   UNK N   1      33.460  12.228   3.119  0.00  0.00     0.210 HD
ENDBRANCH  36  42
BRANCH  37  44
HETATM   44  O   UNK N   1      33.638  15.885   2.405  0.00  0.00    -0.391 OA
HETATM   45  H   UNK N   1      34.420  16.241   1.956  0.00  0.00     0.210 HD
ENDBRANCH  37  44
ENDBRANCH  33  34
ENDBRANCH  29  33
ENDBRANCH  28  29
ENDBRANCH  24  28
ENDBRANCH   1  24
TORSDOF 16
ENDMDL
