MODEL 1
REMARK VINA RESULT:      -8.2      0.000      0.000
REMARK WARNING: 32 MAX_TORS EXCEEDED!!!
REMARK  36 active torsions:
REMARK  status: ('A' for Active; 'I' for Inactive)
REMARK    1  A    between atoms: C_7  and  C_1 
REMARK    2  A    between atoms: O_37  and  C_1 
REMARK    3  A    between atoms: C_8  and  C_2 
REMARK    4  A    between atoms: O_38  and  C_2 
REMARK    5  A    between atoms: C_9  and  C_3 
REMARK    6  A    between atoms: O_39  and  C_3 
REMARK    7  A    between atoms: C_10  and  C_4 
REMARK    8  A    between atoms: O_40  and  C_4 
REMARK    9  A    between atoms: C_11  and  C_5 
REMARK   10  A    between atoms: O_41  and  C_5 
REMARK   11  A    between atoms: C_12  and  C_6 
REMARK   12  A    between atoms: O_42  and  C_6 
REMARK   13  A    between atoms: C_13  and  O_43 
REMARK   14  A    between atoms: C_14  and  O_44 
REMARK   15  A    between atoms: C_15  and  O_45 
REMARK   16  A    between atoms: C_16  and  O_46 
REMARK   17  A    between atoms: C_17  and  O_47 
REMARK   18  A    between atoms: C_18  and  O_48 
REMARK   19  A    between atoms: C_19  and  O_49 
REMARK   20  A    between atoms: C_20  and  O_50 
REMARK   21  A    between atoms: C_21  and  O_51 
REMARK   22  A    between atoms: C_22  and  O_52 
REMARK   23  A    between atoms: C_23  and  O_53 
REMARK   24  A    between atoms: C_24  and  O_54 
REMARK   25  A    between atoms: C_25  and  O_55 
REMARK   26  A    between atoms: C_26  and  O_63 
REMARK   27  A    between atoms: C_27  and  O_64 
REMARK   28  A    between atoms: C_28  and  S_65 
REMARK   29  A    between atoms: C_29  and  S_66 
REMARK   30  A    between atoms: C_30  and  S_67 
REMARK   31  A    between atoms: C_31  and  O_56 
REMARK   32  A    between atoms: C_32  and  O_64 
REMARK   33  A    between atoms: C_33  and  O_63 
REMARK   34  A    between atoms: C_34  and  S_66 
REMARK   35  A    between atoms: C_35  and  S_65 
REMARK   36  A    between atoms: C_36  and  S_67 
ROOT
HETATM    1  S   UNK N   1      28.873  16.613   6.159  0.00  0.00    -0.124 SA
ENDROOT
BRANCH   1   2
HETATM    2  C   UNK N   1      29.470  16.898   4.413  0.00  0.00     0.112 C 
HETATM    3  C   UNK N   1      28.203  17.321   3.688  0.00  0.00     0.164 C 
HETATM    4  O   UNK N   1      27.216  16.353   3.993  0.00  0.00    -0.350 OA
HETATM    5  C   UNK N   1      27.525  14.977   3.760  0.00  0.00     0.292 C 
HETATM    6  C   UNK N   1      28.865  14.792   3.027  0.00  0.00     0.203 C 
HETATM    7  C   UNK N   1      29.997  15.660   3.615  0.00  0.00     0.168 C 
BRANCH   3   8
HETATM    8  C   UNK N   1      27.681  18.673   4.175  0.00  0.00     0.197 C 
BRANCH   8   9
HETATM    9  O   UNK N   1      28.695  19.631   4.155  0.00  0.00    -0.398 OA
HETATM   10  H   UNK N   1      28.869  20.585   4.160  0.00  0.00     0.209 HD
ENDBRANCH   8   9
ENDBRANCH   3   8
BRANCH   5  11
HETATM   11  O   UNK N   1      26.544  14.381   2.926  0.00  0.00    -0.348 OA
BRANCH  11  12
HETATM   12  C   UNK N   1      25.199  14.429   3.394  0.00  0.00     0.187 C 
HETATM   13  C   UNK N   1      24.383  15.201   2.331  0.00  0.00     0.178 C 
HETATM   14  O   UNK N   1      23.005  15.359   2.675  0.00  0.00    -0.363 OA
HETATM   15  C   UNK N   1      22.759  15.642   4.051  0.00  0.00     0.215 C 
HETATM   16  C   UNK N   1      23.946  16.157   4.845  0.00  0.00     0.188 C 
HETATM   17  C   UNK N   1      25.044  15.134   4.785  0.00  0.00     0.181 C 
BRANCH  13  18
HETATM   18  C   UNK N   1      24.476  14.462   0.997  0.00  0.00     0.198 C 
BRANCH  18  19
HETATM   19  O   UNK N   1      23.207  14.299   0.439  0.00  0.00    -0.398 OA
HETATM   20  H   UNK N   1      22.411  14.524   0.945  0.00  0.00     0.209 HD
ENDBRANCH  18  19
ENDBRANCH  13  18
BRANCH  15  21
HETATM   21  S   UNK N   1      21.394  16.812   4.331  0.00  0.00    -0.124 SA
BRANCH  21  22
HETATM   22  C   UNK N   1      21.436  18.201   3.103  0.00  0.00     0.112 C 
HETATM   23  C   UNK N   1      20.260  18.114   2.095  0.00  0.00     0.164 C 
HETATM   24  O   UNK N   1      20.590  18.852   0.929  0.00  0.00    -0.350 OA
HETATM   25  C   UNK N   1      20.737  20.236   1.203  0.00  0.00     0.288 C 
HETATM   26  C   UNK N   1      21.809  20.503   2.282  0.00  0.00     0.203 C 
HETATM   27  C   UNK N   1      21.529  19.686   3.545  0.00  0.00     0.168 C 
BRANCH  23  28
HETATM   28  C   UNK N   1      19.974  16.677   1.670  0.00  0.00     0.197 C 
BRANCH  28  29
HETATM   29  O   UNK N   1      20.933  16.247   0.750  0.00  0.00    -0.398 OA
HETATM   30  H   UNK N   1      20.997  15.934  -0.165  0.00  0.00     0.209 HD
ENDBRANCH  28  29
ENDBRANCH  23  28
BRANCH  25  31
HETATM   31  O   UNK N   1      21.134  20.872   0.026  0.00  0.00    -0.369 OA
HETATM   32  H   UNK N   1      20.659  21.653  -0.296  0.00  0.00     0.212 HD
ENDBRANCH  25  31
BRANCH  26  33
HETATM   33  O   UNK N   1      21.861  21.867   2.584  0.00  0.00    -0.388 OA
HETATM   34  H   UNK N   1      22.256  22.585   2.067  0.00  0.00     0.210 HD
ENDBRANCH  26  33
BRANCH  27  35
HETATM   35  O   UNK N   1      20.338  20.136   4.125  0.00  0.00    -0.392 OA
HETATM   36  H   UNK N   1      19.665  20.832   4.176  0.00  0.00     0.210 HD
ENDBRANCH  27  35
ENDBRANCH  21  22
ENDBRANCH  15  21
BRANCH  16  37
HETATM   37  O   UNK N   1      24.402  17.368   4.325  0.00  0.00    -0.389 OA
HETATM   38  H   UNK N   1      24.511  18.331   4.379  0.00  0.00     0.210 HD
ENDBRANCH  16  37
BRANCH  17  39
HETATM   39  O   UNK N   1      24.805  14.153   5.758  0.00  0.00    -0.390 OA
HETATM   40  H   UNK N   1      25.365  13.583   6.308  0.00  0.00     0.210 HD
ENDBRANCH  17  39
ENDBRANCH  11  12
ENDBRANCH   5  11
BRANCH   6  41
HETATM   41  O   UNK N   1      29.228  13.447   2.930  0.00  0.00    -0.388 OA
HETATM   42  H   UNK N   1      30.036  13.186   2.461  0.00  0.00     0.210 HD
ENDBRANCH   6  41
BRANCH   7  43
HETATM   43  O   UNK N   1      30.928  14.896   4.306  0.00  0.00    -0.392 OA
HETATM   44  H   UNK N   1      31.805  15.246   4.530  0.00  0.00     0.210 HD
ENDBRANCH   7  43
ENDBRANCH   1   2
BRANCH   1  45
HETATM   45  C   UNK N   1      30.389  16.547   7.103  0.00  0.00     0.215 C 
HETATM   46  C   UNK N   1      30.334  17.518   8.291  0.00  0.00     0.188 C 
HETATM   47  C   UNK N   1      31.588  17.298   9.074  0.00  0.00     0.181 C 
HETATM   48  C   UNK N   1      32.846  17.547   8.150  0.00  0.00     0.187 C 
HETATM   49  C   UNK N   1      32.734  16.639   6.890  0.00  0.00     0.178 C 
HETATM   50  O   UNK N   1      31.483  16.785   6.241  0.00  0.00    -0.363 OA
BRANCH  46  51
HETATM   51  O   UNK N   1      29.219  17.247   9.094  0.00  0.00    -0.389 OA
HETATM   52  H   UNK N   1      29.333  17.043  10.036  0.00  0.00     0.210 HD
ENDBRANCH  46  51
BRANCH  47  53
HETATM   53  O   UNK N   1      31.516  15.980   9.513  0.00  0.00    -0.390 OA
HETATM   54  H   UNK N   1      30.973  15.300   9.941  0.00  0.00     0.210 HD
ENDBRANCH  47  53
BRANCH  48  55
HETATM   55  O   UNK N   1      34.166  17.433   8.730  0.00  0.00    -0.348 OA
BRANCH  55  56
HETATM   56  C   UNK N   1      34.380  16.236   9.444  0.00  0.00     0.292 C 
HETATM   57  C   UNK N   1      35.103  16.402  10.784  0.00  0.00     0.203 C 
HETATM   58  C   UNK N   1      34.987  15.016  11.485  0.00  0.00     0.168 C 
HETATM   59  C   UNK N   1      35.457  13.854  10.560  0.00  0.00     0.112 C 
HETATM   60  C   UNK N   1      34.957  14.033   9.124  0.00  0.00     0.164 C 
HETATM   61  O   UNK N   1      35.163  15.350   8.662  0.00  0.00    -0.350 OA
BRANCH  57  62
HETATM   62  O   UNK N   1      36.439  16.759  10.570  0.00  0.00    -0.388 OA
HETATM   63  H   UNK N   1      37.345  16.454  10.736  0.00  0.00     0.210 HD
ENDBRANCH  57  62
BRANCH  58  64
HETATM   64  O   UNK N   1      35.693  15.008  12.690  0.00  0.00    -0.392 OA
HETATM   65  H   UNK N   1      36.662  15.044  12.683  0.00  0.00     0.210 HD
ENDBRANCH  58  64
BRANCH  59  66
HETATM   66  S   UNK N   1      34.952  12.165  11.145  0.00  0.00    -0.124 SA
BRANCH  66  67
HETATM   67  C   UNK N   1      36.410  11.519  12.139  0.00  0.00     0.215 C 
HETATM   68  C   UNK N   1      36.220  10.042  12.553  0.00  0.00     0.188 C 
HETATM   69  C   UNK N   1      35.211   9.910  13.704  0.00  0.00     0.181 C 
HETATM   70  C   UNK N   1      35.685  10.784  14.867  0.00  0.00     0.180 C 
HETATM   71  C   UNK N   1      35.876  12.228  14.362  0.00  0.00     0.178 C 
HETATM   72  O   UNK N   1      36.796  12.294  13.275  0.00  0.00    -0.363 OA
BRANCH  68  73
HETATM   73  O   UNK N   1      35.830   9.266  11.459  0.00  0.00    -0.389 OA
HETATM   74  H   UNK N   1      35.059   8.682  11.514  0.00  0.00     0.210 HD
ENDBRANCH  68  73
BRANCH  69  75
HETATM   75  O   UNK N   1      33.934  10.312  13.296  0.00  0.00    -0.390 OA
HETATM   76  H   UNK N   1      33.161  10.747  12.905  0.00  0.00     0.210 HD
ENDBRANCH  69  75
BRANCH  70  77
HETATM   77  O   UNK N   1      36.894  10.289  15.371  0.00  0.00    -0.390 OA
HETATM   78  H   UNK N   1      37.605   9.685  15.638  0.00  0.00     0.210 HD
ENDBRANCH  70  77
BRANCH  71  79
HETATM   79  C   UNK N   1      36.419  13.111  15.490  0.00  0.00     0.198 C 
BRANCH  79  80
HETATM   80  O   UNK N   1      37.407  13.982  15.025  0.00  0.00    -0.398 OA
HETATM   81  H   UNK N   1      37.952  14.633  15.494  0.00  0.00     0.209 HD
ENDBRANCH  79  80
ENDBRANCH  71  79
ENDBRANCH  66  67
ENDBRANCH  59  66
BRANCH  60  82
HETATM   82  C   UNK N   1      35.584  13.051   8.136  0.00  0.00     0.197 C 
BRANCH  82  83
HETATM   83  O   UNK N   1      35.403  13.480   6.822  0.00  0.00    -0.398 OA
HETATM   84  H   UNK N   1      34.898  14.094   6.264  0.00  0.00     0.209 HD
ENDBRANCH  82  83
ENDBRANCH  60  82
ENDBRANCH  55  56
ENDBRANCH  48  55
BRANCH  49  85
HETATM   85  C   UNK N   1      33.783  17.029   5.846  0.00  0.00     0.198 C 
BRANCH  85  86
HETATM   86  O   UNK N   1      34.944  16.264   5.961  0.00  0.00    -0.398 OA
HETATM   87  H   UNK N   1      35.810  16.604   5.686  0.00  0.00     0.209 HD
ENDBRANCH  85  86
ENDBRANCH  49  85
ENDBRANCH   1  45
TORSDOF 36
ENDMDL
MODEL 2
REMARK VINA RESULT:      -8.1      2.526     14.310
REMARK WARNING: 32 MAX_TORS EXCEEDED!!!
REMARK  36 active torsions:
REMARK  status: ('A' for Active; 'I' for Inactive)
REMARK    1  A    between atoms: C_7  and  C_1 
REMARK    2  A    between atoms: O_37  and  C_1 
REMARK    3  A    between atoms: C_8  and  C_2 
REMARK    4  A    between atoms: O_38  and  C_2 
REMARK    5  A    between atoms: C_9  and  C_3 
REMARK    6  A    between atoms: O_39  and  C_3 
REMARK    7  A    between atoms: C_10  and  C_4 
REMARK    8  A    between atoms: O_40  and  C_4 
REMARK    9  A    between atoms: C_11  and  C_5 
REMARK   10  A    between atoms: O_41  and  C_5 
REMARK   11  A    between atoms: C_12  and  C_6 
REMARK   12  A    between atoms: O_42  and  C_6 
REMARK   13  A    between atoms: C_13  and  O_43 
REMARK   14  A    between atoms: C_14  and  O_44 
REMARK   15  A    between atoms: C_15  and  O_45 
REMARK   16  A    between atoms: C_16  and  O_46 
REMARK   17  A    between atoms: C_17  and  O_47 
REMARK   18  A    between atoms: C_18  and  O_48 
REMARK   19  A    between atoms: C_19  and  O_49 
REMARK   20  A    between atoms: C_20  and  O_50 
REMARK   21  A    between atoms: C_21  and  O_51 
REMARK   22  A    between atoms: C_22  and  O_52 
REMARK   23  A    between atoms: C_23  and  O_53 
REMARK   24  A    between atoms: C_24  and  O_54 
REMARK   25  A    between atoms: C_25  and  O_55 
REMARK   26  A    between atoms: C_26  and  O_63 
REMARK   27  A    between atoms: C_27  and  O_64 
REMARK   28  A    between atoms: C_28  and  S_65 
REMARK   29  A    between atoms: C_29  and  S_66 
REMARK   30  A    between atoms: C_30  and  S_67 
REMARK   31  A    between atoms: C_31  and  O_56 
REMARK   32  A    between atoms: C_32  and  O_64 
REMARK   33  A    between atoms: C_33  and  O_63 
REMARK   34  A    between atoms: C_34  and  S_66 
REMARK   35  A    between atoms: C_35  and  S_65 
REMARK   36  A    between atoms: C_36  and  S_67 
ROOT
HETATM    1  S   UNK N   1      28.680  18.820   6.528  0.00  0.00    -0.124 SA
ENDROOT
BRANCH   1   2
HETATM    2  C   UNK N   1      28.539  16.992   6.879  0.00  0.00     0.112 C 
HETATM    3  C   UNK N   1      29.385  16.823   8.130  0.00  0.00     0.164 C 
HETATM    4  O   UNK N   1      30.631  17.440   7.866  0.00  0.00    -0.350 OA
HETATM    5  C   UNK N   1      31.342  17.049   6.690  0.00  0.00     0.292 C 
HETATM    6  C   UNK N   1      30.687  15.855   5.977  0.00  0.00     0.203 C 
HETATM    7  C   UNK N   1      29.158  16.003   5.837  0.00  0.00     0.168 C 
BRANCH   3   8
HETATM    8  C   UNK N   1      28.775  17.527   9.342  0.00  0.00     0.197 C 
BRANCH   8   9
HETATM    9  O   UNK N   1      27.424  17.204   9.473  0.00  0.00    -0.398 OA
HETATM   10  H   UNK N   1      26.774  16.494   9.350  0.00  0.00     0.209 HD
ENDBRANCH   8   9
ENDBRANCH   3   8
BRANCH   5  11
HETATM   11  O   UNK N   1      32.657  16.627   7.019  0.00  0.00    -0.348 OA
BRANCH  11  12
HETATM   12  C   UNK N   1      32.994  16.624   8.404  0.00  0.00     0.187 C 
HETATM   13  C   UNK N   1      34.438  17.165   8.514  0.00  0.00     0.178 C 
HETATM   14  O   UNK N   1      34.935  17.196   9.854  0.00  0.00    -0.363 OA
HETATM   15  C   UNK N   1      34.572  16.071  10.652  0.00  0.00     0.215 C 
HETATM   16  C   UNK N   1      34.111  14.839   9.895  0.00  0.00     0.188 C 
HETATM   17  C   UNK N   1      32.915  15.205   9.065  0.00  0.00     0.181 C 
BRANCH  13  18
HETATM   18  C   UNK N   1      34.487  18.579   7.939  0.00  0.00     0.198 C 
BRANCH  18  19
HETATM   19  O   UNK N   1      35.388  19.369   8.656  0.00  0.00    -0.398 OA
HETATM   20  H   UNK N   1      36.344  19.241   8.559  0.00  0.00     0.209 HD
ENDBRANCH  18  19
ENDBRANCH  13  18
BRANCH  15  21
HETATM   21  S   UNK N   1      35.880  15.526  11.795  0.00  0.00    -0.124 SA
BRANCH  21  22
HETATM   22  C   UNK N   1      35.600  13.781  12.353  0.00  0.00     0.112 C 
HETATM   23  C   UNK N   1      36.866  12.905  12.161  0.00  0.00     0.164 C 
HETATM   24  O   UNK N   1      36.487  11.538  12.122  0.00  0.00    -0.350 OA
HETATM   25  C   UNK N   1      35.928  11.110  13.353  0.00  0.00     0.288 C 
HETATM   26  C   UNK N   1      34.701  11.956  13.759  0.00  0.00     0.203 C 
HETATM   27  C   UNK N   1      35.044  13.448  13.763  0.00  0.00     0.168 C 
BRANCH  23  28
HETATM   28  C   UNK N   1      37.592  13.223  10.857  0.00  0.00     0.197 C 
BRANCH  28  29
HETATM   29  O   UNK N   1      38.973  13.120  11.037  0.00  0.00    -0.398 OA
HETATM   30  H   UNK N   1      39.619  12.612  11.552  0.00  0.00     0.209 HD
ENDBRANCH  28  29
ENDBRANCH  23  28
BRANCH  25  31
HETATM   31  O   UNK N   1      35.513   9.785  13.204  0.00  0.00    -0.369 OA
HETATM   32  H   UNK N   1      35.663   9.313  12.371  0.00  0.00     0.212 HD
ENDBRANCH  25  31
BRANCH  26  33
HETATM   33  O   UNK N   1      34.235  11.559  15.015  0.00  0.00    -0.388 OA
HETATM   34  H   UNK N   1      34.230  10.671  15.404  0.00  0.00     0.210 HD
ENDBRANCH  26  33
BRANCH  27  35
HETATM   35  O   UNK N   1      35.983  13.697  14.769  0.00  0.00    -0.392 OA
HETATM   36  H   UNK N   1      36.693  13.350  15.330  0.00  0.00     0.210 HD
ENDBRANCH  27  35
ENDBRANCH  21  22
ENDBRANCH  15  21
BRANCH  16  37
HETATM   37  O   UNK N   1      35.128  14.357   9.071  0.00  0.00    -0.389 OA
HETATM   38  H   UNK N   1      36.054  14.337   8.784  0.00  0.00     0.210 HD
ENDBRANCH  16  37
BRANCH  17  39
HETATM   39  O   UNK N   1      31.768  15.151   9.870  0.00  0.00    -0.390 OA
HETATM   40  H   UNK N   1      31.543  14.726  10.712  0.00  0.00     0.210 HD
ENDBRANCH  17  39
ENDBRANCH  11  12
ENDBRANCH   5  11
BRANCH   6  41
HETATM   41  O   UNK N   1      31.303  15.570   4.755  0.00  0.00    -0.388 OA
HETATM   42  H   UNK N   1      31.417  16.264   4.086  0.00  0.00     0.210 HD
ENDBRANCH   6  41
BRANCH   7  43
HETATM   43  O   UNK N   1      28.780  16.254   4.524  0.00  0.00    -0.392 OA
HETATM   44  H   UNK N   1      29.394  16.121   3.786  0.00  0.00     0.210 HD
ENDBRANCH   7  43
ENDBRANCH   1   2
BRANCH   1  45
HETATM   45  C   UNK N   1      27.398  19.103   5.316  0.00  0.00     0.215 C 
HETATM   46  C   UNK N   1      26.451  20.222   5.776  0.00  0.00     0.188 C 
HETATM   47  C   UNK N   1      25.498  20.457   4.648  0.00  0.00     0.181 C 
HETATM   48  C   UNK N   1      24.729  19.119   4.309  0.00  0.00     0.187 C 
HETATM   49  C   UNK N   1      25.771  17.998   4.017  0.00  0.00     0.178 C 
HETATM   50  O   UNK N   1      26.731  17.885   5.052  0.00  0.00    -0.363 OA
BRANCH  46  51
HETATM   51  O   UNK N   1      27.171  21.393   6.042  0.00  0.00    -0.389 OA
HETATM   52  H   UNK N   1      28.125  21.431   5.869  0.00  0.00     0.210 HD
ENDBRANCH  46  51
BRANCH  47  53
HETATM   53  O   UNK N   1      26.290  20.887   3.588  0.00  0.00    -0.390 OA
HETATM   54  H   UNK N   1      26.365  20.993   2.626  0.00  0.00     0.210 HD
ENDBRANCH  47  53
BRANCH  48  55
HETATM   55  O   UNK N   1      23.721  19.142   3.273  0.00  0.00    -0.348 OA
BRANCH  55  56
HETATM   56  C   UNK N   1      22.570  18.383   3.571  0.00  0.00     0.292 C 
HETATM   57  C   UNK N   1      21.253  18.981   3.068  0.00  0.00     0.203 C 
HETATM   58  C   UNK N   1      20.190  17.861   3.279  0.00  0.00     0.168 C 
HETATM   59  C   UNK N   1      20.212  17.305   4.734  0.00  0.00     0.112 C 
HETATM   60  C   UNK N   1      21.641  17.114   5.248  0.00  0.00     0.164 C 
HETATM   61  O   UNK N   1      22.446  18.240   4.976  0.00  0.00    -0.350 OA
BRANCH  57  62
HETATM   62  O   UNK N   1      20.936  20.133   3.796  0.00  0.00    -0.388 OA
HETATM   63  H   UNK N   1      21.340  20.933   4.170  0.00  0.00     0.210 HD
ENDBRANCH  57  62
BRANCH  58  64
HETATM   64  O   UNK N   1      18.914  18.318   2.942  0.00  0.00    -0.392 OA
HETATM   65  H   UNK N   1      18.280  17.716   2.521  0.00  0.00     0.210 HD
ENDBRANCH  58  64
BRANCH  59  66
HETATM   66  S   UNK N   1      19.298  15.701   4.948  0.00  0.00    -0.124 SA
BRANCH  66  67
HETATM   67  C   UNK N   1      20.392  14.389   4.166  0.00  0.00     0.215 C 
HETATM   68  C   UNK N   1      19.608  13.494   3.181  0.00  0.00     0.188 C 
HETATM   69  C   UNK N   1      18.716  12.489   3.927  0.00  0.00     0.181 C 
HETATM   70  C   UNK N   1      19.595  11.676   4.881  0.00  0.00     0.180 C 
HETATM   71  C   UNK N   1      20.360  12.645   5.805  0.00  0.00     0.178 C 
HETATM   72  O   UNK N   1      21.147  13.575   5.065  0.00  0.00    -0.363 OA
BRANCH  68  73
HETATM   73  O   UNK N   1      18.853  14.268   2.298  0.00  0.00    -0.389 OA
HETATM   74  H   UNK N   1      18.260  14.961   2.626  0.00  0.00     0.210 HD
ENDBRANCH  68  73
BRANCH  69  75
HETATM   75  O   UNK N   1      17.717  13.151   4.648  0.00  0.00    -0.390 OA
HETATM   76  H   UNK N   1      17.189  13.658   5.285  0.00  0.00     0.210 HD
ENDBRANCH  69  75
BRANCH  70  77
HETATM   77  O   UNK N   1      20.500  10.899   4.146  0.00  0.00    -0.390 OA
HETATM   78  H   UNK N   1      21.159  10.230   3.906  0.00  0.00     0.210 HD
ENDBRANCH  70  77
BRANCH  71  79
HETATM   79  C   UNK N   1      21.301  11.860   6.723  0.00  0.00     0.198 C 
BRANCH  79  80
HETATM   80  O   UNK N   1      21.754  12.648   7.783  0.00  0.00    -0.398 OA
HETATM   81  H   UNK N   1      21.759  12.485   8.739  0.00  0.00     0.209 HD
ENDBRANCH  79  80
ENDBRANCH  71  79
ENDBRANCH  66  67
ENDBRANCH  59  66
BRANCH  60  82
HETATM   82  C   UNK N   1      21.712  16.796   6.741  0.00  0.00     0.197 C 
BRANCH  82  83
HETATM   83  O   UNK N   1      22.345  15.573   6.961  0.00  0.00    -0.398 OA
HETATM   84  H   UNK N   1      23.213  15.147   7.041  0.00  0.00     0.209 HD
ENDBRANCH  82  83
ENDBRANCH  60  82
ENDBRANCH  55  56
ENDBRANCH  48  55
BRANCH  49  85
HETATM   85  C   UNK N   1      25.089  16.631   3.941  0.00  0.00     0.198 C 
BRANCH  85  86
HETATM   86  O   UNK N   1      24.824  16.108   5.207  0.00  0.00    -0.398 OA
HETATM   87  H   UNK N   1      23.943  16.161   5.609  0.00  0.00     0.209 HD
ENDBRANCH  85  86
ENDBRANCH  49  85
ENDBRANCH   1  45
TORSDOF 36
ENDMDL
MODEL 3
REMARK VINA RESULT:      -7.8      2.344     14.213
REMARK WARNING: 32 MAX_TORS EXCEEDED!!!
REMARK  36 active torsions:
REMARK  status: ('A' for Active; 'I' for Inactive)
REMARK    1  A    between atoms: C_7  and  C_1 
REMARK    2  A    between atoms: O_37  and  C_1 
REMARK    3  A    between atoms: C_8  and  C_2 
REMARK    4  A    between atoms: O_38  and  C_2 
REMARK    5  A    between atoms: C_9  and  C_3 
REMARK    6  A    between atoms: O_39  and  C_3 
REMARK    7  A    between atoms: C_10  and  C_4 
REMARK    8  A    between atoms: O_40  and  C_4 
REMARK    9  A    between atoms: C_11  and  C_5 
REMARK   10  A    between atoms: O_41  and  C_5 
REMARK   11  A    between atoms: C_12  and  C_6 
REMARK   12  A    between atoms: O_42  and  C_6 
REMARK   13  A    between atoms: C_13  and  O_43 
REMARK   14  A    between atoms: C_14  and  O_44 
REMARK   15  A    between atoms: C_15  and  O_45 
REMARK   16  A    between atoms: C_16  and  O_46 
REMARK   17  A    between atoms: C_17  and  O_47 
REMARK   18  A    between atoms: C_18  and  O_48 
REMARK   19  A    between atoms: C_19  and  O_49 
REMARK   20  A    between atoms: C_20  and  O_50 
REMARK   21  A    between atoms: C_21  and  O_51 
REMARK   22  A    between atoms: C_22  and  O_52 
REMARK   23  A    between atoms: C_23  and  O_53 
REMARK   24  A    between atoms: C_24  and  O_54 
REMARK   25  A    between atoms: C_25  and  O_55 
REMARK   26  A    between atoms: C_26  and  O_63 
REMARK   27  A    between atoms: C_27  and  O_64 
REMARK   28  A    between atoms: C_28  and  S_65 
REMARK   29  A    between atoms: C_29  and  S_66 
REMARK   30  A    between atoms: C_30  and  S_67 
REMARK   31  A    between atoms: C_31  and  O_56 
REMARK   32  A    between atoms: C_32  and  O_64 
REMARK   33  A    between atoms: C_33  and  O_63 
REMARK   34  A    between atoms: C_34  and  S_66 
REMARK   35  A    between atoms: C_35  and  S_65 
REMARK   36  A    between atoms: C_36  and  S_67 
ROOT
HETATM    1  S   UNK N   1      29.001  15.822   6.105  0.00  0.00    -0.124 SA
ENDROOT
BRANCH   1   2
HETATM    2  C   UNK N   1      29.759  15.752   4.401  0.00  0.00     0.112 C 
HETATM    3  C   UNK N   1      30.503  14.427   4.417  0.00  0.00     0.164 C 
HETATM    4  O   UNK N   1      31.297  14.419   5.589  0.00  0.00    -0.350 OA
HETATM    5  C   UNK N   1      32.175  15.522   5.817  0.00  0.00     0.292 C 
HETATM    6  C   UNK N   1      32.237  16.481   4.617  0.00  0.00     0.203 C 
HETATM    7  C   UNK N   1      30.846  16.820   4.045  0.00  0.00     0.168 C 
BRANCH   3   8
HETATM    8  C   UNK N   1      29.555  13.231   4.500  0.00  0.00     0.197 C 
BRANCH   8   9
HETATM    9  O   UNK N   1      28.534  13.343   3.555  0.00  0.00    -0.398 OA
HETATM   10  H   UNK N   1      28.292  13.756   2.712  0.00  0.00     0.209 HD
ENDBRANCH   8   9
ENDBRANCH   3   8
BRANCH   5  11
HETATM   11  O   UNK N   1      33.505  15.067   6.016  0.00  0.00    -0.348 OA
BRANCH  11  12
HETATM   12  C   UNK N   1      34.211  15.634   7.116  0.00  0.00     0.187 C 
HETATM   13  C   UNK N   1      35.072  14.504   7.727  0.00  0.00     0.178 C 
HETATM   14  O   UNK N   1      35.826  14.914   8.869  0.00  0.00    -0.363 OA
HETATM   15  C   UNK N   1      35.137  15.792   9.757  0.00  0.00     0.215 C 
HETATM   16  C   UNK N   1      33.625  15.822   9.622  0.00  0.00     0.188 C 
HETATM   17  C   UNK N   1      33.276  16.234   8.221  0.00  0.00     0.181 C 
BRANCH  13  18
HETATM   18  C   UNK N   1      36.035  13.980   6.664  0.00  0.00     0.198 C 
BRANCH  18  19
HETATM   19  O   UNK N   1      36.431  15.011   5.810  0.00  0.00    -0.398 OA
HETATM   20  H   UNK N   1      36.388  14.901   4.848  0.00  0.00     0.209 HD
ENDBRANCH  18  19
ENDBRANCH  13  18
BRANCH  15  21
HETATM   21  S   UNK N   1      35.501  15.498  11.516  0.00  0.00    -0.124 SA
BRANCH  21  22
HETATM   22  C   UNK N   1      36.161  13.787  11.788  0.00  0.00     0.112 C 
HETATM   23  C   UNK N   1      36.153  13.399  13.290  0.00  0.00     0.164 C 
HETATM   24  O   UNK N   1      37.081  12.348  13.506  0.00  0.00    -0.350 OA
HETATM   25  C   UNK N   1      36.707  11.165  12.819  0.00  0.00     0.288 C 
HETATM   26  C   UNK N   1      36.562  11.397  11.299  0.00  0.00     0.203 C 
HETATM   27  C   UNK N   1      35.611  12.561  11.013  0.00  0.00     0.168 C 
BRANCH  23  28
HETATM   28  C   UNK N   1      36.556  14.566  14.187  0.00  0.00     0.197 C 
BRANCH  28  29
HETATM   29  O   UNK N   1      37.465  14.136  15.157  0.00  0.00    -0.398 OA
HETATM   30  H   UNK N   1      37.494  13.592  15.958  0.00  0.00     0.209 HD
ENDBRANCH  28  29
ENDBRANCH  23  28
BRANCH  25  31
HETATM   31  O   UNK N   1      37.707  10.212  13.021  0.00  0.00    -0.369 OA
HETATM   32  H   UNK N   1      37.604   9.310  12.680  0.00  0.00     0.212 HD
ENDBRANCH  25  31
BRANCH  26  33
HETATM   33  O   UNK N   1      36.110  10.232  10.674  0.00  0.00    -0.388 OA
HETATM   34  H   UNK N   1      36.524   9.355  10.660  0.00  0.00     0.210 HD
ENDBRANCH  26  33
BRANCH  27  35
HETATM   35  O   UNK N   1      34.323  12.211  11.433  0.00  0.00    -0.392 OA
HETATM   36  H   UNK N   1      33.445  11.880  11.189  0.00  0.00     0.210 HD
ENDBRANCH  27  35
ENDBRANCH  21  22
ENDBRANCH  15  21
BRANCH  16  37
HETATM   37  O   UNK N   1      33.080  14.568   9.894  0.00  0.00    -0.389 OA
HETATM   38  H   UNK N   1      32.328  13.996  10.118  0.00  0.00     0.210 HD
ENDBRANCH  16  37
BRANCH  17  39
HETATM   39  O   UNK N   1      33.321  17.633   8.134  0.00  0.00    -0.390 OA
HETATM   40  H   UNK N   1      33.698  18.341   8.679  0.00  0.00     0.210 HD
ENDBRANCH  17  39
ENDBRANCH  11  12
ENDBRANCH   5  11
BRANCH   6  41
HETATM   41  O   UNK N   1      32.984  17.628   4.900  0.00  0.00    -0.388 OA
HETATM   42  H   UNK N   1      33.167  17.884   5.818  0.00  0.00     0.210 HD
ENDBRANCH   6  41
BRANCH   7  43
HETATM   43  O   UNK N   1      30.471  18.126   4.334  0.00  0.00    -0.392 OA
HETATM   44  H   UNK N   1      29.605  18.331   4.718  0.00  0.00     0.210 HD
ENDBRANCH   7  43
ENDBRANCH   1   2
BRANCH   1  45
HETATM   45  C   UNK N   1      27.485  16.730   5.841  0.00  0.00     0.215 C 
HETATM   46  C   UNK N   1      26.585  16.006   4.829  0.00  0.00     0.188 C 
HETATM   47  C   UNK N   1      25.307  16.779   4.773  0.00  0.00     0.181 C 
HETATM   48  C   UNK N   1      25.603  18.273   4.354  0.00  0.00     0.187 C 
HETATM   49  C   UNK N   1      26.649  18.876   5.338  0.00  0.00     0.178 C 
HETATM   50  O   UNK N   1      27.797  18.054   5.459  0.00  0.00    -0.363 OA
BRANCH  46  51
HETATM   51  O   UNK N   1      26.330  14.695   5.252  0.00  0.00    -0.389 OA
HETATM   52  H   UNK N   1      25.516  14.243   4.977  0.00  0.00     0.210 HD
ENDBRANCH  46  51
BRANCH  47  53
HETATM   53  O   UNK N   1      24.774  16.692   6.055  0.00  0.00    -0.390 OA
HETATM   54  H   UNK N   1      23.990  16.814   6.614  0.00  0.00     0.210 HD
ENDBRANCH  47  53
BRANCH  48  55
HETATM   55  O   UNK N   1      24.491  19.182   4.194  0.00  0.00    -0.348 OA
BRANCH  55  56
HETATM   56  C   UNK N   1      23.235  18.547   4.099  0.00  0.00     0.292 C 
HETATM   57  C   UNK N   1      22.293  19.131   3.042  0.00  0.00     0.203 C 
HETATM   58  C   UNK N   1      21.110  18.121   2.948  0.00  0.00     0.168 C 
HETATM   59  C   UNK N   1      20.504  17.802   4.346  0.00  0.00     0.112 C 
HETATM   60  C   UNK N   1      21.591  17.615   5.408  0.00  0.00     0.164 C 
HETATM   61  O   UNK N   1      22.562  18.636   5.343  0.00  0.00    -0.350 OA
BRANCH  57  62
HETATM   62  O   UNK N   1      21.854  20.400   3.435  0.00  0.00    -0.388 OA
HETATM   63  H   UNK N   1      21.732  20.954   4.222  0.00  0.00     0.210 HD
ENDBRANCH  57  62
BRANCH  58  64
HETATM   64  O   UNK N   1      20.125  18.590   2.075  0.00  0.00    -0.392 OA
HETATM   65  H   UNK N   1      19.487  17.971   1.688  0.00  0.00     0.210 HD
ENDBRANCH  58  64
BRANCH  59  66
HETATM   66  S   UNK N   1      19.401  16.307   4.374  0.00  0.00    -0.124 SA
BRANCH  66  67
HETATM   67  C   UNK N   1      20.483  14.872   3.829  0.00  0.00     0.215 C 
HETATM   68  C   UNK N   1      19.664  13.758   3.139  0.00  0.00     0.188 C 
HETATM   69  C   UNK N   1      18.866  12.935   4.163  0.00  0.00     0.181 C 
HETATM   70  C   UNK N   1      19.841  12.382   5.205  0.00  0.00     0.180 C 
HETATM   71  C   UNK N   1      20.634  13.552   5.820  0.00  0.00     0.178 C 
HETATM   72  O   UNK N   1      21.331  14.302   4.827  0.00  0.00    -0.363 OA
BRANCH  68  73
HETATM   73  O   UNK N   1      18.818  14.293   2.165  0.00  0.00    -0.389 OA
HETATM   74  H   UNK N   1      18.080  13.776   1.809  0.00  0.00     0.210 HD
ENDBRANCH  68  73
BRANCH  69  75
HETATM   75  O   UNK N   1      17.898  13.726   4.791  0.00  0.00    -0.390 OA
HETATM   76  H   UNK N   1      17.174  14.087   5.327  0.00  0.00     0.210 HD
ENDBRANCH  69  75
BRANCH  70  77
HETATM   77  O   UNK N   1      20.718  11.474   4.598  0.00  0.00    -0.390 OA
HETATM   78  H   UNK N   1      21.509  10.951   4.392  0.00  0.00     0.210 HD
ENDBRANCH  70  77
BRANCH  71  79
HETATM   79  C   UNK N   1      21.669  13.018   6.816  0.00  0.00     0.198 C 
BRANCH  79  80
HETATM   80  O   UNK N   1      21.137  11.995   7.603  0.00  0.00    -0.398 OA
HETATM   81  H   UNK N   1      20.333  11.963   8.146  0.00  0.00     0.209 HD
ENDBRANCH  79  80
ENDBRANCH  71  79
ENDBRANCH  66  67
ENDBRANCH  59  66
BRANCH  60  82
HETATM   82  C   UNK N   1      21.042  17.534   6.831  0.00  0.00     0.197 C 
BRANCH  82  83
HETATM   83  O   UNK N   1      20.804  18.808   7.347  0.00  0.00    -0.398 OA
HETATM   84  H   UNK N   1      20.856  19.755   7.142  0.00  0.00     0.209 HD
ENDBRANCH  82  83
ENDBRANCH  60  82
ENDBRANCH  55  56
ENDBRANCH  48  55
BRANCH  49  85
HETATM   85  C   UNK N   1      27.163  20.222   4.825  0.00  0.00     0.198 C 
BRANCH  85  86
HETATM   86  O   UNK N   1      28.414  20.108   4.218  0.00  0.00    -0.398 OA
HETATM   87  H   UNK N   1      28.535  19.636   3.379  0.00  0.00     0.209 HD
ENDBRANCH  85  86
ENDBRANCH  49  85
ENDBRANCH   1  45
TORSDOF 36
ENDMDL
MODEL 4
REMARK VINA RESULT:      -7.8      2.136     14.767
REMARK WARNING: 32 MAX_TORS EXCEEDED!!!
REMARK  36 active torsions:
REMARK  status: ('A' for Active; 'I' for Inactive)
REMARK    1  A    between atoms: C_7  and  C_1 
REMARK    2  A    between atoms: O_37  and  C_1 
REMARK    3  A    between atoms: C_8  and  C_2 
REMARK    4  A    between atoms: O_38  and  C_2 
REMARK    5  A    between atoms: C_9  and  C_3 
REMARK    6  A    between atoms: O_39  and  C_3 
REMARK    7  A    between atoms: C_10  and  C_4 
REMARK    8  A    between atoms: O_40  and  C_4 
REMARK    9  A    between atoms: C_11  and  C_5 
REMARK   10  A    between atoms: O_41  and  C_5 
REMARK   11  A    between atoms: C_12  and  C_6 
REMARK   12  A    between atoms: O_42  and  C_6 
REMARK   13  A    between atoms: C_13  and  O_43 
REMARK   14  A    between atoms: C_14  and  O_44 
REMARK   15  A    between atoms: C_15  and  O_45 
REMARK   16  A    between atoms: C_16  and  O_46 
REMARK   17  A    between atoms: C_17  and  O_47 
REMARK   18  A    between atoms: C_18  and  O_48 
REMARK   19  A    between atoms: C_19  and  O_49 
REMARK   20  A    between atoms: C_20  and  O_50 
REMARK   21  A    between atoms: C_21  and  O_51 
REMARK   22  A    between atoms: C_22  and  O_52 
REMARK   23  A    between atoms: C_23  and  O_53 
REMARK   24  A    between atoms: C_24  and  O_54 
REMARK   25  A    between atoms: C_25  and  O_55 
REMARK   26  A    between atoms: C_26  and  O_63 
REMARK   27  A    between atoms: C_27  and  O_64 
REMARK   28  A    between atoms: C_28  and  S_65 
REMARK   29  A    between atoms: C_29  and  S_66 
REMARK   30  A    between atoms: C_30  and  S_67 
REMARK   31  A    between atoms: C_31  and  O_56 
REMARK   32  A    between atoms: C_32  and  O_64 
REMARK   33  A    between atoms: C_33  and  O_63 
REMARK   34  A    between atoms: C_34  and  S_66 
REMARK   35  A    between atoms: C_35  and  S_65 
REMARK   36  A    between atoms: C_36  and  S_67 
ROOT
HETATM    1  S   UNK N   1      28.512  15.679   6.264  0.00  0.00    -0.124 SA
ENDROOT
BRANCH   1   2
HETATM    2  C   UNK N   1      28.290  17.486   6.674  0.00  0.00     0.112 C 
HETATM    3  C   UNK N   1      29.558  18.116   6.119  0.00  0.00     0.164 C 
HETATM    4  O   UNK N   1      30.643  17.362   6.625  0.00  0.00    -0.350 OA
HETATM    5  C   UNK N   1      30.726  17.162   8.038  0.00  0.00     0.292 C 
HETATM    6  C   UNK N   1      29.676  17.979   8.809  0.00  0.00     0.203 C 
HETATM    7  C   UNK N   1      28.268  17.890   8.185  0.00  0.00     0.168 C 
BRANCH   3   8
HETATM    8  C   UNK N   1      29.622  18.040   4.594  0.00  0.00     0.197 C 
BRANCH   8   9
HETATM    9  O   UNK N   1      28.492  18.626   4.022  0.00  0.00    -0.398 OA
HETATM   10  H   UNK N   1      28.187  19.186   3.290  0.00  0.00     0.209 HD
ENDBRANCH   8   9
ENDBRANCH   3   8
BRANCH   5  11
HETATM   11  O   UNK N   1      31.986  17.593   8.529  0.00  0.00    -0.348 OA
BRANCH  11  12
HETATM   12  C   UNK N   1      32.753  16.627   9.242  0.00  0.00     0.187 C 
HETATM   13  C   UNK N   1      34.069  16.429   8.454  0.00  0.00     0.178 C 
HETATM   14  O   UNK N   1      34.941  15.458   9.035  0.00  0.00    -0.363 OA
HETATM   15  C   UNK N   1      34.288  14.303   9.558  0.00  0.00     0.215 C 
HETATM   16  C   UNK N   1      32.876  14.056   9.060  0.00  0.00     0.188 C 
HETATM   17  C   UNK N   1      32.029  15.247   9.405  0.00  0.00     0.181 C 
BRANCH  13  18
HETATM   18  C   UNK N   1      34.806  17.764   8.369  0.00  0.00     0.198 C 
BRANCH  18  19
HETATM   19  O   UNK N   1      34.520  18.406   7.162  0.00  0.00    -0.398 OA
HETATM   20  H   UNK N   1      33.655  18.819   7.015  0.00  0.00     0.209 HD
ENDBRANCH  18  19
ENDBRANCH  13  18
BRANCH  15  21
HETATM   21  S   UNK N   1      35.212  12.756   9.307  0.00  0.00    -0.124 SA
BRANCH  21  22
HETATM   22  C   UNK N   1      35.949  12.147  10.895  0.00  0.00     0.112 C 
HETATM   23  C   UNK N   1      37.065  13.094  11.412  0.00  0.00     0.164 C 
HETATM   24  O   UNK N   1      37.908  12.380  12.302  0.00  0.00    -0.350 OA
HETATM   25  C   UNK N   1      37.214  11.962  13.465  0.00  0.00     0.288 C 
HETATM   26  C   UNK N   1      35.989  11.084  13.126  0.00  0.00     0.203 C 
HETATM   27  C   UNK N   1      35.073  11.788  12.124  0.00  0.00     0.168 C 
BRANCH  23  28
HETATM   28  C   UNK N   1      37.934  13.629  10.277  0.00  0.00     0.197 C 
BRANCH  28  29
HETATM   29  O   UNK N   1      37.891  15.026  10.256  0.00  0.00    -0.398 OA
HETATM   30  H   UNK N   1      37.454  15.762  10.710  0.00  0.00     0.209 HD
ENDBRANCH  28  29
ENDBRANCH  23  28
BRANCH  25  31
HETATM   31  O   UNK N   1      38.090  11.205  14.245  0.00  0.00    -0.369 OA
HETATM   32  H   UNK N   1      39.048  11.334  14.175  0.00  0.00     0.212 HD
ENDBRANCH  25  31
BRANCH  26  33
HETATM   33  O   UNK N   1      35.286  10.766  14.292  0.00  0.00    -0.388 OA
HETATM   34  H   UNK N   1      35.633  10.609  15.183  0.00  0.00     0.210 HD
ENDBRANCH  26  33
BRANCH  27  35
HETATM   35  O   UNK N   1      34.525  12.925  12.727  0.00  0.00    -0.392 OA
HETATM   36  H   UNK N   1      34.683  13.771  13.174  0.00  0.00     0.210 HD
ENDBRANCH  27  35
ENDBRANCH  21  22
ENDBRANCH  15  21
BRANCH  16  37
HETATM   37  O   UNK N   1      32.867  13.855   7.680  0.00  0.00    -0.389 OA
HETATM   38  H   UNK N   1      33.231  14.011   6.794  0.00  0.00     0.210 HD
ENDBRANCH  16  37
BRANCH  17  39
HETATM   39  O   UNK N   1      31.592  15.125  10.732  0.00  0.00    -0.390 OA
HETATM   40  H   UNK N   1      31.895  14.630  11.510  0.00  0.00     0.210 HD
ENDBRANCH  17  39
ENDBRANCH  11  12
ENDBRANCH   5  11
BRANCH   6  41
HETATM   41  O   UNK N   1      29.669  17.671  10.172  0.00  0.00    -0.388 OA
HETATM   42  H   UNK N   1      29.591  18.374  10.836  0.00  0.00     0.210 HD
ENDBRANCH   6  41
BRANCH   7  43
HETATM   43  O   UNK N   1      27.405  17.128   8.962  0.00  0.00    -0.392 OA
HETATM   44  H   UNK N   1      26.507  16.918   8.663  0.00  0.00     0.210 HD
ENDBRANCH   7  43
ENDBRANCH   1   2
BRANCH   1  45
HETATM   45  C   UNK N   1      26.834  15.088   6.098  0.00  0.00     0.215 C 
HETATM   46  C   UNK N   1      25.898  16.223   5.658  0.00  0.00     0.188 C 
HETATM   47  C   UNK N   1      24.557  15.601   5.436  0.00  0.00     0.181 C 
HETATM   48  C   UNK N   1      24.067  14.896   6.762  0.00  0.00     0.187 C 
HETATM   49  C   UNK N   1      25.152  13.880   7.225  0.00  0.00     0.178 C 
HETATM   50  O   UNK N   1      26.435  14.477   7.308  0.00  0.00    -0.363 OA
BRANCH  46  51
HETATM   51  O   UNK N   1      26.356  16.803   4.469  0.00  0.00    -0.389 OA
HETATM   52  H   UNK N   1      26.740  17.694   4.476  0.00  0.00     0.210 HD
ENDBRANCH  46  51
BRANCH  47  53
HETATM   53  O   UNK N   1      24.746  14.691   4.401  0.00  0.00    -0.390 OA
HETATM   54  H   UNK N   1      24.340  14.018   3.832  0.00  0.00     0.210 HD
ENDBRANCH  47  53
BRANCH  48  55
HETATM   55  O   UNK N   1      22.763  14.271   6.775  0.00  0.00    -0.348 OA
BRANCH  55  56
HETATM   56  C   UNK N   1      21.841  14.841   5.874  0.00  0.00     0.292 C 
HETATM   57  C   UNK N   1      20.370  14.701   6.278  0.00  0.00     0.203 C 
HETATM   58  C   UNK N   1      19.587  15.617   5.291  0.00  0.00     0.168 C 
HETATM   59  C   UNK N   1      19.950  15.316   3.806  0.00  0.00     0.112 C 
HETATM   60  C   UNK N   1      21.454  15.098   3.622  0.00  0.00     0.164 C 
HETATM   61  O   UNK N   1      21.977  14.229   4.603  0.00  0.00    -0.350 OA
BRANCH  57  62
HETATM   62  O   UNK N   1      19.965  13.366   6.173  0.00  0.00    -0.388 OA
HETATM   63  H   UNK N   1      19.316  12.800   5.725  0.00  0.00     0.210 HD
ENDBRANCH  57  62
BRANCH  58  64
HETATM   64  O   UNK N   1      18.210  15.505   5.497  0.00  0.00    -0.392 OA
HETATM   65  H   UNK N   1      17.851  14.739   5.970  0.00  0.00     0.210 HD
ENDBRANCH  58  64
BRANCH  59  66
HETATM   66  S   UNK N   1      19.402  16.627   2.609  0.00  0.00    -0.124 SA
BRANCH  66  67
HETATM   67  C   UNK N   1      19.603  18.258   3.521  0.00  0.00     0.215 C 
HETATM   68  C   UNK N   1      19.136  19.459   2.669  0.00  0.00     0.188 C 
HETATM   69  C   UNK N   1      20.160  19.798   1.573  0.00  0.00     0.181 C 
HETATM   70  C   UNK N   1      21.516  20.046   2.238  0.00  0.00     0.180 C 
HETATM   71  C   UNK N   1      21.890  18.816   3.087  0.00  0.00     0.178 C 
HETATM   72  O   UNK N   1      20.896  18.524   4.067  0.00  0.00    -0.363 OA
BRANCH  68  73
HETATM   73  O   UNK N   1      17.877  19.217   2.115  0.00  0.00    -0.389 OA
HETATM   74  H   UNK N   1      17.736  18.476   1.507  0.00  0.00     0.210 HD
ENDBRANCH  68  73
BRANCH  69  75
HETATM   75  O   UNK N   1      20.266  18.752   0.651  0.00  0.00    -0.390 OA
HETATM   76  H   UNK N   1      20.231  17.913   0.165  0.00  0.00     0.210 HD
ENDBRANCH  69  75
BRANCH  70  77
HETATM   77  O   UNK N   1      21.445  21.186   3.049  0.00  0.00    -0.390 OA
HETATM   78  H   UNK N   1      21.111  21.884   3.633  0.00  0.00     0.210 HD
ENDBRANCH  70  77
BRANCH  71  79
HETATM   79  C   UNK N   1      23.211  19.067   3.821  0.00  0.00     0.198 C 
BRANCH  79  80
HETATM   80  O   UNK N   1      23.965  20.057   3.187  0.00  0.00    -0.398 OA
HETATM   81  H   UNK N   1      24.682  20.620   3.520  0.00  0.00     0.209 HD
ENDBRANCH  79  80
ENDBRANCH  71  79
ENDBRANCH  66  67
ENDBRANCH  59  66
BRANCH  60  82
HETATM   82  C   UNK N   1      21.826  14.572   2.237  0.00  0.00     0.197 C 
BRANCH  82  83
HETATM   83  O   UNK N   1      22.877  13.659   2.315  0.00  0.00    -0.398 OA
HETATM   84  H   UNK N   1      23.591  13.246   1.804  0.00  0.00     0.209 HD
ENDBRANCH  82  83
ENDBRANCH  60  82
ENDBRANCH  55  56
ENDBRANCH  48  55
BRANCH  49  85
HETATM   85  C   UNK N   1      24.849  13.366   8.633  0.00  0.00     0.198 C 
BRANCH  85  86
HETATM   86  O   UNK N   1      23.999  12.260   8.614  0.00  0.00    -0.398 OA
HETATM   87  H   UNK N   1      23.627  11.914   7.788  0.00  0.00     0.209 HD
ENDBRANCH  85  86
ENDBRANCH  49  85
ENDBRANCH   1  45
TORSDOF 36
ENDMDL
MODEL 5
REMARK VINA RESULT:      -7.7      1.895     14.650
REMARK WARNING: 32 MAX_TORS EXCEEDED!!!
REMARK  36 active torsions:
REMARK  status: ('A' for Active; 'I' for Inactive)
REMARK    1  A    between atoms: C_7  and  C_1 
REMARK    2  A    between atoms: O_37  and  C_1 
REMARK    3  A    between atoms: C_8  and  C_2 
REMARK    4  A    between atoms: O_38  and  C_2 
REMARK    5  A    between atoms: C_9  and  C_3 
REMARK    6  A    between atoms: O_39  and  C_3 
REMARK    7  A    between atoms: C_10  and  C_4 
REMARK    8  A    between atoms: O_40  and  C_4 
REMARK    9  A    between atoms: C_11  and  C_5 
REMARK   10  A    between atoms: O_41  and  C_5 
REMARK   11  A    between atoms: C_12  and  C_6 
REMARK   12  A    between atoms: O_42  and  C_6 
REMARK   13  A    between atoms: C_13  and  O_43 
REMARK   14  A    between atoms: C_14  and  O_44 
REMARK   15  A    between atoms: C_15  and  O_45 
REMARK   16  A    between atoms: C_16  and  O_46 
REMARK   17  A    between atoms: C_17  and  O_47 
REMARK   18  A    between atoms: C_18  and  O_48 
REMARK   19  A    between atoms: C_19  and  O_49 
REMARK   20  A    between atoms: C_20  and  O_50 
REMARK   21  A    between atoms: C_21  and  O_51 
REMARK   22  A    between atoms: C_22  and  O_52 
REMARK   23  A    between atoms: C_23  and  O_53 
REMARK   24  A    between atoms: C_24  and  O_54 
REMARK   25  A    between atoms: C_25  and  O_55 
REMARK   26  A    between atoms: C_26  and  O_63 
REMARK   27  A    between atoms: C_27  and  O_64 
REMARK   28  A    between atoms: C_28  and  S_65 
REMARK   29  A    between atoms: C_29  and  S_66 
REMARK   30  A    between atoms: C_30  and  S_67 
REMARK   31  A    between atoms: C_31  and  O_56 
REMARK   32  A    between atoms: C_32  and  O_64 
REMARK   33  A    between atoms: C_33  and  O_63 
REMARK   34  A    between atoms: C_34  and  S_66 
REMARK   35  A    between atoms: C_35  and  S_65 
REMARK   36  A    between atoms: C_36  and  S_67 
ROOT
HETATM    1  S   UNK N   1      30.454  15.038   4.816  0.00  0.00    -0.124 SA
ENDROOT
BRANCH   1   2
HETATM    2  C   UNK N   1      30.065  16.862   4.755  0.00  0.00     0.112 C 
HETATM    3  C   UNK N   1      31.433  17.504   4.918  0.00  0.00     0.164 C 
HETATM    4  O   UNK N   1      32.033  16.904   6.051  0.00  0.00    -0.350 OA
HETATM    5  C   UNK N   1      31.302  16.899   7.279  0.00  0.00     0.292 C 
HETATM    6  C   UNK N   1      30.011  17.731   7.197  0.00  0.00     0.203 C 
HETATM    7  C   UNK N   1      29.199  17.459   5.914  0.00  0.00     0.168 C 
BRANCH   3   8
HETATM    8  C   UNK N   1      32.346  17.234   3.722  0.00  0.00     0.197 C 
BRANCH   8   9
HETATM    9  O   UNK N   1      31.618  17.250   2.532  0.00  0.00    -0.398 OA
HETATM   10  H   UNK N   1      31.148  17.828   1.911  0.00  0.00     0.209 HD
ENDBRANCH   8   9
ENDBRANCH   3   8
BRANCH   5  11
HETATM   11  O   UNK N   1      32.071  17.481   8.320  0.00  0.00    -0.348 OA
BRANCH  11  12
HETATM   12  C   UNK N   1      32.777  16.578   9.167  0.00  0.00     0.187 C 
HETATM   13  C   UNK N   1      34.168  16.359   8.527  0.00  0.00     0.178 C 
HETATM   14  O   UNK N   1      34.992  15.446   9.254  0.00  0.00    -0.363 OA
HETATM   15  C   UNK N   1      34.307  14.313   9.785  0.00  0.00     0.215 C 
HETATM   16  C   UNK N   1      32.956  14.004   9.167  0.00  0.00     0.188 C 
HETATM   17  C   UNK N   1      32.061  15.196   9.348  0.00  0.00     0.181 C 
BRANCH  13  18
HETATM   18  C   UNK N   1      34.889  17.702   8.428  0.00  0.00     0.198 C 
BRANCH  18  19
HETATM   19  O   UNK N   1      34.572  18.341   7.229  0.00  0.00    -0.398 OA
HETATM   20  H   UNK N   1      35.204  18.943   6.807  0.00  0.00     0.209 HD
ENDBRANCH  18  19
ENDBRANCH  13  18
BRANCH  15  21
HETATM   21  S   UNK N   1      35.275  12.773   9.728  0.00  0.00    -0.124 SA
BRANCH  21  22
HETATM   22  C   UNK N   1      35.749  12.213  11.430  0.00  0.00     0.112 C 
HETATM   23  C   UNK N   1      37.184  12.667  11.807  0.00  0.00     0.164 C 
HETATM   24  O   UNK N   1      37.677  11.839  12.849  0.00  0.00    -0.350 OA
HETATM   25  C   UNK N   1      36.922  11.983  14.040  0.00  0.00     0.288 C 
HETATM   26  C   UNK N   1      35.425  11.670  13.820  0.00  0.00     0.203 C 
HETATM   27  C   UNK N   1      34.857  12.500  12.667  0.00  0.00     0.168 C 
BRANCH  23  28
HETATM   28  C   UNK N   1      38.148  12.556  10.630  0.00  0.00     0.197 C 
BRANCH  28  29
HETATM   29  O   UNK N   1      39.137  13.539  10.724  0.00  0.00    -0.398 OA
HETATM   30  H   UNK N   1      40.091  13.647  10.595  0.00  0.00     0.209 HD
ENDBRANCH  28  29
ENDBRANCH  23  28
BRANCH  25  31
HETATM   31  O   UNK N   1      37.421  11.083  14.982  0.00  0.00    -0.369 OA
HETATM   32  H   UNK N   1      37.161  10.149  14.959  0.00  0.00     0.212 HD
ENDBRANCH  25  31
BRANCH  26  33
HETATM   33  O   UNK N   1      34.705  11.907  14.995  0.00  0.00    -0.388 OA
HETATM   34  H   UNK N   1      35.017  11.869  15.912  0.00  0.00     0.210 HD
ENDBRANCH  26  33
BRANCH  27  35
HETATM   35  O   UNK N   1      34.877  13.852  13.026  0.00  0.00    -0.392 OA
HETATM   36  H   UNK N   1      34.689  14.769  12.772  0.00  0.00     0.210 HD
ENDBRANCH  27  35
ENDBRANCH  21  22
ENDBRANCH  15  21
BRANCH  16  37
HETATM   37  O   UNK N   1      33.088  13.716   7.808  0.00  0.00    -0.389 OA
HETATM   38  H   UNK N   1      33.168  13.994   6.883  0.00  0.00     0.210 HD
ENDBRANCH  16  37
BRANCH  17  39
HETATM   39  O   UNK N   1      31.496  15.151  10.630  0.00  0.00    -0.390 OA
HETATM   40  H   UNK N   1      31.826  14.934  11.516  0.00  0.00     0.210 HD
ENDBRANCH  17  39
ENDBRANCH  11  12
ENDBRANCH   5  11
BRANCH   6  41
HETATM   41  O   UNK N   1      29.232  17.605   8.351  0.00  0.00    -0.388 OA
HETATM   42  H   UNK N   1      28.899  16.737   8.629  0.00  0.00     0.210 HD
ENDBRANCH   6  41
BRANCH   7  43
HETATM   43  O   UNK N   1      28.038  16.744   6.178  0.00  0.00    -0.392 OA
HETATM   44  H   UNK N   1      27.649  16.148   5.520  0.00  0.00     0.210 HD
ENDBRANCH   7  43
ENDBRANCH   1   2
BRANCH   1  45
HETATM   45  C   UNK N   1      28.940  14.278   4.246  0.00  0.00     0.215 C 
HETATM   46  C   UNK N   1      28.340  15.070   3.075  0.00  0.00     0.188 C 
HETATM   47  C   UNK N   1      27.155  14.290   2.603  0.00  0.00     0.181 C 
HETATM   48  C   UNK N   1      26.129  14.103   3.791  0.00  0.00     0.187 C 
HETATM   49  C   UNK N   1      26.866  13.443   4.994  0.00  0.00     0.178 C 
HETATM   50  O   UNK N   1      28.051  14.140   5.336  0.00  0.00    -0.363 OA
BRANCH  46  51
HETATM   51  O   UNK N   1      29.273  15.191   2.037  0.00  0.00    -0.389 OA
HETATM   52  H   UNK N   1      29.111  14.761   1.183  0.00  0.00     0.210 HD
ENDBRANCH  46  51
BRANCH  47  53
HETATM   53  O   UNK N   1      27.671  13.076   2.163  0.00  0.00    -0.390 OA
HETATM   54  H   UNK N   1      28.088  12.592   1.432  0.00  0.00     0.210 HD
ENDBRANCH  47  53
BRANCH  48  55
HETATM   55  O   UNK N   1      24.886  13.413   3.531  0.00  0.00    -0.348 OA
BRANCH  55  56
HETATM   56  C   UNK N   1      23.786  14.269   3.312  0.00  0.00     0.292 C 
HETATM   57  C   UNK N   1      23.062  14.731   4.581  0.00  0.00     0.203 C 
HETATM   58  C   UNK N   1      22.083  15.845   4.108  0.00  0.00     0.168 C 
HETATM   59  C   UNK N   1      21.200  15.377   2.914  0.00  0.00     0.112 C 
HETATM   60  C   UNK N   1      22.009  14.580   1.887  0.00  0.00     0.164 C 
HETATM   61  O   UNK N   1      22.824  13.610   2.507  0.00  0.00    -0.350 OA
BRANCH  57  62
HETATM   62  O   UNK N   1      22.378  13.658   5.164  0.00  0.00    -0.388 OA
HETATM   63  H   UNK N   1      22.435  13.029   5.900  0.00  0.00     0.210 HD
ENDBRANCH  57  62
BRANCH  58  64
HETATM   64  O   UNK N   1      21.288  16.290   5.168  0.00  0.00    -0.392 OA
HETATM   65  H   UNK N   1      21.654  16.906   5.822  0.00  0.00     0.210 HD
ENDBRANCH  58  64
BRANCH  59  66
HETATM   66  S   UNK N   1      20.330  16.757   2.024  0.00  0.00    -0.124 SA
BRANCH  66  67
HETATM   67  C   UNK N   1      20.340  18.210   3.215  0.00  0.00     0.215 C 
HETATM   68  C   UNK N   1      19.494  19.392   2.692  0.00  0.00     0.188 C 
HETATM   69  C   UNK N   1      20.221  20.145   1.566  0.00  0.00     0.181 C 
HETATM   70  C   UNK N   1      21.589  20.591   2.086  0.00  0.00     0.180 C 
HETATM   71  C   UNK N   1      22.352  19.359   2.612  0.00  0.00     0.178 C 
HETATM   72  O   UNK N   1      21.623  18.679   3.632  0.00  0.00    -0.363 OA
BRANCH  68  73
HETATM   73  O   UNK N   1      18.237  18.956   2.268  0.00  0.00    -0.389 OA
HETATM   74  H   UNK N   1      18.127  18.088   1.851  0.00  0.00     0.210 HD
ENDBRANCH  68  73
BRANCH  69  75
HETATM   75  O   UNK N   1      20.383  19.325   0.444  0.00  0.00    -0.390 OA
HETATM   76  H   UNK N   1      20.525  18.599  -0.183  0.00  0.00     0.210 HD
ENDBRANCH  69  75
BRANCH  70  77
HETATM   77  O   UNK N   1      21.423  21.528   3.114  0.00  0.00    -0.390 OA
HETATM   78  H   UNK N   1      21.595  22.233   3.757  0.00  0.00     0.210 HD
ENDBRANCH  70  77
BRANCH  71  79
HETATM   79  C   UNK N   1      23.697  19.789   3.205  0.00  0.00     0.198 C 
BRANCH  79  80
HETATM   80  O   UNK N   1      24.282  20.811   2.453  0.00  0.00    -0.398 OA
HETATM   81  H   UNK N   1      25.005  21.421   2.665  0.00  0.00     0.209 HD
ENDBRANCH  79  80
ENDBRANCH  71  79
ENDBRANCH  66  67
ENDBRANCH  59  66
BRANCH  60  82
HETATM   82  C   UNK N   1      21.145  13.904   0.825  0.00  0.00     0.197 C 
BRANCH  82  83
HETATM   83  O   UNK N   1      20.233  13.024   1.409  0.00  0.00    -0.398 OA
HETATM   84  H   UNK N   1      19.634  12.909   2.163  0.00  0.00     0.209 HD
ENDBRANCH  82  83
ENDBRANCH  60  82
ENDBRANCH  55  56
ENDBRANCH  48  55
BRANCH  49  85
HETATM   85  C   UNK N   1      25.993  13.480   6.250  0.00  0.00     0.198 C 
BRANCH  85  86
HETATM   86  O   UNK N   1      25.928  14.758   6.804  0.00  0.00    -0.398 OA
HETATM   87  H   UNK N   1      25.461  15.484   6.363  0.00  0.00     0.209 HD
ENDBRANCH  85  86
ENDBRANCH  49  85
ENDBRANCH   1  45
TORSDOF 36
ENDMDL
MODEL 6
REMARK VINA RESULT:      -7.7      1.903     14.410
REMARK WARNING: 32 MAX_TORS EXCEEDED!!!
REMARK  36 active torsions:
REMARK  status: ('A' for Active; 'I' for Inactive)
REMARK    1  A    between atoms: C_7  and  C_1 
REMARK    2  A    between atoms: O_37  and  C_1 
REMARK    3  A    between atoms: C_8  and  C_2 
REMARK    4  A    between atoms: O_38  and  C_2 
REMARK    5  A    between atoms: C_9  and  C_3 
REMARK    6  A    between atoms: O_39  and  C_3 
REMARK    7  A    between atoms: C_10  and  C_4 
REMARK    8  A    between atoms: O_40  and  C_4 
REMARK    9  A    between atoms: C_11  and  C_5 
REMARK   10  A    between atoms: O_41  and  C_5 
REMARK   11  A    between atoms: C_12  and  C_6 
REMARK   12  A    between atoms: O_42  and  C_6 
REMARK   13  A    between atoms: C_13  and  O_43 
REMARK   14  A    between atoms: C_14  and  O_44 
REMARK   15  A    between atoms: C_15  and  O_45 
REMARK   16  A    between atoms: C_16  and  O_46 
REMARK   17  A    between atoms: C_17  and  O_47 
REMARK   18  A    between atoms: C_18  and  O_48 
REMARK   19  A    between atoms: C_19  and  O_49 
REMARK   20  A    between atoms: C_20  and  O_50 
REMARK   21  A    between atoms: C_21  and  O_51 
REMARK   22  A    between atoms: C_22  and  O_52 
REMARK   23  A    between atoms: C_23  and  O_53 
REMARK   24  A    between atoms: C_24  and  O_54 
REMARK   25  A    between atoms: C_25  and  O_55 
REMARK   26  A    between atoms: C_26  and  O_63 
REMARK   27  A    between atoms: C_27  and  O_64 
REMARK   28  A    between atoms: C_28  and  S_65 
REMARK   29  A    between atoms: C_29  and  S_66 
REMARK   30  A    between atoms: C_30  and  S_67 
REMARK   31  A    between atoms: C_31  and  O_56 
REMARK   32  A    between atoms: C_32  and  O_64 
REMARK   33  A    between atoms: C_33  and  O_63 
REMARK   34  A    between atoms: C_34  and  S_66 
REMARK   35  A    between atoms: C_35  and  S_65 
REMARK   36  A    between atoms: C_36  and  S_67 
ROOT
HETATM    1  S   UNK N   1      28.664  16.304   6.154  0.00  0.00    -0.124 SA
ENDROOT
BRANCH   1   2
HETATM    2  C   UNK N   1      29.507  16.007   4.515  0.00  0.00     0.112 C 
HETATM    3  C   UNK N   1      30.226  14.687   4.741  0.00  0.00     0.164 C 
HETATM    4  O   UNK N   1      30.958  14.823   5.945  0.00  0.00    -0.350 OA
HETATM    5  C   UNK N   1      31.843  15.937   6.076  0.00  0.00     0.292 C 
HETATM    6  C   UNK N   1      31.983  16.733   4.768  0.00  0.00     0.203 C 
HETATM    7  C   UNK N   1      30.629  17.009   4.084  0.00  0.00     0.168 C 
BRANCH   3   8
HETATM    8  C   UNK N   1      29.255  13.522   4.926  0.00  0.00     0.197 C 
BRANCH   8   9
HETATM    9  O   UNK N   1      28.311  13.498   3.899  0.00  0.00    -0.398 OA
HETATM   10  H   UNK N   1      28.126  13.810   2.999  0.00  0.00     0.209 HD
ENDBRANCH   8   9
ENDBRANCH   3   8
BRANCH   5  11
HETATM   11  O   UNK N   1      33.152  15.498   6.403  0.00  0.00    -0.348 OA
BRANCH  11  12
HETATM   12  C   UNK N   1      33.379  15.133   7.762  0.00  0.00     0.187 C 
HETATM   13  C   UNK N   1      34.525  16.032   8.281  0.00  0.00     0.178 C 
HETATM   14  O   UNK N   1      34.891  15.764   9.636  0.00  0.00    -0.363 OA
HETATM   15  C   UNK N   1      34.902  14.383   9.991  0.00  0.00     0.215 C 
HETATM   16  C   UNK N   1      34.961  13.400   8.835  0.00  0.00     0.188 C 
HETATM   17  C   UNK N   1      33.768  13.627   7.951  0.00  0.00     0.181 C 
BRANCH  13  18
HETATM   18  C   UNK N   1      34.104  17.496   8.165  0.00  0.00     0.198 C 
BRANCH  18  19
HETATM   19  O   UNK N   1      34.585  18.052   6.979  0.00  0.00    -0.398 OA
HETATM   20  H   UNK N   1      33.980  18.473   6.349  0.00  0.00     0.209 HD
ENDBRANCH  18  19
ENDBRANCH  13  18
BRANCH  15  21
HETATM   21  S   UNK N   1      36.242  13.927  11.135  0.00  0.00    -0.124 SA
BRANCH  21  22
HETATM   22  C   UNK N   1      35.577  13.085  12.647  0.00  0.00     0.112 C 
HETATM   23  C   UNK N   1      35.922  11.572  12.663  0.00  0.00     0.164 C 
HETATM   24  O   UNK N   1      35.019  10.896  13.522  0.00  0.00    -0.350 OA
HETATM   25  C   UNK N   1      35.156  11.318  14.869  0.00  0.00     0.288 C 
HETATM   26  C   UNK N   1      34.947  12.840  15.025  0.00  0.00     0.203 C 
HETATM   27  C   UNK N   1      35.863  13.616  14.076  0.00  0.00     0.168 C 
BRANCH  23  28
HETATM   28  C   UNK N   1      35.806  10.942  11.277  0.00  0.00     0.197 C 
BRANCH  28  29
HETATM   29  O   UNK N   1      34.468  10.660  10.989  0.00  0.00    -0.398 OA
HETATM   30  H   UNK N   1      33.859  10.640  10.235  0.00  0.00     0.209 HD
ENDBRANCH  28  29
ENDBRANCH  23  28
BRANCH  25  31
HETATM   31  O   UNK N   1      34.184  10.665  15.629  0.00  0.00    -0.369 OA
HETATM   32  H   UNK N   1      34.435   9.976  16.264  0.00  0.00     0.212 HD
ENDBRANCH  25  31
BRANCH  26  33
HETATM   33  O   UNK N   1      35.176  13.225  16.349  0.00  0.00    -0.388 OA
HETATM   34  H   UNK N   1      34.783  13.964  16.839  0.00  0.00     0.210 HD
ENDBRANCH  26  33
BRANCH  27  35
HETATM   35  O   UNK N   1      37.193  13.410  14.456  0.00  0.00    -0.392 OA
HETATM   36  H   UNK N   1      37.839  13.352  15.177  0.00  0.00     0.210 HD
ENDBRANCH  27  35
ENDBRANCH  21  22
ENDBRANCH  15  21
BRANCH  16  37
HETATM   37  O   UNK N   1      36.133  13.572   8.099  0.00  0.00    -0.389 OA
HETATM   38  H   UNK N   1      36.601  13.853   7.297  0.00  0.00     0.210 HD
ENDBRANCH  16  37
BRANCH  17  39
HETATM   39  O   UNK N   1      32.667  12.946   8.488  0.00  0.00    -0.390 OA
HETATM   40  H   UNK N   1      32.291  12.845   9.377  0.00  0.00     0.210 HD
ENDBRANCH  17  39
ENDBRANCH  11  12
ENDBRANCH   5  11
BRANCH   6  41
HETATM   41  O   UNK N   1      32.734  17.898   4.941  0.00  0.00    -0.388 OA
HETATM   42  H   UNK N   1      32.429  18.597   5.541  0.00  0.00     0.210 HD
ENDBRANCH   6  41
BRANCH   7  43
HETATM   43  O   UNK N   1      30.262  18.345   4.182  0.00  0.00    -0.392 OA
HETATM   44  H   UNK N   1      29.623  18.741   3.570  0.00  0.00     0.210 HD
ENDBRANCH   7  43
ENDBRANCH   1   2
BRANCH   1  45
HETATM   45  C   UNK N   1      27.254  17.310   5.712  0.00  0.00     0.215 C 
HETATM   46  C   UNK N   1      26.569  16.764   4.451  0.00  0.00     0.188 C 
HETATM   47  C   UNK N   1      25.347  17.599   4.240  0.00  0.00     0.181 C 
HETATM   48  C   UNK N   1      25.755  19.118   4.093  0.00  0.00     0.187 C 
HETATM   49  C   UNK N   1      26.587  19.540   5.341  0.00  0.00     0.178 C 
HETATM   50  O   UNK N   1      27.667  18.655   5.581  0.00  0.00    -0.363 OA
BRANCH  46  51
HETATM   51  O   UNK N   1      26.204  15.424   4.633  0.00  0.00    -0.389 OA
HETATM   52  H   UNK N   1      26.459  14.755   3.979  0.00  0.00     0.210 HD
ENDBRANCH  46  51
BRANCH  47  53
HETATM   53  O   UNK N   1      24.558  17.377   5.364  0.00  0.00    -0.390 OA
HETATM   54  H   UNK N   1      24.525  17.328   6.332  0.00  0.00     0.210 HD
ENDBRANCH  47  53
BRANCH  48  55
HETATM   55  O   UNK N   1      24.719  20.093   3.834  0.00  0.00    -0.348 OA
BRANCH  55  56
HETATM   56  C   UNK N   1      23.479  19.532   3.464  0.00  0.00     0.292 C 
HETATM   57  C   UNK N   1      22.670  20.357   2.459  0.00  0.00     0.203 C 
HETATM   58  C   UNK N   1      21.500  19.429   2.017  0.00  0.00     0.168 C 
HETATM   59  C   UNK N   1      20.732  18.839   3.237  0.00  0.00     0.112 C 
HETATM   60  C   UNK N   1      21.687  18.395   4.349  0.00  0.00     0.164 C 
HETATM   61  O   UNK N   1      22.666  19.375   4.615  0.00  0.00    -0.350 OA
BRANCH  57  62
HETATM   62  O   UNK N   1      22.198  21.527   3.063  0.00  0.00    -0.388 OA
HETATM   63  H   UNK N   1      22.400  22.149   3.780  0.00  0.00     0.210 HD
ENDBRANCH  57  62
BRANCH  58  64
HETATM   64  O   UNK N   1      20.627  20.103   1.161  0.00  0.00    -0.392 OA
HETATM   65  H   UNK N   1      20.125  20.867   1.485  0.00  0.00     0.210 HD
ENDBRANCH  58  64
BRANCH  59  66
HETATM   66  S   UNK N   1      19.624  17.408   2.818  0.00  0.00    -0.124 SA
BRANCH  66  67
HETATM   67  C   UNK N   1      20.666  16.254   1.765  0.00  0.00     0.215 C 
HETATM   68  C   UNK N   1      19.843  15.065   1.220  0.00  0.00     0.188 C 
HETATM   69  C   UNK N   1      19.569  14.025   2.318  0.00  0.00     0.181 C 
HETATM   70  C   UNK N   1      20.909  13.583   2.911  0.00  0.00     0.180 C 
HETATM   71  C   UNK N   1      21.674  14.828   3.403  0.00  0.00     0.178 C 
HETATM   72  O   UNK N   1      21.876  15.775   2.356  0.00  0.00    -0.363 OA
BRANCH  68  73
HETATM   73  O   UNK N   1      18.649  15.508   0.646  0.00  0.00    -0.389 OA
HETATM   74  H   UNK N   1      18.461  16.454   0.558  0.00  0.00     0.210 HD
ENDBRANCH  68  73
BRANCH  69  75
HETATM   75  O   UNK N   1      18.758  14.564   3.322  0.00  0.00    -0.390 OA
HETATM   76  H   UNK N   1      18.366  15.074   4.049  0.00  0.00     0.210 HD
ENDBRANCH  69  75
BRANCH  70  77
HETATM   77  O   UNK N   1      21.660  12.911   1.939  0.00  0.00    -0.390 OA
HETATM   78  H   UNK N   1      22.040  12.209   1.388  0.00  0.00     0.210 HD
ENDBRANCH  70  77
BRANCH  71  79
HETATM   79  C   UNK N   1      23.050  14.420   3.937  0.00  0.00     0.198 C 
BRANCH  79  80
HETATM   80  O   UNK N   1      23.235  14.855   5.252  0.00  0.00    -0.398 OA
HETATM   81  H   UNK N   1      22.964  14.460   6.095  0.00  0.00     0.209 HD
ENDBRANCH  79  80
ENDBRANCH  71  79
ENDBRANCH  66  67
ENDBRANCH  59  66
BRANCH  60  82
HETATM   82  C   UNK N   1      20.976  18.031   5.650  0.00  0.00     0.197 C 
BRANCH  82  83
HETATM   83  O   UNK N   1      21.767  17.191   6.434  0.00  0.00    -0.398 OA
HETATM   84  H   UNK N   1      21.745  16.403   6.999  0.00  0.00     0.209 HD
ENDBRANCH  82  83
ENDBRANCH  60  82
ENDBRANCH  55  56
ENDBRANCH  48  55
BRANCH  49  85
HETATM   85  C   UNK N   1      27.224  20.915   5.127  0.00  0.00     0.198 C 
BRANCH  85  86
HETATM   86  O   UNK N   1      27.403  21.600   6.329  0.00  0.00    -0.398 OA
HETATM   87  H   UNK N   1      27.364  22.568   6.376  0.00  0.00     0.209 HD
ENDBRANCH  85  86
ENDBRANCH  49  85
ENDBRANCH   1  45
TORSDOF 36
ENDMDL
MODEL 7
REMARK VINA RESULT:      -7.7      2.438     14.253
REMARK WARNING: 32 MAX_TORS EXCEEDED!!!
REMARK  36 active torsions:
REMARK  status: ('A' for Active; 'I' for Inactive)
REMARK    1  A    between atoms: C_7  and  C_1 
REMARK    2  A    between atoms: O_37  and  C_1 
REMARK    3  A    between atoms: C_8  and  C_2 
REMARK    4  A    between atoms: O_38  and  C_2 
REMARK    5  A    between atoms: C_9  and  C_3 
REMARK    6  A    between atoms: O_39  and  C_3 
REMARK    7  A    between atoms: C_10  and  C_4 
REMARK    8  A    between atoms: O_40  and  C_4 
REMARK    9  A    between atoms: C_11  and  C_5 
REMARK   10  A    between atoms: O_41  and  C_5 
REMARK   11  A    between atoms: C_12  and  C_6 
REMARK   12  A    between atoms: O_42  and  C_6 
REMARK   13  A    between atoms: C_13  and  O_43 
REMARK   14  A    between atoms: C_14  and  O_44 
REMARK   15  A    between atoms: C_15  and  O_45 
REMARK   16  A    between atoms: C_16  and  O_46 
REMARK   17  A    between atoms: C_17  and  O_47 
REMARK   18  A    between atoms: C_18  and  O_48 
REMARK   19  A    between atoms: C_19  and  O_49 
REMARK   20  A    between atoms: C_20  and  O_50 
REMARK   21  A    between atoms: C_21  and  O_51 
REMARK   22  A    between atoms: C_22  and  O_52 
REMARK   23  A    between atoms: C_23  and  O_53 
REMARK   24  A    between atoms: C_24  and  O_54 
REMARK   25  A    between atoms: C_25  and  O_55 
REMARK   26  A    between atoms: C_26  and  O_63 
REMARK   27  A    between atoms: C_27  and  O_64 
REMARK   28  A    between atoms: C_28  and  S_65 
REMARK   29  A    between atoms: C_29  and  S_66 
REMARK   30  A    between atoms: C_30  and  S_67 
REMARK   31  A    between atoms: C_31  and  O_56 
REMARK   32  A    between atoms: C_32  and  O_64 
REMARK   33  A    between atoms: C_33  and  O_63 
REMARK   34  A    between atoms: C_34  and  S_66 
REMARK   35  A    between atoms: C_35  and  S_65 
REMARK   36  A    between atoms: C_36  and  S_67 
ROOT
HETATM    1  S   UNK N   1      28.746  16.170   6.149  0.00  0.00    -0.124 SA
ENDROOT
BRANCH   1   2
HETATM    2  C   UNK N   1      29.559  15.956   4.483  0.00  0.00     0.112 C 
HETATM    3  C   UNK N   1      30.271  14.620   4.625  0.00  0.00     0.164 C 
HETATM    4  O   UNK N   1      31.023  14.684   5.823  0.00  0.00    -0.350 OA
HETATM    5  C   UNK N   1      31.920  15.783   5.998  0.00  0.00     0.292 C 
HETATM    6  C   UNK N   1      32.045  16.647   4.733  0.00  0.00     0.203 C 
HETATM    7  C   UNK N   1      30.682  16.971   4.088  0.00  0.00     0.168 C 
BRANCH   3   8
HETATM    8  C   UNK N   1      29.292  13.454   4.763  0.00  0.00     0.197 C 
BRANCH   8   9
HETATM    9  O   UNK N   1      29.977  12.256   4.967  0.00  0.00    -0.398 OA
HETATM   10  H   UNK N   1      30.329  11.663   5.649  0.00  0.00     0.209 HD
ENDBRANCH   8   9
ENDBRANCH   3   8
BRANCH   5  11
HETATM   11  O   UNK N   1      33.230  15.316   6.279  0.00  0.00    -0.348 OA
BRANCH  11  12
HETATM   12  C   UNK N   1      33.340  14.277   7.248  0.00  0.00     0.187 C 
HETATM   13  C   UNK N   1      34.432  14.715   8.252  0.00  0.00     0.178 C 
HETATM   14  O   UNK N   1      34.681  13.753   9.279  0.00  0.00    -0.363 OA
HETATM   15  C   UNK N   1      34.669  12.396   8.844  0.00  0.00     0.215 C 
HETATM   16  C   UNK N   1      34.833  12.175   7.351  0.00  0.00     0.188 C 
HETATM   17  C   UNK N   1      33.720  12.886   6.635  0.00  0.00     0.181 C 
BRANCH  13  18
HETATM   18  C   UNK N   1      34.014  16.032   8.901  0.00  0.00     0.198 C 
BRANCH  18  19
HETATM   19  O   UNK N   1      33.850  15.869  10.278  0.00  0.00    -0.398 OA
HETATM   20  H   UNK N   1      34.492  16.244  10.900  0.00  0.00     0.209 HD
ENDBRANCH  18  19
ENDBRANCH  13  18
BRANCH  15  21
HETATM   21  S   UNK N   1      35.907  11.346   9.668  0.00  0.00    -0.124 SA
BRANCH  21  22
HETATM   22  C   UNK N   1      36.063  11.776  11.465  0.00  0.00     0.112 C 
HETATM   23  C   UNK N   1      37.095  12.911  11.698  0.00  0.00     0.164 C 
HETATM   24  O   UNK N   1      37.541  12.868  13.045  0.00  0.00    -0.350 OA
HETATM   25  C   UNK N   1      36.488  13.135  13.957  0.00  0.00     0.288 C 
HETATM   26  C   UNK N   1      35.311  12.150  13.790  0.00  0.00     0.203 C 
HETATM   27  C   UNK N   1      34.827  12.118  12.338  0.00  0.00     0.168 C 
BRANCH  23  28
HETATM   28  C   UNK N   1      38.320  12.766  10.799  0.00  0.00     0.197 C 
BRANCH  28  29
HETATM   29  O   UNK N   1      38.681  14.010  10.275  0.00  0.00    -0.398 OA
HETATM   30  H   UNK N   1      39.474  14.507  10.020  0.00  0.00     0.209 HD
ENDBRANCH  28  29
ENDBRANCH  23  28
BRANCH  25  31
HETATM   31  O   UNK N   1      36.991  12.996  15.252  0.00  0.00    -0.369 OA
HETATM   32  H   UNK N   1      37.590  13.663  15.622  0.00  0.00     0.212 HD
ENDBRANCH  25  31
BRANCH  26  33
HETATM   33  O   UNK N   1      34.263  12.501  14.646  0.00  0.00    -0.388 OA
HETATM   34  H   UNK N   1      33.856  11.974  15.351  0.00  0.00     0.210 HD
ENDBRANCH  26  33
BRANCH  27  35
HETATM   35  O   UNK N   1      34.283  13.365  12.011  0.00  0.00    -0.392 OA
HETATM   36  H   UNK N   1      33.638  13.864  11.487  0.00  0.00     0.210 HD
ENDBRANCH  27  35
ENDBRANCH  21  22
ENDBRANCH  15  21
BRANCH  16  37
HETATM   37  O   UNK N   1      36.063  12.662   6.911  0.00  0.00    -0.389 OA
HETATM   38  H   UNK N   1      36.690  13.389   6.770  0.00  0.00     0.210 HD
ENDBRANCH  16  37
BRANCH  17  39
HETATM   39  O   UNK N   1      32.581  12.069   6.641  0.00  0.00    -0.390 OA
HETATM   40  H   UNK N   1      32.324  11.248   6.192  0.00  0.00     0.210 HD
ENDBRANCH  17  39
ENDBRANCH  11  12
ENDBRANCH   5  11
BRANCH   6  41
HETATM   41  O   UNK N   1      32.809  17.796   4.956  0.00  0.00    -0.388 OA
HETATM   42  H   UNK N   1      32.386  18.624   5.233  0.00  0.00     0.210 HD
ENDBRANCH   6  41
BRANCH   7  43
HETATM   43  O   UNK N   1      30.329  18.303   4.264  0.00  0.00    -0.392 OA
HETATM   44  H   UNK N   1      29.804  18.591   5.027  0.00  0.00     0.210 HD
ENDBRANCH   7  43
ENDBRANCH   1   2
BRANCH   1  45
HETATM   45  C   UNK N   1      27.225  17.022   5.755  0.00  0.00     0.215 C 
HETATM   46  C   UNK N   1      26.429  16.251   4.692  0.00  0.00     0.188 C 
HETATM   47  C   UNK N   1      25.134  16.980   4.525  0.00  0.00     0.181 C 
HETATM   48  C   UNK N   1      25.412  18.476   4.101  0.00  0.00     0.187 C 
HETATM   49  C   UNK N   1      26.361  19.130   5.149  0.00  0.00     0.178 C 
HETATM   50  O   UNK N   1      27.522  18.349   5.372  0.00  0.00    -0.363 OA
BRANCH  46  51
HETATM   51  O   UNK N   1      26.184  14.939   5.118  0.00  0.00    -0.389 OA
HETATM   52  H   UNK N   1      26.912  14.300   5.172  0.00  0.00     0.210 HD
ENDBRANCH  46  51
BRANCH  47  53
HETATM   53  O   UNK N   1      24.508  16.896   5.764  0.00  0.00    -0.390 OA
HETATM   54  H   UNK N   1      24.531  16.519   6.658  0.00  0.00     0.210 HD
ENDBRANCH  47  53
BRANCH  48  55
HETATM   55  O   UNK N   1      24.286  19.344   3.840  0.00  0.00    -0.348 OA
BRANCH  55  56
HETATM   56  C   UNK N   1      23.040  18.684   3.824  0.00  0.00     0.292 C 
HETATM   57  C   UNK N   1      22.007  19.276   2.861  0.00  0.00     0.203 C 
HETATM   58  C   UNK N   1      20.841  18.243   2.829  0.00  0.00     0.168 C 
HETATM   59  C   UNK N   1      20.352  17.873   4.261  0.00  0.00     0.112 C 
HETATM   60  C   UNK N   1      21.522  17.681   5.229  0.00  0.00     0.164 C 
HETATM   61  O   UNK N   1      22.465  18.724   5.119  0.00  0.00    -0.350 OA
BRANCH  57  62
HETATM   62  O   UNK N   1      21.575  20.524   3.322  0.00  0.00    -0.388 OA
HETATM   63  H   UNK N   1      20.789  21.092   3.359  0.00  0.00     0.210 HD
ENDBRANCH  57  62
BRANCH  58  64
HETATM   64  O   UNK N   1      19.782  18.713   2.049  0.00  0.00    -0.392 OA
HETATM   65  H   UNK N   1      18.871  18.637   2.373  0.00  0.00     0.210 HD
ENDBRANCH  58  64
BRANCH  59  66
HETATM   66  S   UNK N   1      19.284  16.354   4.330  0.00  0.00    -0.124 SA
BRANCH  66  67
HETATM   67  C   UNK N   1      20.409  14.925   3.860  0.00  0.00     0.215 C 
HETATM   68  C   UNK N   1      19.631  13.774   3.184  0.00  0.00     0.188 C 
HETATM   69  C   UNK N   1      18.822  12.967   4.212  0.00  0.00     0.181 C 
HETATM   70  C   UNK N   1      19.780  12.466   5.296  0.00  0.00     0.180 C 
HETATM   71  C   UNK N   1      20.532  13.671   5.895  0.00  0.00     0.178 C 
HETATM   72  O   UNK N   1      21.241  14.404   4.898  0.00  0.00    -0.363 OA
BRANCH  68  73
HETATM   73  O   UNK N   1      18.802  14.261   2.171  0.00  0.00    -0.389 OA
HETATM   74  H   UNK N   1      18.840  15.190   1.901  0.00  0.00     0.210 HD
ENDBRANCH  68  73
BRANCH  69  75
HETATM   75  O   UNK N   1      17.822  13.757   4.789  0.00  0.00    -0.390 OA
HETATM   76  H   UNK N   1      17.293  14.379   5.313  0.00  0.00     0.210 HD
ENDBRANCH  69  75
BRANCH  70  77
HETATM   77  O   UNK N   1      20.691  11.558   4.742  0.00  0.00    -0.390 OA
HETATM   78  H   UNK N   1      21.477  11.183   4.316  0.00  0.00     0.210 HD
ENDBRANCH  70  77
BRANCH  71  79
HETATM   79  C   UNK N   1      21.549  13.190   6.934  0.00  0.00     0.198 C 
BRANCH  79  80
HETATM   80  O   UNK N   1      21.114  12.027   7.574  0.00  0.00    -0.398 OA
HETATM   81  H   UNK N   1      20.698  11.226   7.220  0.00  0.00     0.209 HD
ENDBRANCH  79  80
ENDBRANCH  71  79
ENDBRANCH  66  67
ENDBRANCH  59  66
BRANCH  60  82
HETATM   82  C   UNK N   1      21.087  17.550   6.687  0.00  0.00     0.197 C 
BRANCH  82  83
HETATM   83  O   UNK N   1      20.809  18.800   7.240  0.00  0.00    -0.398 OA
HETATM   84  H   UNK N   1      20.603  19.258   8.070  0.00  0.00     0.209 HD
ENDBRANCH  82  83
ENDBRANCH  60  82
ENDBRANCH  55  56
ENDBRANCH  48  55
BRANCH  49  85
HETATM   85  C   UNK N   1      26.868  20.484   4.651  0.00  0.00     0.198 C 
BRANCH  85  86
HETATM   86  O   UNK N   1      26.804  20.588   3.261  0.00  0.00    -0.398 OA
HETATM   87  H   UNK N   1      26.646  19.815   2.697  0.00  0.00     0.209 HD
ENDBRANCH  85  86
ENDBRANCH  49  85
ENDBRANCH   1  45
TORSDOF 36
ENDMDL
MODEL 8
REMARK VINA RESULT:      -7.7      1.820      3.019
REMARK WARNING: 32 MAX_TORS EXCEEDED!!!
REMARK  36 active torsions:
REMARK  status: ('A' for Active; 'I' for Inactive)
REMARK    1  A    between atoms: C_7  and  C_1 
REMARK    2  A    between atoms: O_37  and  C_1 
REMARK    3  A    between atoms: C_8  and  C_2 
REMARK    4  A    between atoms: O_38  and  C_2 
REMARK    5  A    between atoms: C_9  and  C_3 
REMARK    6  A    between atoms: O_39  and  C_3 
REMARK    7  A    between atoms: C_10  and  C_4 
REMARK    8  A    between atoms: O_40  and  C_4 
REMARK    9  A    between atoms: C_11  and  C_5 
REMARK   10  A    between atoms: O_41  and  C_5 
REMARK   11  A    between atoms: C_12  and  C_6 
REMARK   12  A    between atoms: O_42  and  C_6 
REMARK   13  A    between atoms: C_13  and  O_43 
REMARK   14  A    between atoms: C_14  and  O_44 
REMARK   15  A    between atoms: C_15  and  O_45 
REMARK   16  A    between atoms: C_16  and  O_46 
REMARK   17  A    between atoms: C_17  and  O_47 
REMARK   18  A    between atoms: C_18  and  O_48 
REMARK   19  A    between atoms: C_19  and  O_49 
REMARK   20  A    between atoms: C_20  and  O_50 
REMARK   21  A    between atoms: C_21  and  O_51 
REMARK   22  A    between atoms: C_22  and  O_52 
REMARK   23  A    between atoms: C_23  and  O_53 
REMARK   24  A    between atoms: C_24  and  O_54 
REMARK   25  A    between atoms: C_25  and  O_55 
REMARK   26  A    between atoms: C_26  and  O_63 
REMARK   27  A    between atoms: C_27  and  O_64 
REMARK   28  A    between atoms: C_28  and  S_65 
REMARK   29  A    between atoms: C_29  and  S_66 
REMARK   30  A    between atoms: C_30  and  S_67 
REMARK   31  A    between atoms: C_31  and  O_56 
REMARK   32  A    between atoms: C_32  and  O_64 
REMARK   33  A    between atoms: C_33  and  O_63 
REMARK   34  A    between atoms: C_34  and  S_66 
REMARK   35  A    between atoms: C_35  and  S_65 
REMARK   36  A    between atoms: C_36  and  S_67 
ROOT
HETATM    1  S   UNK N   1      28.515  16.937   6.025  0.00  0.00    -0.124 SA
ENDROOT
BRANCH   1   2
HETATM    2  C   UNK N   1      29.112  17.066   4.261  0.00  0.00     0.112 C 
HETATM    3  C   UNK N   1      27.831  17.342   3.492  0.00  0.00     0.164 C 
HETATM    4  O   UNK N   1      26.893  16.361   3.894  0.00  0.00    -0.350 OA
HETATM    5  C   UNK N   1      27.275  14.987   3.810  0.00  0.00     0.292 C 
HETATM    6  C   UNK N   1      28.628  14.796   3.106  0.00  0.00     0.203 C 
HETATM    7  C   UNK N   1      29.709  15.779   3.601  0.00  0.00     0.168 C 
BRANCH   3   8
HETATM    8  C   UNK N   1      27.236  18.709   3.830  0.00  0.00     0.197 C 
BRANCH   8   9
HETATM    9  O   UNK N   1      28.211  19.704   3.761  0.00  0.00    -0.398 OA
HETATM   10  H   UNK N   1      28.731  20.326   4.293  0.00  0.00     0.209 HD
ENDBRANCH   8   9
ENDBRANCH   3   8
BRANCH   5  11
HETATM   11  O   UNK N   1      26.333  14.255   3.041  0.00  0.00    -0.348 OA
BRANCH  11  12
HETATM   12  C   UNK N   1      24.972  14.342   3.455  0.00  0.00     0.187 C 
HETATM   13  C   UNK N   1      24.231  15.172   2.381  0.00  0.00     0.178 C 
HETATM   14  O   UNK N   1      22.846  15.373   2.672  0.00  0.00    -0.363 OA
HETATM   15  C   UNK N   1      22.553  15.628   4.044  0.00  0.00     0.215 C 
HETATM   16  C   UNK N   1      23.723  16.075   4.901  0.00  0.00     0.188 C 
HETATM   17  C   UNK N   1      24.784  15.013   4.858  0.00  0.00     0.181 C 
BRANCH  13  18
HETATM   18  C   UNK N   1      24.353  14.467   1.032  0.00  0.00     0.198 C 
BRANCH  18  19
HETATM   19  O   UNK N   1      23.091  14.267   0.468  0.00  0.00    -0.398 OA
HETATM   20  H   UNK N   1      22.685  13.386   0.466  0.00  0.00     0.209 HD
ENDBRANCH  18  19
ENDBRANCH  13  18
BRANCH  15  21
HETATM   21  S   UNK N   1      21.221  16.841   4.301  0.00  0.00    -0.124 SA
BRANCH  21  22
HETATM   22  C   UNK N   1      21.335  18.233   3.082  0.00  0.00     0.112 C 
HETATM   23  C   UNK N   1      20.190  18.178   2.036  0.00  0.00     0.164 C 
HETATM   24  O   UNK N   1      20.574  18.912   0.884  0.00  0.00    -0.350 OA
HETATM   25  C   UNK N   1      20.744  20.291   1.170  0.00  0.00     0.288 C 
HETATM   26  C   UNK N   1      21.788  20.528   2.284  0.00  0.00     0.203 C 
HETATM   27  C   UNK N   1      21.448  19.713   3.533  0.00  0.00     0.168 C 
BRANCH  23  28
HETATM   28  C   UNK N   1      19.884  16.749   1.596  0.00  0.00     0.197 C 
BRANCH  28  29
HETATM   29  O   UNK N   1      20.881  16.288   0.732  0.00  0.00    -0.398 OA
HETATM   30  H   UNK N   1      20.976  15.890  -0.147  0.00  0.00     0.209 HD
ENDBRANCH  28  29
ENDBRANCH  23  28
BRANCH  25  31
HETATM   31  O   UNK N   1      21.194  20.922   0.010  0.00  0.00    -0.369 OA
HETATM   32  H   UNK N   1      20.578  21.414  -0.554  0.00  0.00     0.212 HD
ENDBRANCH  25  31
BRANCH  26  33
HETATM   33  O   UNK N   1      21.861  21.889   2.594  0.00  0.00    -0.388 OA
HETATM   34  H   UNK N   1      21.348  22.622   2.221  0.00  0.00     0.210 HD
ENDBRANCH  26  33
BRANCH  27  35
HETATM   35  O   UNK N   1      20.250  20.189   4.077  0.00  0.00    -0.392 OA
HETATM   36  H   UNK N   1      19.285  20.111   4.123  0.00  0.00     0.210 HD
ENDBRANCH  27  35
ENDBRANCH  21  22
ENDBRANCH  15  21
BRANCH  16  37
HETATM   37  O   UNK N   1      24.245  17.282   4.435  0.00  0.00    -0.389 OA
HETATM   38  H   UNK N   1      24.207  18.247   4.345  0.00  0.00     0.210 HD
ENDBRANCH  16  37
BRANCH  17  39
HETATM   39  O   UNK N   1      24.469  14.016   5.792  0.00  0.00    -0.390 OA
HETATM   40  H   UNK N   1      24.982  13.383   6.317  0.00  0.00     0.210 HD
ENDBRANCH  17  39
ENDBRANCH  11  12
ENDBRANCH   5  11
BRANCH   6  41
HETATM   41  O   UNK N   1      29.061  13.468   3.153  0.00  0.00    -0.388 OA
HETATM   42  H   UNK N   1      29.570  13.142   3.912  0.00  0.00     0.210 HD
ENDBRANCH   6  41
BRANCH   7  43
HETATM   43  O   UNK N   1      30.673  15.142   4.373  0.00  0.00    -0.392 OA
HETATM   44  H   UNK N   1      30.876  15.437   5.274  0.00  0.00     0.210 HD
ENDBRANCH   7  43
ENDBRANCH   1   2
BRANCH   1  45
HETATM   45  C   UNK N   1      30.033  16.912   6.969  0.00  0.00     0.215 C 
HETATM   46  C   UNK N   1      29.951  17.878   8.159  0.00  0.00     0.188 C 
HETATM   47  C   UNK N   1      31.211  17.692   8.941  0.00  0.00     0.181 C 
HETATM   48  C   UNK N   1      32.461  17.979   8.018  0.00  0.00     0.187 C 
HETATM   49  C   UNK N   1      32.375  17.072   6.755  0.00  0.00     0.178 C 
HETATM   50  O   UNK N   1      31.119  17.183   6.107  0.00  0.00    -0.363 OA
BRANCH  46  51
HETATM   51  O   UNK N   1      28.844  17.573   8.962  0.00  0.00    -0.389 OA
HETATM   52  H   UNK N   1      27.944  17.693   8.620  0.00  0.00     0.210 HD
ENDBRANCH  46  51
BRANCH  47  53
HETATM   53  O   UNK N   1      31.177  16.371   9.377  0.00  0.00    -0.390 OA
HETATM   54  H   UNK N   1      30.723  15.515   9.327  0.00  0.00     0.210 HD
ENDBRANCH  47  53
BRANCH  48  55
HETATM   55  O   UNK N   1      33.783  17.901   8.596  0.00  0.00    -0.348 OA
BRANCH  55  56
HETATM   56  C   UNK N   1      34.168  16.601   8.984  0.00  0.00     0.292 C 
HETATM   57  C   UNK N   1      34.695  16.482  10.417  0.00  0.00     0.203 C 
HETATM   58  C   UNK N   1      34.798  14.952  10.688  0.00  0.00     0.168 C 
HETATM   59  C   UNK N   1      35.596  14.215   9.571  0.00  0.00     0.112 C 
HETATM   60  C   UNK N   1      35.224  14.725   8.176  0.00  0.00     0.164 C 
HETATM   61  O   UNK N   1      35.197  16.135   8.128  0.00  0.00    -0.350 OA
BRANCH  57  62
HETATM   62  O   UNK N   1      35.941  17.109  10.527  0.00  0.00    -0.388 OA
HETATM   63  H   UNK N   1      36.639  17.307  11.171  0.00  0.00     0.210 HD
ENDBRANCH  57  62
BRANCH  58  64
HETATM   64  O   UNK N   1      35.360  14.706  11.943  0.00  0.00    -0.392 OA
HETATM   65  H   UNK N   1      35.249  13.838  12.362  0.00  0.00     0.210 HD
ENDBRANCH  58  64
BRANCH  59  66
HETATM   66  S   UNK N   1      35.398  12.368   9.587  0.00  0.00    -0.124 SA
BRANCH  66  67
HETATM   67  C   UNK N   1      33.574  12.054   9.264  0.00  0.00     0.215 C 
HETATM   68  C   UNK N   1      33.104  10.707   9.856  0.00  0.00     0.188 C 
HETATM   69  C   UNK N   1      33.591   9.522   9.006  0.00  0.00     0.181 C 
HETATM   70  C   UNK N   1      33.107   9.727   7.569  0.00  0.00     0.180 C 
HETATM   71  C   UNK N   1      33.594  11.101   7.068  0.00  0.00     0.178 C 
HETATM   72  O   UNK N   1      33.142  12.163   7.906  0.00  0.00    -0.363 OA
BRANCH  68  73
HETATM   73  O   UNK N   1      33.525  10.573  11.182  0.00  0.00    -0.389 OA
HETATM   74  H   UNK N   1      34.073   9.822  11.456  0.00  0.00     0.210 HD
ENDBRANCH  68  73
BRANCH  69  75
HETATM   75  O   UNK N   1      34.987   9.433   9.031  0.00  0.00    -0.390 OA
HETATM   76  H   UNK N   1      35.920   9.259   9.233  0.00  0.00     0.210 HD
ENDBRANCH  69  75
BRANCH  70  77
HETATM   77  O   UNK N   1      31.709   9.668   7.526  0.00  0.00    -0.390 OA
HETATM   78  H   UNK N   1      30.800   9.514   7.224  0.00  0.00     0.210 HD
ENDBRANCH  70  77
BRANCH  71  79
HETATM   79  C   UNK N   1      33.063  11.362   5.655  0.00  0.00     0.198 C 
BRANCH  79  80
HETATM   80  O   UNK N   1      33.586  10.449   4.737  0.00  0.00    -0.398 OA
HETATM   81  H   UNK N   1      34.353  10.511   4.146  0.00  0.00     0.209 HD
ENDBRANCH  79  80
ENDBRANCH  71  79
ENDBRANCH  66  67
ENDBRANCH  59  66
BRANCH  60  82
HETATM   82  C   UNK N   1      36.143  14.203   7.074  0.00  0.00     0.197 C 
BRANCH  82  83
HETATM   83  O   UNK N   1      36.138  15.059   5.973  0.00  0.00    -0.398 OA
HETATM   84  H   UNK N   1      36.417  15.937   5.666  0.00  0.00     0.209 HD
ENDBRANCH  82  83
ENDBRANCH  60  82
ENDBRANCH  55  56
ENDBRANCH  48  55
BRANCH  49  85
HETATM   85  C   UNK N   1      33.411  17.495   5.712  0.00  0.00     0.198 C 
BRANCH  85  86
HETATM   86  O   UNK N   1      32.880  17.508   4.422  0.00  0.00    -0.398 OA
HETATM   87  H   UNK N   1      31.923  17.496   4.263  0.00  0.00     0.209 HD
ENDBRANCH  85  86
ENDBRANCH  49  85
ENDBRANCH   1  45
TORSDOF 36
ENDMDL
MODEL 9
REMARK VINA RESULT:      -7.7      1.977      4.230
REMARK WARNING: 32 MAX_TORS EXCEEDED!!!
REMARK  36 active torsions:
REMARK  status: ('A' for Active; 'I' for Inactive)
REMARK    1  A    between atoms: C_7  and  C_1 
REMARK    2  A    between atoms: O_37  and  C_1 
REMARK    3  A    between atoms: C_8  and  C_2 
REMARK    4  A    between atoms: O_38  and  C_2 
REMARK    5  A    between atoms: C_9  and  C_3 
REMARK    6  A    between atoms: O_39  and  C_3 
REMARK    7  A    between atoms: C_10  and  C_4 
REMARK    8  A    between atoms: O_40  and  C_4 
REMARK    9  A    between atoms: C_11  and  C_5 
REMARK   10  A    between atoms: O_41  and  C_5 
REMARK   11  A    between atoms: C_12  and  C_6 
REMARK   12  A    between atoms: O_42  and  C_6 
REMARK   13  A    between atoms: C_13  and  O_43 
REMARK   14  A    between atoms: C_14  and  O_44 
REMARK   15  A    between atoms: C_15  and  O_45 
REMARK   16  A    between atoms: C_16  and  O_46 
REMARK   17  A    between atoms: C_17  and  O_47 
REMARK   18  A    between atoms: C_18  and  O_48 
REMARK   19  A    between atoms: C_19  and  O_49 
REMARK   20  A    between atoms: C_20  and  O_50 
REMARK   21  A    between atoms: C_21  and  O_51 
REMARK   22  A    between atoms: C_22  and  O_52 
REMARK   23  A    between atoms: C_23  and  O_53 
REMARK   24  A    between atoms: C_24  and  O_54 
REMARK   25  A    between atoms: C_25  and  O_55 
REMARK   26  A    between atoms: C_26  and  O_63 
REMARK   27  A    between atoms: C_27  and  O_64 
REMARK   28  A    between atoms: C_28  and  S_65 
REMARK   29  A    between atoms: C_29  and  S_66 
REMARK   30  A    between atoms: C_30  and  S_67 
REMARK   31  A    between atoms: C_31  and  O_56 
REMARK   32  A    between atoms: C_32  and  O_64 
REMARK   33  A    between atoms: C_33  and  O_63 
REMARK   34  A    between atoms: C_34  and  S_66 
REMARK   35  A    between atoms: C_35  and  S_65 
REMARK   36  A    between atoms: C_36  and  S_67 
ROOT
HETATM    1  S   UNK N   1      30.178  16.811   4.161  0.00  0.00    -0.124 SA
ENDROOT
BRANCH   1   2
HETATM    2  C   UNK N   1      29.303  16.027   5.612  0.00  0.00     0.112 C 
HETATM    3  C   UNK N   1      27.905  15.779   5.068  0.00  0.00     0.164 C 
HETATM    4  O   UNK N   1      27.466  16.999   4.500  0.00  0.00    -0.350 OA
HETATM    5  C   UNK N   1      27.519  18.178   5.306  0.00  0.00     0.292 C 
HETATM    6  C   UNK N   1      27.896  17.874   6.765  0.00  0.00     0.203 C 
HETATM    7  C   UNK N   1      29.089  16.904   6.890  0.00  0.00     0.168 C 
BRANCH   3   8
HETATM    8  C   UNK N   1      27.893  14.728   3.959  0.00  0.00     0.197 C 
BRANCH   8   9
HETATM    9  O   UNK N   1      26.839  14.957   3.073  0.00  0.00    -0.398 OA
HETATM   10  H   UNK N   1      26.245  15.640   2.725  0.00  0.00     0.209 HD
ENDBRANCH   8   9
ENDBRANCH   3   8
BRANCH   5  11
HETATM   11  O   UNK N   1      26.246  18.803   5.358  0.00  0.00    -0.348 OA
BRANCH  11  12
HETATM   12  C   UNK N   1      25.202  18.180   4.615  0.00  0.00     0.187 C 
HETATM   13  C   UNK N   1      24.263  19.309   4.130  0.00  0.00     0.178 C 
HETATM   14  O   UNK N   1      23.139  18.835   3.386  0.00  0.00    -0.363 OA
HETATM   15  C   UNK N   1      22.551  17.636   3.888  0.00  0.00     0.215 C 
HETATM   16  C   UNK N   1      22.890  17.280   5.324  0.00  0.00     0.188 C 
HETATM   17  C   UNK N   1      24.380  17.135   5.444  0.00  0.00     0.181 C 
BRANCH  13  18
HETATM   18  C   UNK N   1      25.057  20.279   3.258  0.00  0.00     0.198 C 
BRANCH  18  19
HETATM   19  O   UNK N   1      24.215  20.917   2.345  0.00  0.00    -0.398 OA
HETATM   20  H   UNK N   1      23.524  21.525   2.650  0.00  0.00     0.209 HD
ENDBRANCH  18  19
ENDBRANCH  13  18
BRANCH  15  21
HETATM   21  S   UNK N   1      20.737  17.591   3.750  0.00  0.00    -0.124 SA
BRANCH  21  22
HETATM   22  C   UNK N   1      20.169  16.073   2.850  0.00  0.00     0.112 C 
HETATM   23  C   UNK N   1      20.349  16.212   1.315  0.00  0.00     0.164 C 
HETATM   24  O   UNK N   1      19.486  15.297   0.658  0.00  0.00    -0.350 OA
HETATM   25  C   UNK N   1      19.826  13.951   0.948  0.00  0.00     0.288 C 
HETATM   26  C   UNK N   1      19.801  13.659   2.464  0.00  0.00     0.203 C 
HETATM   27  C   UNK N   1      20.676  14.656   3.226  0.00  0.00     0.168 C 
BRANCH  23  28
HETATM   28  C   UNK N   1      20.003  17.614   0.821  0.00  0.00     0.197 C 
BRANCH  28  29
HETATM   29  O   UNK N   1      20.334  17.743  -0.530  0.00  0.00    -0.398 OA
HETATM   30  H   UNK N   1      19.909  17.901  -1.387  0.00  0.00     0.209 HD
ENDBRANCH  28  29
ENDBRANCH  23  28
BRANCH  25  31
HETATM   31  O   UNK N   1      18.886  13.124   0.329  0.00  0.00    -0.369 OA
HETATM   32  H   UNK N   1      19.108  12.651  -0.487  0.00  0.00     0.212 HD
ENDBRANCH  25  31
BRANCH  26  33
HETATM   33  O   UNK N   1      20.224  12.350   2.710  0.00  0.00    -0.388 OA
HETATM   34  H   UNK N   1      21.127  11.996   2.706  0.00  0.00     0.210 HD
ENDBRANCH  26  33
BRANCH  27  35
HETATM   35  O   UNK N   1      22.012  14.463   2.860  0.00  0.00    -0.392 OA
HETATM   36  H   UNK N   1      22.868  14.865   2.644  0.00  0.00     0.210 HD
ENDBRANCH  27  35
ENDBRANCH  21  22
ENDBRANCH  15  21
BRANCH  16  37
HETATM   37  O   UNK N   1      22.441  18.271   6.198  0.00  0.00    -0.389 OA
HETATM   38  H   UNK N   1      21.881  18.568   6.932  0.00  0.00     0.210 HD
ENDBRANCH  16  37
BRANCH  17  39
HETATM   39  O   UNK N   1      24.746  15.847   5.028  0.00  0.00    -0.390 OA
HETATM   40  H   UNK N   1      24.823  15.401   4.170  0.00  0.00     0.210 HD
ENDBRANCH  17  39
ENDBRANCH  11  12
ENDBRANCH   5  11
BRANCH   6  41
HETATM   41  O   UNK N   1      28.085  19.041   7.512  0.00  0.00    -0.388 OA
HETATM   42  H   UNK N   1      27.387  19.369   8.100  0.00  0.00     0.210 HD
ENDBRANCH   6  41
BRANCH   7  43
HETATM   43  O   UNK N   1      30.236  17.549   7.332  0.00  0.00    -0.392 OA
HETATM   44  H   UNK N   1      30.294  17.925   8.224  0.00  0.00     0.210 HD
ENDBRANCH   7  43
ENDBRANCH   1   2
BRANCH   1  45
HETATM   45  C   UNK N   1      31.891  16.385   4.439  0.00  0.00     0.215 C 
HETATM   46  C   UNK N   1      32.049  14.874   4.660  0.00  0.00     0.188 C 
HETATM   47  C   UNK N   1      33.517  14.614   4.763  0.00  0.00     0.181 C 
HETATM   48  C   UNK N   1      34.130  15.462   5.947  0.00  0.00     0.187 C 
HETATM   49  C   UNK N   1      33.780  16.964   5.725  0.00  0.00     0.178 C 
HETATM   50  O   UNK N   1      32.393  17.158   5.510  0.00  0.00    -0.363 OA
BRANCH  46  51
HETATM   51  O   UNK N   1      31.514  14.162   3.578  0.00  0.00    -0.389 OA
HETATM   52  H   UNK N   1      30.720  14.487   3.125  0.00  0.00     0.210 HD
ENDBRANCH  46  51
BRANCH  47  53
HETATM   53  O   UNK N   1      34.039  14.987   3.529  0.00  0.00    -0.390 OA
HETATM   54  H   UNK N   1      34.605  15.609   3.045  0.00  0.00     0.210 HD
ENDBRANCH  47  53
BRANCH  48  55
HETATM   55  O   UNK N   1      35.536  15.319   6.248  0.00  0.00    -0.348 OA
BRANCH  55  56
HETATM   56  C   UNK N   1      35.802  14.777   7.522  0.00  0.00     0.292 C 
HETATM   57  C   UNK N   1      35.355  13.325   7.713  0.00  0.00     0.203 C 
HETATM   58  C   UNK N   1      35.980  12.881   9.069  0.00  0.00     0.168 C 
HETATM   59  C   UNK N   1      35.656  13.884  10.216  0.00  0.00     0.112 C 
HETATM   60  C   UNK N   1      35.781  15.338   9.752  0.00  0.00     0.164 C 
HETATM   61  O   UNK N   1      35.140  15.545   8.513  0.00  0.00    -0.350 OA
BRANCH  57  62
HETATM   62  O   UNK N   1      33.958  13.250   7.742  0.00  0.00    -0.388 OA
HETATM   63  H   UNK N   1      33.198  12.982   7.201  0.00  0.00     0.210 HD
ENDBRANCH  57  62
BRANCH  58  64
HETATM   64  O   UNK N   1      35.567  11.590   9.408  0.00  0.00    -0.392 OA
HETATM   65  H   UNK N   1      34.880  11.149   8.884  0.00  0.00     0.210 HD
ENDBRANCH  58  64
BRANCH  59  66
HETATM   66  S   UNK N   1      36.703  13.667  11.735  0.00  0.00    -0.124 SA
BRANCH  66  67
HETATM   67  C   UNK N   1      35.513  13.754  13.185  0.00  0.00     0.215 C 
HETATM   68  C   UNK N   1      36.249  13.976  14.526  0.00  0.00     0.188 C 
HETATM   69  C   UNK N   1      36.940  12.690  15.004  0.00  0.00     0.181 C 
HETATM   70  C   UNK N   1      35.889  11.580  15.093  0.00  0.00     0.180 C 
HETATM   71  C   UNK N   1      35.186  11.445  13.728  0.00  0.00     0.178 C 
HETATM   72  O   UNK N   1      34.589  12.672  13.314  0.00  0.00    -0.363 OA
BRANCH  68  73
HETATM   73  O   UNK N   1      37.167  15.024  14.422  0.00  0.00    -0.389 OA
HETATM   74  H   UNK N   1      37.230  15.701  15.112  0.00  0.00     0.210 HD
ENDBRANCH  68  73
BRANCH  69  75
HETATM   75  O   UNK N   1      37.956  12.312  14.120  0.00  0.00    -0.390 OA
HETATM   76  H   UNK N   1      38.746  12.246  13.561  0.00  0.00     0.210 HD
ENDBRANCH  69  75
BRANCH  70  77
HETATM   77  O   UNK N   1      34.952  11.893  16.086  0.00  0.00    -0.390 OA
HETATM   78  H   UNK N   1      34.126  11.952  16.590  0.00  0.00     0.210 HD
ENDBRANCH  70  77
BRANCH  71  79
HETATM   79  C   UNK N   1      34.080  10.389  13.809  0.00  0.00     0.198 C 
BRANCH  79  80
HETATM   80  O   UNK N   1      33.026  10.817  14.619  0.00  0.00    -0.398 OA
HETATM   81  H   UNK N   1      32.603  10.398  15.385  0.00  0.00     0.209 HD
ENDBRANCH  79  80
ENDBRANCH  71  79
ENDBRANCH  66  67
ENDBRANCH  59  66
BRANCH  60  82
HETATM   82  C   UNK N   1      35.249  16.347  10.767  0.00  0.00     0.197 C 
BRANCH  82  83
HETATM   83  O   UNK N   1      35.468  17.655  10.333  0.00  0.00    -0.398 OA
HETATM   84  H   UNK N   1      35.675  18.553  10.637  0.00  0.00     0.209 HD
ENDBRANCH  82  83
ENDBRANCH  60  82
ENDBRANCH  55  56
ENDBRANCH  48  55
BRANCH  49  85
HETATM   85  C   UNK N   1      34.120  17.789   6.968  0.00  0.00     0.198 C 
BRANCH  85  86
HETATM   86  O   UNK N   1      33.190  17.602   7.990  0.00  0.00    -0.398 OA
HETATM   87  H   UNK N   1      33.259  18.071   8.837  0.00  0.00     0.209 HD
ENDBRANCH  85  86
ENDBRANCH  49  85
ENDBRANCH   1  45
TORSDOF 36
ENDMDL
