REMARK  20 active torsions:
REMARK  status: ('A' for Active; 'I' for Inactive)
REMARK    1  A    between atoms: C_16  and  C_8 
REMARK    2  A    between atoms: O_49  and  C_8 
REMARK    3  A    between atoms: C_17  and  C_9 
REMARK    4  A    between atoms: O_50  and  C_9 
REMARK    5  A    between atoms: C_13  and  C_12 
REMARK    6  A    between atoms: C_24  and  C_14 
REMARK    7  A    between atoms: C_19  and  O_40 
REMARK    8  A    between atoms: C_20  and  O_41 
REMARK    9  A    between atoms: C_21  and  O_42 
REMARK   10  A    between atoms: C_22  and  O_43 
REMARK   11  A    between atoms: N_28  and  C_23 
REMARK   12  A    between atoms: N_29  and  C_24 
REMARK   13  A    between atoms: O_44  and  C_24 
REMARK   14  A    between atoms: C_26  and  N_37 
REMARK   15  A    between atoms: C_27  and  N_38 
REMARK   16  A    between atoms: P_54  and  O_46 
REMARK   17  A    between atoms: P_54  and  O_49 
REMARK   18  A    between atoms: P_55  and  O_50 
REMARK   19  A    between atoms: P_54  and  O_53 
REMARK   20  A    between atoms: P_55  and  O_53 
ROOT
HETATM    1  O   UNK N   1      -2.302  -2.267  -2.431  0.00  0.00    -0.631 OA
HETATM    2  P   UNK N   1      -3.249  -2.817  -1.332  0.00  0.00     0.402 P 
ENDROOT
BRANCH   2   3
HETATM    3  O   UNK N   1      -4.829  -2.128  -1.527  0.00  0.00    -0.307 OA
HETATM    4  H   UNK N   1      -4.936  -1.170  -1.636  0.00  0.00     0.222 HD
ENDBRANCH   2   3
BRANCH   2   5
HETATM    5  O   UNK N   1      -3.365  -4.512  -1.582  0.00  0.00    -0.294 OA
BRANCH   5   6
HETATM    6  C   UNK N   1      -4.108  -4.911  -0.473  0.00  0.00     0.215 C 
BRANCH   6   7
HETATM    7  C   UNK N   1      -3.969  -6.389  -0.301  0.00  0.00     0.180 C 
HETATM    8  C   UNK N   1      -4.706  -6.951   0.895  0.00  0.00     0.182 C 
HETATM    9  C   UNK N   1      -4.060  -8.331   1.034  0.00  0.00     0.198 C 
HETATM   10  C   UNK N   1      -2.825  -8.152   0.137  0.00  0.00     0.259 C 
HETATM   11  O   UNK N   1      -2.631  -6.775  -0.066  0.00  0.00    -0.353 OA
BRANCH   8  12
HETATM   12  O   UNK N   1      -6.090  -6.999   0.710  0.00  0.00    -0.390 OA
HETATM   13  H   UNK N   1      -6.599  -6.183   0.582  0.00  0.00     0.210 HD
ENDBRANCH   8  12
BRANCH   9  14
HETATM   14  O   UNK N   1      -3.737  -8.576   2.370  0.00  0.00    -0.388 OA
HETATM   15  H   UNK N   1      -3.773  -8.855   3.299  0.00  0.00     0.210 HD
ENDBRANCH   9  14
BRANCH  10  16
HETATM   16  N   UNK N   1      -1.615  -8.931   0.398  0.00  0.00    -0.336 N 
HETATM   17  C   UNK N   1      -0.401  -8.334   0.517  0.00  0.00     0.094 A 
HETATM   18  C   UNK N   1       0.759  -9.060   0.241  0.00  0.00     0.026 A 
HETATM   19  C   UNK N   1       0.692 -10.389  -0.237  0.00  0.00    -0.030 A 
HETATM   20  C   UNK N   1      -0.612 -11.002  -0.295  0.00  0.00     0.037 A 
HETATM   21  C   UNK N   1      -1.709 -10.236   0.067  0.00  0.00     0.109 A 
BRANCH  19  22
HETATM   22  C   UNK N   1       1.993 -11.004  -0.799  0.00  0.00     0.089 C 
HETATM   23  C   UNK N   1       2.110 -12.516  -0.628  0.00  0.00     0.017 C 
HETATM   24  C   UNK N   1       2.696 -12.918   0.694  0.00  0.00     0.001 C 
HETATM   25  C   UNK N   1       4.161 -12.560   0.604  0.00  0.00     0.007 C 
HETATM   26  C   UNK N   1       4.358 -11.051   0.455  0.00  0.00     0.079 C 
HETATM   27  C   UNK N   1       3.278 -10.316  -0.314  0.00  0.00     0.135 C 
HETATM   28  O   UNK N   1       3.442  -9.125  -0.529  0.00  0.00    -0.297 OA
ENDBRANCH  19  22
BRANCH  20  29
HETATM   29  C   UNK N   1      -1.007 -12.341  -0.828  0.00  0.00     0.145 C 
BRANCH  29  30
HETATM   30  N   UNK N   1      -0.257 -13.018  -1.607  0.00  0.00    -0.379 N 
HETATM   31  H   UNK N   1      -0.420 -13.781  -2.208  0.00  0.00     0.158 HD
ATOM     32  HN  UNK N   1       0.714 -12.704  -1.607  1.00  0.00     0.158 HD
ENDBRANCH  29  30
BRANCH  29  33
HETATM   33  O   UNK N   1      -2.258 -12.792  -0.591  0.00  0.00    -0.346 OA
HETATM   34  H   UNK N   1      -2.963 -12.198  -0.426  0.00  0.00     0.219 HD
ENDBRANCH  29  33
ENDBRANCH  20  29
ENDBRANCH  10  16
ENDBRANCH   6   7
ENDBRANCH   5   6
ENDBRANCH   2   5
BRANCH   2  35
HETATM   35  O   UNK N   1      -2.548  -2.584   0.243  0.00  0.00    -0.188 OA
BRANCH  35  36
HETATM   36  P   UNK N   1      -2.795  -0.928   0.704  0.00  0.00     0.417 P 
HETATM   37  O   UNK N   1      -2.439  -0.913   2.215  0.00  0.00    -0.624 OA
HETATM   38  O   UNK N   1      -4.470  -0.474   0.658  0.00  0.00    -0.624 OA
BRANCH  36  39
HETATM   39  O   UNK N   1      -1.710   0.252  -0.018  0.00  0.00    -0.287 OA
BRANCH  39  40
HETATM   40  C   UNK N   1      -0.806  -0.369  -0.910  0.00  0.00     0.216 C 
BRANCH  40  41
HETATM   41  C   UNK N   1       0.202  -1.286  -0.194  0.00  0.00     0.180 C 
HETATM   42  C   UNK N   1       1.386  -1.765  -1.013  0.00  0.00     0.182 C 
HETATM   43  C   UNK N   1       2.418  -0.717  -0.752  0.00  0.00     0.198 C 
HETATM   44  C   UNK N   1       2.003  -0.157   0.617  0.00  0.00     0.262 C 
HETATM   45  O   UNK N   1       0.711  -0.633   0.942  0.00  0.00    -0.353 OA
BRANCH  42  46
HETATM   46  O   UNK N   1       1.104  -1.926  -2.374  0.00  0.00    -0.390 OA
HETATM   47  H   UNK N   1       0.910  -1.812  -3.318  0.00  0.00     0.210 HD
ENDBRANCH  42  46
BRANCH  43  48
HETATM   48  O   UNK N   1       3.704  -1.269  -0.722  0.00  0.00    -0.388 OA
HETATM   49  H   UNK N   1       3.819  -2.232  -0.702  0.00  0.00     0.210 HD
ENDBRANCH  43  48
BRANCH  44  50
HETATM   50  N   UNK N   1       1.998   1.309   0.557  0.00  0.00    -0.297 N 
HETATM   51  C   UNK N   1       0.931   2.141   0.689  0.00  0.00     0.188 A 
HETATM   52  N   UNK N   1       1.294   3.445   0.524  0.00  0.00    -0.346 N 
HETATM   53  C   UNK N   1       2.617   3.392   0.288  0.00  0.00     0.122 A 
ATOM     54  HN  UNK N   1       0.699   4.272   0.570  1.00  0.00     0.167 HD
HETATM   55  C   UNK N   1       3.521   4.412   0.040  0.00  0.00     0.131 A 
HETATM   56  C   UNK N   1       3.038   2.113   0.310  0.00  0.00     0.142 A 
HETATM   57  N   UNK N   1       4.827   4.072  -0.174  0.00  0.00    -0.337 N 
HETATM   58  C   UNK N   1       5.231   2.758  -0.146  0.00  0.00     0.183 A 
ATOM     59  HN  UNK N   1       5.513   4.804  -0.357  1.00  0.00     0.168 HD
HETATM   60  N   UNK N   1       4.326   1.760   0.096  0.00  0.00    -0.336 N 
ATOM     61  HN  UNK N   1       4.613   0.782   0.115  1.00  0.00     0.168 HD
BRANCH  55  62
HETATM   62  N   UNK N   1       3.113   5.761   0.005  0.00  0.00    -0.383 N 
HETATM   63  H   UNK N   1       3.787   6.478  -0.019  0.00  0.00     0.157 HD
HETATM   64  H   UNK N   1       2.155   5.985   0.005  0.00  0.00     0.157 HD
ENDBRANCH  55  62
ENDBRANCH  44  50
ENDBRANCH  40  41
ENDBRANCH  39  40
ENDBRANCH  36  39
ENDBRANCH  35  36
ENDBRANCH   2  35
TORSDOF 20
