MODEL 1
REMARK VINA RESULT:      -5.7      0.000      0.000
REMARK  9 active torsions:
REMARK  status: ('A' for Active; 'I' for Inactive)
REMARK    1  A    between atoms: C_4  and  C_2 
REMARK    2  A    between atoms: O_14  and  C_2 
REMARK    3  A    between atoms: O_15  and  C_3 
REMARK    4  A    between atoms: C_5  and  O_16 
REMARK    5  A    between atoms: C_6  and  O_17 
REMARK    6  A    between atoms: C_7  and  O_18 
REMARK    7  A    between atoms: C_8  and  N_12 
REMARK    8  A    between atoms: N_10  and  C_9 
REMARK    9  A    between atoms: C_9  and  O_19 
ROOT
HETATM    1  C   UNK N   1      29.037  17.227   6.955  0.00  0.00     0.179 C 
HETATM    2  C   UNK N   1      28.535  18.664   7.283  0.00  0.00     0.180 C 
HETATM    3  C   UNK N   1      28.457  18.802   8.800  0.00  0.00     0.182 C 
HETATM    4  C   UNK N   1      29.829  18.483   9.436  0.00  0.00     0.198 C 
HETATM    5  C   UNK N   1      30.832  17.829   8.421  0.00  0.00     0.255 C 
HETATM    6  O   UNK N   1      30.258  16.836   7.586  0.00  0.00    -0.354 OA
ENDROOT
BRANCH   5   7
HETATM    7  N   UNK N   1      31.985  17.288   9.123  0.00  0.00    -0.327 N 
HETATM    8  C   UNK N   1      32.918  16.613   8.531  0.00  0.00     0.220 C 
ATOM      9  HN  UNK N   1      32.062  17.447  10.127  1.00  0.00     0.165 HD
BRANCH   8  10
HETATM   10  N   UNK N   1      33.928  15.995   9.314  0.00  0.00    -0.307 N 
HETATM   11  C   UNK N   1      34.934  16.667   9.771  0.00  0.00     0.114 C 
HETATM   12  C   UNK N   1      35.938  15.991  10.634  0.00  0.00     0.097 C 
ATOM     13  HN  UNK N   1      33.860  14.999   9.521  1.00  0.00     0.171 HD
BRANCH  11  14
HETATM   14  O   UNK N   1      35.122  17.958   9.428  0.00  0.00    -0.350 OA
HETATM   15  H   UNK N   1      35.040  18.322   8.568  0.00  0.00     0.219 HD
ENDBRANCH  11  14
ENDBRANCH   8  10
BRANCH   8  16
HETATM   16  O   UNK N   1      32.917  16.455   7.191  0.00  0.00    -0.332 OA
HETATM   17  H   UNK N   1      32.932  15.978   6.384  0.00  0.00     0.220 HD
ENDBRANCH   8  16
ENDBRANCH   5   7
BRANCH   4  18
HETATM   18  O   UNK N   1      29.636  17.712  10.587  0.00  0.00    -0.389 OA
HETATM   19  H   UNK N   1      30.297  17.189  11.068  0.00  0.00     0.210 HD
ENDBRANCH   4  18
BRANCH   3  20
HETATM   20  O   UNK N   1      27.482  17.913   9.276  0.00  0.00    -0.390 OA
HETATM   21  H   UNK N   1      26.626  17.704   9.681  0.00  0.00     0.210 HD
ENDBRANCH   3  20
BRANCH   1  22
HETATM   22  C   UNK N   1      29.131  17.017   5.444  0.00  0.00     0.198 C 
BRANCH  22  23
HETATM   23  O   UNK N   1      29.360  18.221   4.778  0.00  0.00    -0.398 OA
HETATM   24  H   UNK N   1      29.905  18.771   4.193  0.00  0.00     0.209 HD
ENDBRANCH  22  23
ENDBRANCH   1  22
BRANCH   2  25
HETATM   25  O   UNK N   1      27.273  18.880   6.718  0.00  0.00    -0.390 OA
HETATM   26  H   UNK N   1      26.923  19.737   6.431  0.00  0.00     0.210 HD
ENDBRANCH   2  25
TORSDOF 9
ENDMDL
MODEL 2
REMARK VINA RESULT:      -5.6     11.244     13.361
REMARK  9 active torsions:
REMARK  status: ('A' for Active; 'I' for Inactive)
REMARK    1  A    between atoms: C_4  and  C_2 
REMARK    2  A    between atoms: O_14  and  C_2 
REMARK    3  A    between atoms: O_15  and  C_3 
REMARK    4  A    between atoms: C_5  and  O_16 
REMARK    5  A    between atoms: C_6  and  O_17 
REMARK    6  A    between atoms: C_7  and  O_18 
REMARK    7  A    between atoms: C_8  and  N_12 
REMARK    8  A    between atoms: N_10  and  C_9 
REMARK    9  A    between atoms: C_9  and  O_19 
ROOT
HETATM    1  C   UNK N   1      20.587  19.961   1.908  0.00  0.00     0.179 C 
HETATM    2  C   UNK N   1      21.962  19.843   2.631  0.00  0.00     0.180 C 
HETATM    3  C   UNK N   1      21.759  19.017   3.898  0.00  0.00     0.182 C 
HETATM    4  C   UNK N   1      21.143  17.644   3.546  0.00  0.00     0.198 C 
HETATM    5  C   UNK N   1      20.622  17.571   2.067  0.00  0.00     0.255 C 
HETATM    6  O   UNK N   1      19.920  18.726   1.635  0.00  0.00    -0.354 OA
ENDROOT
BRANCH   5   7
HETATM    7  N   UNK N   1      19.803  16.386   1.874  0.00  0.00    -0.327 N 
HETATM    8  C   UNK N   1      20.200  15.354   1.200  0.00  0.00     0.220 C 
ATOM      9  HN  UNK N   1      18.871  16.366   2.288  1.00  0.00     0.165 HD
BRANCH   8  10
HETATM   10  N   UNK N   1      19.283  14.304   0.935  0.00  0.00    -0.307 N 
HETATM   11  C   UNK N   1      18.262  14.479   0.163  0.00  0.00     0.114 C 
HETATM   12  C   UNK N   1      17.358  13.335  -0.132  0.00  0.00     0.097 C 
ATOM     13  HN  UNK N   1      19.433  13.391   1.362  1.00  0.00     0.171 HD
BRANCH  11  14
HETATM   14  O   UNK N   1      17.964  15.699  -0.332  0.00  0.00    -0.350 OA
HETATM   15  H   UNK N   1      17.106  16.033  -0.508  0.00  0.00     0.219 HD
ENDBRANCH  11  14
ENDBRANCH   8  10
BRANCH   8  16
HETATM   16  O   UNK N   1      21.457  15.286   0.712  0.00  0.00    -0.332 OA
HETATM   17  H   UNK N   1      22.307  15.609   0.486  0.00  0.00     0.220 HD
ENDBRANCH   8  16
ENDBRANCH   5   7
BRANCH   4  18
HETATM   18  O   UNK N   1      20.158  17.325   4.489  0.00  0.00    -0.389 OA
HETATM   19  H   UNK N   1      19.633  16.511   4.544  0.00  0.00     0.210 HD
ENDBRANCH   4  18
BRANCH   3  20
HETATM   20  O   UNK N   1      20.907  19.725   4.758  0.00  0.00    -0.390 OA
HETATM   21  H   UNK N   1      20.570  19.969   5.634  0.00  0.00     0.210 HD
ENDBRANCH   3  20
BRANCH   1  22
HETATM   22  C   UNK N   1      20.717  20.786   0.629  0.00  0.00     0.198 C 
BRANCH  22  23
HETATM   23  O   UNK N   1      20.526  22.145   0.880  0.00  0.00    -0.398 OA
HETATM   24  H   UNK N   1      19.990  22.869   1.241  0.00  0.00     0.209 HD
ENDBRANCH  22  23
ENDBRANCH   1  22
BRANCH   2  25
HETATM   25  O   UNK N   1      22.448  21.112   2.961  0.00  0.00    -0.390 OA
HETATM   26  H   UNK N   1      21.946  21.939   2.910  0.00  0.00     0.210 HD
ENDBRANCH   2  25
TORSDOF 9
ENDMDL
MODEL 3
REMARK VINA RESULT:      -5.6      9.932     11.264
REMARK  9 active torsions:
REMARK  status: ('A' for Active; 'I' for Inactive)
REMARK    1  A    between atoms: C_4  and  C_2 
REMARK    2  A    between atoms: O_14  and  C_2 
REMARK    3  A    between atoms: O_15  and  C_3 
REMARK    4  A    between atoms: C_5  and  O_16 
REMARK    5  A    between atoms: C_6  and  O_17 
REMARK    6  A    between atoms: C_7  and  O_18 
REMARK    7  A    between atoms: C_8  and  N_12 
REMARK    8  A    between atoms: N_10  and  C_9 
REMARK    9  A    between atoms: C_9  and  O_19 
ROOT
HETATM    1  C   UNK N   1      22.475  19.700   2.918  0.00  0.00     0.179 C 
HETATM    2  C   UNK N   1      21.189  20.561   2.745  0.00  0.00     0.180 C 
HETATM    3  C   UNK N   1      20.023  19.617   2.471  0.00  0.00     0.182 C 
HETATM    4  C   UNK N   1      19.902  18.574   3.606  0.00  0.00     0.198 C 
HETATM    5  C   UNK N   1      21.149  18.566   4.559  0.00  0.00     0.255 C 
HETATM    6  O   UNK N   1      22.399  18.655   3.891  0.00  0.00    -0.354 OA
ENDROOT
BRANCH   5   7
HETATM    7  N   UNK N   1      21.125  17.393   5.418  0.00  0.00    -0.327 N 
HETATM    8  C   UNK N   1      21.111  17.465   6.711  0.00  0.00     0.220 C 
ATOM      9  HN  UNK N   1      21.119  16.471   4.982  1.00  0.00     0.165 HD
BRANCH   8  10
HETATM   10  N   UNK N   1      21.238  16.274   7.472  0.00  0.00    -0.307 N 
HETATM   11  C   UNK N   1      20.471  16.036   8.485  0.00  0.00     0.114 C 
HETATM   12  C   UNK N   1      20.601  14.749   9.220  0.00  0.00     0.097 C 
ATOM     13  HN  UNK N   1      21.949  15.591   7.216  1.00  0.00     0.171 HD
BRANCH  11  14
HETATM   14  O   UNK N   1      19.593  16.961   8.926  0.00  0.00    -0.350 OA
HETATM   15  H   UNK N   1      19.161  17.610   8.406  0.00  0.00     0.219 HD
ENDBRANCH  11  14
ENDBRANCH   8  10
BRANCH   8  16
HETATM   16  O   UNK N   1      21.021  18.657   7.339  0.00  0.00    -0.332 OA
HETATM   17  H   UNK N   1      20.586  19.398   7.712  0.00  0.00     0.220 HD
ENDBRANCH   8  16
ENDBRANCH   5   7
BRANCH   4  18
HETATM   18  O   UNK N   1      19.629  17.319   3.051  0.00  0.00    -0.389 OA
HETATM   19  H   UNK N   1      19.130  17.125   2.243  0.00  0.00     0.210 HD
ENDBRANCH   4  18
BRANCH   3  20
HETATM   20  O   UNK N   1      20.250  18.976   1.245  0.00  0.00    -0.390 OA
HETATM   21  H   UNK N   1      20.823  18.619   0.549  0.00  0.00     0.210 HD
ENDBRANCH   3  20
BRANCH   1  22
HETATM   22  C   UNK N   1      23.689  20.587   3.189  0.00  0.00     0.198 C 
BRANCH  22  23
HETATM   23  O   UNK N   1      24.372  20.887   2.010  0.00  0.00    -0.398 OA
HETATM   24  H   UNK N   1      24.379  21.231   1.103  0.00  0.00     0.209 HD
ENDBRANCH  22  23
ENDBRANCH   1  22
BRANCH   2  25
HETATM   25  O   UNK N   1      21.341  21.455   1.680  0.00  0.00    -0.390 OA
HETATM   26  H   UNK N   1      20.636  21.997   1.294  0.00  0.00     0.210 HD
ENDBRANCH   2  25
TORSDOF 9
ENDMDL
MODEL 4
REMARK VINA RESULT:      -5.5      4.716      8.836
REMARK  9 active torsions:
REMARK  status: ('A' for Active; 'I' for Inactive)
REMARK    1  A    between atoms: C_4  and  C_2 
REMARK    2  A    between atoms: O_14  and  C_2 
REMARK    3  A    between atoms: O_15  and  C_3 
REMARK    4  A    between atoms: C_5  and  O_16 
REMARK    5  A    between atoms: C_6  and  O_17 
REMARK    6  A    between atoms: C_7  and  O_18 
REMARK    7  A    between atoms: C_8  and  N_12 
REMARK    8  A    between atoms: N_10  and  C_9 
REMARK    9  A    between atoms: C_9  and  O_19 
ROOT
HETATM    1  C   UNK N   1      35.685  13.110  14.308  0.00  0.00     0.179 C 
HETATM    2  C   UNK N   1      36.671  12.117  13.626  0.00  0.00     0.180 C 
HETATM    3  C   UNK N   1      35.987  11.548  12.387  0.00  0.00     0.182 C 
HETATM    4  C   UNK N   1      35.543  12.695  11.449  0.00  0.00     0.198 C 
HETATM    5  C   UNK N   1      35.635  14.106  12.129  0.00  0.00     0.255 C 
HETATM    6  O   UNK N   1      35.165  14.144  13.468  0.00  0.00    -0.354 OA
ENDROOT
BRANCH   5   7
HETATM    7  N   UNK N   1      34.944  15.103  11.328  0.00  0.00    -0.327 N 
HETATM    8  C   UNK N   1      35.544  16.118  10.792  0.00  0.00     0.220 C 
ATOM      9  HN  UNK N   1      33.941  14.998  11.181  1.00  0.00     0.165 HD
BRANCH   8  10
HETATM   10  N   UNK N   1      34.770  17.121  10.152  0.00  0.00    -0.307 N 
HETATM   11  C   UNK N   1      34.306  16.955   8.957  0.00  0.00     0.114 C 
HETATM   12  C   UNK N   1      33.452  18.009   8.347  0.00  0.00     0.097 C 
ATOM     13  HN  UNK N   1      34.576  17.992  10.645  1.00  0.00     0.171 HD
BRANCH  11  14
HETATM   14  O   UNK N   1      34.632  15.867   8.228  0.00  0.00    -0.350 OA
HETATM   15  H   UNK N   1      34.911  15.861   7.333  0.00  0.00     0.219 HD
ENDBRANCH  11  14
ENDBRANCH   8  10
BRANCH   8  16
HETATM   16  O   UNK N   1      36.885  16.254  10.873  0.00  0.00    -0.332 OA
HETATM   17  H   UNK N   1      37.777  15.970  10.857  0.00  0.00     0.220 HD
ENDBRANCH   8  16
ENDBRANCH   5   7
BRANCH   4  18
HETATM   18  O   UNK N   1      34.268  12.412  10.947  0.00  0.00    -0.389 OA
HETATM   19  H   UNK N   1      33.421  12.467  11.416  0.00  0.00     0.210 HD
ENDBRANCH   4  18
BRANCH   3  20
HETATM   20  O   UNK N   1      34.875  10.799  12.798  0.00  0.00    -0.390 OA
HETATM   21  H   UNK N   1      34.082  10.654  13.336  0.00  0.00     0.210 HD
ENDBRANCH   3  20
BRANCH   1  22
HETATM   22  C   UNK N   1      36.306  13.714  15.566  0.00  0.00     0.198 C 
BRANCH  22  23
HETATM   23  O   UNK N   1      37.644  14.050  15.361  0.00  0.00    -0.398 OA
HETATM   24  H   UNK N   1      38.448  14.519  15.635  0.00  0.00     0.209 HD
ENDBRANCH  22  23
ENDBRANCH   1  22
BRANCH   2  25
HETATM   25  O   UNK N   1      37.003  11.081  14.506  0.00  0.00    -0.390 OA
HETATM   26  H   UNK N   1      36.909  10.133  14.322  0.00  0.00     0.210 HD
ENDBRANCH   2  25
TORSDOF 9
ENDMDL
MODEL 5
REMARK VINA RESULT:      -5.5      7.811     10.170
REMARK  9 active torsions:
REMARK  status: ('A' for Active; 'I' for Inactive)
REMARK    1  A    between atoms: C_4  and  C_2 
REMARK    2  A    between atoms: O_14  and  C_2 
REMARK    3  A    between atoms: O_15  and  C_3 
REMARK    4  A    between atoms: C_5  and  O_16 
REMARK    5  A    between atoms: C_6  and  O_17 
REMARK    6  A    between atoms: C_7  and  O_18 
REMARK    7  A    between atoms: C_8  and  N_12 
REMARK    8  A    between atoms: N_10  and  C_9 
REMARK    9  A    between atoms: C_9  and  O_19 
ROOT
HETATM    1  C   UNK N   1      20.720  19.536   1.840  0.00  0.00     0.179 C 
HETATM    2  C   UNK N   1      19.709  19.100   2.942  0.00  0.00     0.180 C 
HETATM    3  C   UNK N   1      20.176  17.764   3.509  0.00  0.00     0.182 C 
HETATM    4  C   UNK N   1      21.625  17.885   4.034  0.00  0.00     0.198 C 
HETATM    5  C   UNK N   1      22.324  19.218   3.591  0.00  0.00     0.255 C 
HETATM    6  O   UNK N   1      22.092  19.580   2.238  0.00  0.00    -0.354 OA
ENDROOT
BRANCH   5   7
HETATM    7  N   UNK N   1      23.752  19.157   3.854  0.00  0.00    -0.327 N 
HETATM    8  C   UNK N   1      24.582  20.070   3.462  0.00  0.00     0.220 C 
ATOM      9  HN  UNK N   1      24.117  18.359   4.373  1.00  0.00     0.165 HD
BRANCH   8  10
HETATM   10  N   UNK N   1      25.975  19.858   3.631  0.00  0.00    -0.307 N 
HETATM   11  C   UNK N   1      26.501  19.731   4.805  0.00  0.00     0.114 C 
HETATM   12  C   UNK N   1      27.956  19.453   4.933  0.00  0.00     0.097 C 
ATOM     13  HN  UNK N   1      26.576  19.804   2.809  1.00  0.00     0.171 HD
BRANCH  11  14
HETATM   14  O   UNK N   1      25.763  19.907   5.921  0.00  0.00    -0.350 OA
HETATM   15  H   UNK N   1      24.930  20.335   5.975  0.00  0.00     0.219 HD
ENDBRANCH  11  14
ENDBRANCH   8  10
BRANCH   8  16
HETATM   16  O   UNK N   1      24.143  21.194   2.857  0.00  0.00    -0.332 OA
HETATM   17  H   UNK N   1      24.205  22.066   2.521  0.00  0.00     0.220 HD
ENDBRANCH   8  16
ENDBRANCH   5   7
BRANCH   4  18
HETATM   18  O   UNK N   1      22.346  16.742   3.668  0.00  0.00    -0.389 OA
HETATM   19  H   UNK N   1      22.579  15.985   4.227  0.00  0.00     0.210 HD
ENDBRANCH   4  18
BRANCH   3  20
HETATM   20  O   UNK N   1      20.108  16.801   2.491  0.00  0.00    -0.390 OA
HETATM   21  H   UNK N   1      20.384  15.978   2.059  0.00  0.00     0.210 HD
ENDBRANCH   3  20
BRANCH   1  22
HETATM   22  C   UNK N   1      20.306  20.870   1.221  0.00  0.00     0.198 C 
BRANCH  22  23
HETATM   23  O   UNK N   1      20.717  20.962  -0.109  0.00  0.00    -0.398 OA
HETATM   24  H   UNK N   1      20.645  20.683  -1.035  0.00  0.00     0.209 HD
ENDBRANCH  22  23
ENDBRANCH   1  22
BRANCH   2  25
HETATM   25  O   UNK N   1      18.426  18.967   2.399  0.00  0.00    -0.390 OA
HETATM   26  H   UNK N   1      18.218  18.900   1.455  0.00  0.00     0.210 HD
ENDBRANCH   2  25
TORSDOF 9
ENDMDL
MODEL 6
REMARK VINA RESULT:      -5.3      4.426      6.008
REMARK  9 active torsions:
REMARK  status: ('A' for Active; 'I' for Inactive)
REMARK    1  A    between atoms: C_4  and  C_2 
REMARK    2  A    between atoms: O_14  and  C_2 
REMARK    3  A    between atoms: O_15  and  C_3 
REMARK    4  A    between atoms: C_5  and  O_16 
REMARK    5  A    between atoms: C_6  and  O_17 
REMARK    6  A    between atoms: C_7  and  O_18 
REMARK    7  A    between atoms: C_8  and  N_12 
REMARK    8  A    between atoms: N_10  and  C_9 
REMARK    9  A    between atoms: C_9  and  O_19 
ROOT
HETATM    1  C   UNK N   1      34.753  17.029   8.229  0.00  0.00     0.179 C 
HETATM    2  C   UNK N   1      33.746  16.064   7.535  0.00  0.00     0.180 C 
HETATM    3  C   UNK N   1      34.230  14.635   7.760  0.00  0.00     0.182 C 
HETATM    4  C   UNK N   1      34.385  14.357   9.273  0.00  0.00     0.198 C 
HETATM    5  C   UNK N   1      34.300  15.660  10.143  0.00  0.00     0.255 C 
HETATM    6  O   UNK N   1      35.011  16.768   9.611  0.00  0.00    -0.354 OA
ENDROOT
BRANCH   5   7
HETATM    7  N   UNK N   1      34.736  15.393  11.503  0.00  0.00    -0.327 N 
HETATM    8  C   UNK N   1      35.973  15.481  11.879  0.00  0.00     0.220 C 
ATOM      9  HN  UNK N   1      34.036  15.125  12.195  1.00  0.00     0.165 HD
BRANCH   8  10
HETATM   10  N   UNK N   1      36.331  15.059  13.186  0.00  0.00    -0.307 N 
HETATM   11  C   UNK N   1      36.359  13.808  13.507  0.00  0.00     0.114 C 
HETATM   12  C   UNK N   1      36.796  13.408  14.871  0.00  0.00     0.097 C 
ATOM     13  HN  UNK N   1      36.574  15.758  13.887  1.00  0.00     0.171 HD
BRANCH  11  14
HETATM   14  O   UNK N   1      35.939  12.858  12.645  0.00  0.00    -0.350 OA
HETATM   15  H   UNK N   1      35.539  13.003  11.810  0.00  0.00     0.219 HD
ENDBRANCH  11  14
ENDBRANCH   8  10
BRANCH   8  16
HETATM   16  O   UNK N   1      36.926  15.924  11.031  0.00  0.00    -0.332 OA
HETATM   17  H   UNK N   1      37.424  15.946  10.239  0.00  0.00     0.220 HD
ENDBRANCH   8  16
ENDBRANCH   5   7
BRANCH   4  18
HETATM   18  O   UNK N   1      35.562  13.631   9.490  0.00  0.00    -0.389 OA
HETATM   19  H   UNK N   1      35.730  12.699   9.277  0.00  0.00     0.210 HD
ENDBRANCH   4  18
BRANCH   3  20
HETATM   20  O   UNK N   1      35.462  14.476   7.108  0.00  0.00    -0.390 OA
HETATM   21  H   UNK N   1      36.100  13.976   6.576  0.00  0.00     0.210 HD
ENDBRANCH   3  20
BRANCH   1  22
HETATM   22  C   UNK N   1      34.331  18.484   8.035  0.00  0.00     0.198 C 
BRANCH  22  23
HETATM   23  O   UNK N   1      35.300  19.362   8.520  0.00  0.00    -0.398 OA
HETATM   24  H   UNK N   1      36.229  19.623   8.617  0.00  0.00     0.209 HD
ENDBRANCH  22  23
ENDBRANCH   1  22
BRANCH   2  25
HETATM   25  O   UNK N   1      33.680  16.335   6.164  0.00  0.00    -0.390 OA
HETATM   26  H   UNK N   1      33.708  15.673   5.456  0.00  0.00     0.210 HD
ENDBRANCH   2  25
TORSDOF 9
ENDMDL
MODEL 7
REMARK VINA RESULT:      -5.2      2.904      6.950
REMARK  9 active torsions:
REMARK  status: ('A' for Active; 'I' for Inactive)
REMARK    1  A    between atoms: C_4  and  C_2 
REMARK    2  A    between atoms: O_14  and  C_2 
REMARK    3  A    between atoms: O_15  and  C_3 
REMARK    4  A    between atoms: C_5  and  O_16 
REMARK    5  A    between atoms: C_6  and  O_17 
REMARK    6  A    between atoms: C_7  and  O_18 
REMARK    7  A    between atoms: C_8  and  N_12 
REMARK    8  A    between atoms: N_10  and  C_9 
REMARK    9  A    between atoms: C_9  and  O_19 
ROOT
HETATM    1  C   UNK N   1      34.799  14.736  11.073  0.00  0.00     0.179 C 
HETATM    2  C   UNK N   1      35.571  13.792  10.105  0.00  0.00     0.180 C 
HETATM    3  C   UNK N   1      34.595  12.733   9.600  0.00  0.00     0.182 C 
HETATM    4  C   UNK N   1      33.372  13.408   8.938  0.00  0.00     0.198 C 
HETATM    5  C   UNK N   1      33.305  14.952   9.213  0.00  0.00     0.255 C 
HETATM    6  O   UNK N   1      33.605  15.322  10.550  0.00  0.00    -0.354 OA
ENDROOT
BRANCH   5   7
HETATM    7  N   UNK N   1      32.009  15.482   8.825  0.00  0.00    -0.327 N 
HETATM    8  C   UNK N   1      31.760  16.750   8.744  0.00  0.00     0.220 C 
ATOM      9  HN  UNK N   1      31.260  14.826   8.607  1.00  0.00     0.165 HD
BRANCH   8  10
HETATM   10  N   UNK N   1      30.430  17.182   8.504  0.00  0.00    -0.307 N 
HETATM   11  C   UNK N   1      29.554  17.228   9.453  0.00  0.00     0.114 C 
HETATM   12  C   UNK N   1      28.187  17.741   9.168  0.00  0.00     0.097 C 
ATOM     13  HN  UNK N   1      30.158  17.463   7.562  1.00  0.00     0.171 HD
BRANCH  11  14
HETATM   14  O   UNK N   1      29.839  16.760  10.686  0.00  0.00    -0.350 OA
HETATM   15  H   UNK N   1      29.382  16.968  11.479  0.00  0.00     0.219 HD
ENDBRANCH  11  14
ENDBRANCH   8  10
BRANCH   8  16
HETATM   16  O   UNK N   1      32.739  17.663   8.927  0.00  0.00    -0.332 OA
HETATM   17  H   UNK N   1      33.161  18.398   9.325  0.00  0.00     0.220 HD
ENDBRANCH   8  16
ENDBRANCH   5   7
BRANCH   4  18
HETATM   18  O   UNK N   1      32.208  12.733   9.323  0.00  0.00    -0.389 OA
HETATM   19  H   UNK N   1      32.093  11.779   9.455  0.00  0.00     0.210 HD
ENDBRANCH   4  18
BRANCH   3  20
HETATM   20  O   UNK N   1      34.186  11.951  10.691  0.00  0.00    -0.390 OA
HETATM   21  H   UNK N   1      33.838  11.834  11.588  0.00  0.00     0.210 HD
ENDBRANCH   3  20
BRANCH   1  22
HETATM   22  C   UNK N   1      35.723  15.821  11.624  0.00  0.00     0.198 C 
BRANCH  22  23
HETATM   23  O   UNK N   1      36.818  16.029  10.785  0.00  0.00    -0.398 OA
HETATM   24  H   UNK N   1      37.502  15.685  10.189  0.00  0.00     0.209 HD
ENDBRANCH  22  23
ENDBRANCH   1  22
BRANCH   2  25
HETATM   25  O   UNK N   1      36.638  13.179  10.770  0.00  0.00    -0.390 OA
HETATM   26  H   UNK N   1      36.592  12.762  11.644  0.00  0.00     0.210 HD
ENDBRANCH   2  25
TORSDOF 9
ENDMDL
MODEL 8
REMARK VINA RESULT:      -5.2      3.177      7.336
REMARK  9 active torsions:
REMARK  status: ('A' for Active; 'I' for Inactive)
REMARK    1  A    between atoms: C_4  and  C_2 
REMARK    2  A    between atoms: O_14  and  C_2 
REMARK    3  A    between atoms: O_15  and  C_3 
REMARK    4  A    between atoms: C_5  and  O_16 
REMARK    5  A    between atoms: C_6  and  O_17 
REMARK    6  A    between atoms: C_7  and  O_18 
REMARK    7  A    between atoms: C_8  and  N_12 
REMARK    8  A    between atoms: N_10  and  C_9 
REMARK    9  A    between atoms: C_9  and  O_19 
ROOT
HETATM    1  C   UNK N   1      35.538  13.726  11.270  0.00  0.00     0.179 C 
HETATM    2  C   UNK N   1      35.531  14.965  12.213  0.00  0.00     0.180 C 
HETATM    3  C   UNK N   1      35.829  16.202  11.372  0.00  0.00     0.182 C 
HETATM    4  C   UNK N   1      34.809  16.319  10.216  0.00  0.00     0.198 C 
HETATM    5  C   UNK N   1      33.947  15.020  10.032  0.00  0.00     0.255 C 
HETATM    6  O   UNK N   1      34.682  13.810  10.128  0.00  0.00    -0.354 OA
ENDROOT
BRANCH   5   7
HETATM    7  N   UNK N   1      33.221  15.066   8.774  0.00  0.00    -0.327 N 
HETATM    8  C   UNK N   1      32.493  14.085   8.342  0.00  0.00     0.220 C 
ATOM      9  HN  UNK N   1      33.286  15.909   8.204  1.00  0.00     0.165 HD
BRANCH   8  10
HETATM   10  N   UNK N   1      31.940  14.155   7.037  0.00  0.00    -0.307 N 
HETATM   11  C   UNK N   1      31.287  15.195   6.635  0.00  0.00     0.114 C 
HETATM   12  C   UNK N   1      30.773  15.248   5.240  0.00  0.00     0.097 C 
ATOM     13  HN  UNK N   1      32.061  13.367   6.401  1.00  0.00     0.171 HD
BRANCH  11  14
HETATM   14  O   UNK N   1      31.007  16.210   7.480  0.00  0.00    -0.350 OA
HETATM   15  H   UNK N   1      31.623  16.674   8.013  0.00  0.00     0.219 HD
ENDBRANCH  11  14
ENDBRANCH   8  10
BRANCH   8  16
HETATM   16  O   UNK N   1      32.293  12.985   9.098  0.00  0.00    -0.332 OA
HETATM   17  H   UNK N   1      32.523  12.178   9.514  0.00  0.00     0.220 HD
ENDBRANCH   8  16
ENDBRANCH   5   7
BRANCH   4  18
HETATM   18  O   UNK N   1      35.478  16.701   9.047  0.00  0.00    -0.389 OA
HETATM   19  H   UNK N   1      35.197  16.556   8.130  0.00  0.00     0.210 HD
ENDBRANCH   4  18
BRANCH   3  20
HETATM   20  O   UNK N   1      37.131  16.088  10.861  0.00  0.00    -0.390 OA
HETATM   21  H   UNK N   1      37.820  15.645  10.343  0.00  0.00     0.210 HD
ENDBRANCH   3  20
BRANCH   1  22
HETATM   22  C   UNK N   1      35.253  12.446  12.053  0.00  0.00     0.198 C 
BRANCH  22  23
HETATM   23  O   UNK N   1      34.404  12.690  13.132  0.00  0.00    -0.398 OA
HETATM   24  H   UNK N   1      34.120  13.248  13.873  0.00  0.00     0.209 HD
ENDBRANCH  22  23
ENDBRANCH   1  22
BRANCH   2  25
HETATM   25  O   UNK N   1      36.501  14.822  13.211  0.00  0.00    -0.390 OA
HETATM   26  H   UNK N   1      36.825  15.530  13.789  0.00  0.00     0.210 HD
ENDBRANCH   2  25
TORSDOF 9
ENDMDL
MODEL 9
REMARK VINA RESULT:      -5.2      1.412      2.954
REMARK  9 active torsions:
REMARK  status: ('A' for Active; 'I' for Inactive)
REMARK    1  A    between atoms: C_4  and  C_2 
REMARK    2  A    between atoms: O_14  and  C_2 
REMARK    3  A    between atoms: O_15  and  C_3 
REMARK    4  A    between atoms: C_5  and  O_16 
REMARK    5  A    between atoms: C_6  and  O_17 
REMARK    6  A    between atoms: C_7  and  O_18 
REMARK    7  A    between atoms: C_8  and  N_12 
REMARK    8  A    between atoms: N_10  and  C_9 
REMARK    9  A    between atoms: C_9  and  O_19 
ROOT
HETATM    1  C   UNK N   1      29.421  18.083   8.015  0.00  0.00     0.179 C 
HETATM    2  C   UNK N   1      28.505  17.237   7.083  0.00  0.00     0.180 C 
HETATM    3  C   UNK N   1      29.329  16.809   5.873  0.00  0.00     0.182 C 
HETATM    4  C   UNK N   1      30.593  16.046   6.331  0.00  0.00     0.198 C 
HETATM    5  C   UNK N   1      30.850  16.165   7.875  0.00  0.00     0.255 C 
HETATM    6  O   UNK N   1      30.652  17.468   8.403  0.00  0.00    -0.354 OA
ENDROOT
BRANCH   5   7
HETATM    7  N   UNK N   1      32.182  15.687   8.207  0.00  0.00    -0.327 N 
HETATM    8  C   UNK N   1      32.514  15.291   9.394  0.00  0.00     0.220 C 
ATOM      9  HN  UNK N   1      32.887  15.662   7.471  1.00  0.00     0.165 HD
BRANCH   8  10
HETATM   10  N   UNK N   1      33.872  14.982   9.667  0.00  0.00    -0.307 N 
HETATM   11  C   UNK N   1      34.719  15.899  10.001  0.00  0.00     0.114 C 
HETATM   12  C   UNK N   1      36.118  15.522  10.334  0.00  0.00     0.097 C 
ATOM     13  HN  UNK N   1      34.187  14.015   9.599  1.00  0.00     0.171 HD
BRANCH  11  14
HETATM   14  O   UNK N   1      34.371  17.203   9.995  0.00  0.00    -0.350 OA
HETATM   15  H   UNK N   1      34.924  17.927  10.218  0.00  0.00     0.219 HD
ENDBRANCH  11  14
ENDBRANCH   8  10
BRANCH   8  16
HETATM   16  O   UNK N   1      31.596  15.212  10.382  0.00  0.00    -0.332 OA
HETATM   17  H   UNK N   1      30.739  15.129  10.750  0.00  0.00     0.220 HD
ENDBRANCH   8  16
ENDBRANCH   5   7
BRANCH   4  18
HETATM   18  O   UNK N   1      31.686  16.459   5.561  0.00  0.00    -0.389 OA
HETATM   19  H   UNK N   1      32.589  16.105   5.578  0.00  0.00     0.210 HD
ENDBRANCH   4  18
BRANCH   3  20
HETATM   20  O   UNK N   1      29.690  17.958   5.154  0.00  0.00    -0.390 OA
HETATM   21  H   UNK N   1      29.698  18.915   5.001  0.00  0.00     0.210 HD
ENDBRANCH   3  20
BRANCH   1  22
HETATM   22  C   UNK N   1      28.654  18.553   9.250  0.00  0.00     0.198 C 
BRANCH  22  23
HETATM   23  O   UNK N   1      27.466  17.839   9.411  0.00  0.00    -0.398 OA
HETATM   24  H   UNK N   1      26.937  17.178   9.885  0.00  0.00     0.209 HD
ENDBRANCH  22  23
ENDBRANCH   1  22
BRANCH   2  25
HETATM   25  O   UNK N   1      27.403  17.992   6.668  0.00  0.00    -0.390 OA
HETATM   26  H   UNK N   1      26.500  17.909   7.012  0.00  0.00     0.210 HD
ENDBRANCH   2  25
TORSDOF 9
ENDMDL
