MODEL 1
REMARK VINA RESULT:      -6.9      0.000      0.000
REMARK  6 active torsions:
REMARK  status: ('A' for Active; 'I' for Inactive)
REMARK    1  A    between atoms: C_9  and  C_5 
REMARK    2  A    between atoms: O_18  and  C_5 
REMARK    3  A    between atoms: C_10  and  O_19 
REMARK    4  A    between atoms: C_11  and  O_20 
REMARK    5  A    between atoms: C_12  and  O_21 
REMARK    6  A    between atoms: C_13  and  C_14 
ROOT
HETATM    1  C   UNK N   1      34.859  13.763   8.819  0.00  0.00     0.177 C 
HETATM    2  C   UNK N   1      34.881  15.315   8.590  0.00  0.00     0.180 C 
HETATM    3  C   UNK N   1      34.972  16.157   9.878  0.00  0.00     0.181 C 
HETATM    4  C   UNK N   1      34.646  15.337  11.106  0.00  0.00     0.185 C 
HETATM    5  C   UNK N   1      35.598  14.120  11.115  0.00  0.00     0.221 C 
HETATM    6  O   UNK N   1      35.516  13.262   9.980  0.00  0.00    -0.365 OA
ENDROOT
BRANCH   5   7
HETATM    7  C   UNK N   1      35.366  13.351  12.384  0.00  0.00     0.114 A 
HETATM    8  N   UNK N   1      34.563  12.257  12.492  0.00  0.00    -0.342 N 
HETATM    9  C   UNK N   1      34.628  11.945  13.795  0.00  0.00     0.060 A 
ATOM     10  HN  UNK N   1      34.035  11.788  11.755  1.00  0.00     0.167 HD
HETATM   11  C   UNK N   1      33.977  10.913  14.469  0.00  0.00     0.032 A 
HETATM   12  C   UNK N   1      35.452  12.814  14.439  0.00  0.00     0.061 A 
HETATM   13  C   UNK N   1      34.207  10.797  15.854  0.00  0.00     0.009 A 
HETATM   14  C   UNK N   1      35.073  11.700  16.519  0.00  0.00    -0.060 A 
HETATM   15  C   UNK N   1      35.312  11.562  17.978  0.00  0.00     0.048 C 
HETATM   16  C   UNK N   1      35.709  12.730  15.801  0.00  0.00     0.038 A 
HETATM   17  N   UNK N   1      35.925  13.713  13.567  0.00  0.00    -0.342 N 
HETATM   18  H   UNK N   1      36.537  14.464  13.743  0.00  0.00     0.167 HD
ENDBRANCH   5   7
BRANCH   4  19
HETATM   19  O   UNK N   1      33.305  14.937  11.106  0.00  0.00    -0.390 OA
HETATM   20  H   UNK N   1      32.451  14.479  11.139  0.00  0.00     0.210 HD
ENDBRANCH   4  19
BRANCH   3  21
HETATM   21  O   UNK N   1      34.188  17.314   9.812  0.00  0.00    -0.390 OA
HETATM   22  H   UNK N   1      33.297  17.457  10.169  0.00  0.00     0.210 HD
ENDBRANCH   3  21
BRANCH   1  23
HETATM   23  C   UNK N   1      33.458  13.145   8.764  0.00  0.00     0.198 C 
BRANCH  23  24
HETATM   24  O   UNK N   1      33.324  12.155   9.745  0.00  0.00    -0.398 OA
HETATM   25  H   UNK N   1      32.787  12.276  10.543  0.00  0.00     0.209 HD
ENDBRANCH  23  24
ENDBRANCH   1  23
BRANCH   2  26
HETATM   26  O   UNK N   1      33.787  15.706   7.807  0.00  0.00    -0.390 OA
HETATM   27  H   UNK N   1      32.842  15.912   7.880  0.00  0.00     0.210 HD
ENDBRANCH   2  26
TORSDOF 6
ENDMDL
MODEL 2
REMARK VINA RESULT:      -6.5      4.140      7.603
REMARK  6 active torsions:
REMARK  status: ('A' for Active; 'I' for Inactive)
REMARK    1  A    between atoms: C_9  and  C_5 
REMARK    2  A    between atoms: O_18  and  C_5 
REMARK    3  A    between atoms: C_10  and  O_19 
REMARK    4  A    between atoms: C_11  and  O_20 
REMARK    5  A    between atoms: C_12  and  O_21 
REMARK    6  A    between atoms: C_13  and  C_14 
ROOT
HETATM    1  C   UNK N   1      35.919  15.324   9.748  0.00  0.00     0.177 C 
HETATM    2  C   UNK N   1      35.936  13.810  10.159  0.00  0.00     0.180 C 
HETATM    3  C   UNK N   1      34.585  13.084  10.007  0.00  0.00     0.181 C 
HETATM    4  C   UNK N   1      33.440  14.060   9.852  0.00  0.00     0.185 C 
HETATM    5  C   UNK N   1      33.771  14.973   8.649  0.00  0.00     0.221 C 
HETATM    6  O   UNK N   1      34.978  15.724   8.756  0.00  0.00    -0.365 OA
ENDROOT
BRANCH   5   7
HETATM    7  C   UNK N   1      32.597  15.877   8.408  0.00  0.00     0.114 A 
HETATM    8  N   UNK N   1      32.246  16.921   9.209  0.00  0.00    -0.342 N 
HETATM    9  C   UNK N   1      31.131  17.398   8.635  0.00  0.00     0.060 A 
ATOM     10  HN  UNK N   1      32.719  17.258  10.048  1.00  0.00     0.167 HD
HETATM   11  C   UNK N   1      30.332  18.460   9.053  0.00  0.00     0.032 A 
HETATM   12  C   UNK N   1      30.835  16.673   7.524  0.00  0.00     0.061 A 
HETATM   13  C   UNK N   1      29.198  18.764   8.274  0.00  0.00     0.009 A 
HETATM   14  C   UNK N   1      28.899  18.011   7.112  0.00  0.00    -0.060 A 
HETATM   15  C   UNK N   1      27.704  18.346   6.295  0.00  0.00     0.048 C 
HETATM   16  C   UNK N   1      29.731  16.943   6.727  0.00  0.00     0.038 A 
HETATM   17  N   UNK N   1      31.746  15.704   7.365  0.00  0.00    -0.342 N 
HETATM   18  H   UNK N   1      31.789  15.024   6.656  0.00  0.00     0.167 HD
ENDBRANCH   5   7
BRANCH   4  19
HETATM   19  O   UNK N   1      33.248  14.805  11.020  0.00  0.00    -0.390 OA
HETATM   20  H   UNK N   1      33.143  15.478  11.710  0.00  0.00     0.210 HD
ENDBRANCH   4  19
BRANCH   3  21
HETATM   21  O   UNK N   1      34.347  12.180  11.048  0.00  0.00    -0.390 OA
HETATM   22  H   UNK N   1      34.931  11.480  11.380  0.00  0.00     0.210 HD
ENDBRANCH   3  21
BRANCH   1  23
HETATM   23  C   UNK N   1      35.799  16.290  10.931  0.00  0.00     0.198 C 
BRANCH  23  24
HETATM   24  O   UNK N   1      34.935  17.344  10.613  0.00  0.00    -0.398 OA
HETATM   25  H   UNK N   1      35.053  18.243  10.960  0.00  0.00     0.209 HD
ENDBRANCH  23  24
ENDBRANCH   1  23
BRANCH   2  26
HETATM   26  O   UNK N   1      36.443  13.664  11.457  0.00  0.00    -0.390 OA
HETATM   27  H   UNK N   1      36.155  13.643  12.382  0.00  0.00     0.210 HD
ENDBRANCH   2  26
TORSDOF 6
ENDMDL
MODEL 3
REMARK VINA RESULT:      -6.3      1.668      2.962
REMARK  6 active torsions:
REMARK  status: ('A' for Active; 'I' for Inactive)
REMARK    1  A    between atoms: C_9  and  C_5 
REMARK    2  A    between atoms: O_18  and  C_5 
REMARK    3  A    between atoms: C_10  and  O_19 
REMARK    4  A    between atoms: C_11  and  O_20 
REMARK    5  A    between atoms: C_12  and  O_21 
REMARK    6  A    between atoms: C_13  and  C_14 
ROOT
HETATM    1  C   UNK N   1      34.781  14.755  10.914  0.00  0.00     0.177 C 
HETATM    2  C   UNK N   1      35.645  14.160   9.747  0.00  0.00     0.180 C 
HETATM    3  C   UNK N   1      36.450  12.899  10.117  0.00  0.00     0.181 C 
HETATM    4  C   UNK N   1      36.538  12.710  11.614  0.00  0.00     0.185 C 
HETATM    5  C   UNK N   1      35.093  12.683  12.162  0.00  0.00     0.221 C 
HETATM    6  O   UNK N   1      34.314  13.850  11.911  0.00  0.00    -0.365 OA
ENDROOT
BRANCH   5   7
HETATM    7  C   UNK N   1      35.153  12.386  13.633  0.00  0.00     0.114 A 
HETATM    8  N   UNK N   1      35.143  11.135  14.172  0.00  0.00    -0.342 N 
HETATM    9  C   UNK N   1      35.165  11.362  15.494  0.00  0.00     0.060 A 
ATOM     10  HN  UNK N   1      35.121  10.240  13.685  1.00  0.00     0.167 HD
HETATM   11  C   UNK N   1      35.145  10.429  16.529  0.00  0.00     0.032 A 
HETATM   12  C   UNK N   1      35.201  12.699  15.735  0.00  0.00     0.061 A 
HETATM   13  C   UNK N   1      35.169  10.924  17.849  0.00  0.00     0.009 A 
HETATM   14  C   UNK N   1      35.215  12.319  18.094  0.00  0.00    -0.060 A 
HETATM   15  C   UNK N   1      35.247  12.828  19.489  0.00  0.00     0.048 C 
HETATM   16  C   UNK N   1      35.230  13.227  17.019  0.00  0.00     0.038 A 
HETATM   17  N   UNK N   1      35.190  13.365  14.573  0.00  0.00    -0.342 N 
HETATM   18  H   UNK N   1      35.204  14.338  14.432  0.00  0.00     0.167 HD
ENDBRANCH   5   7
BRANCH   4  19
HETATM   19  O   UNK N   1      37.291  13.729  12.209  0.00  0.00    -0.390 OA
HETATM   20  H   UNK N   1      37.968  14.322  12.567  0.00  0.00     0.210 HD
ENDBRANCH   4  19
BRANCH   3  21
HETATM   21  O   UNK N   1      37.718  12.885   9.524  0.00  0.00    -0.390 OA
HETATM   22  H   UNK N   1      38.565  13.151   9.914  0.00  0.00     0.210 HD
ENDBRANCH   3  21
BRANCH   1  23
HETATM   23  C   UNK N   1      35.430  15.947  11.624  0.00  0.00     0.198 C 
BRANCH  23  24
HETATM   24  O   UNK N   1      35.136  17.136  10.948  0.00  0.00    -0.398 OA
HETATM   25  H   UNK N   1      34.865  17.948  11.405  0.00  0.00     0.209 HD
ENDBRANCH  23  24
ENDBRANCH   1  23
BRANCH   2  26
HETATM   26  O   UNK N   1      36.476  15.148   9.205  0.00  0.00    -0.390 OA
HETATM   27  H   UNK N   1      36.606  15.664   8.394  0.00  0.00     0.210 HD
ENDBRANCH   2  26
TORSDOF 6
ENDMDL
MODEL 4
REMARK VINA RESULT:      -6.2      3.021      6.741
REMARK  6 active torsions:
REMARK  status: ('A' for Active; 'I' for Inactive)
REMARK    1  A    between atoms: C_9  and  C_5 
REMARK    2  A    between atoms: O_18  and  C_5 
REMARK    3  A    between atoms: C_10  and  O_19 
REMARK    4  A    between atoms: C_11  and  O_20 
REMARK    5  A    between atoms: C_12  and  O_21 
REMARK    6  A    between atoms: C_13  and  C_14 
ROOT
HETATM    1  C   UNK N   1      36.184  12.066  11.495  0.00  0.00     0.177 C 
HETATM    2  C   UNK N   1      36.565  12.508  12.952  0.00  0.00     0.180 C 
HETATM    3  C   UNK N   1      36.055  13.904  13.358  0.00  0.00     0.181 C 
HETATM    4  C   UNK N   1      35.620  14.712  12.156  0.00  0.00     0.185 C 
HETATM    5  C   UNK N   1      34.558  13.881  11.401  0.00  0.00     0.221 C 
HETATM    6  O   UNK N   1      34.987  12.602  10.939  0.00  0.00    -0.365 OA
ENDROOT
BRANCH   5   7
HETATM    7  C   UNK N   1      34.031  14.710  10.266  0.00  0.00     0.114 A 
HETATM    8  N   UNK N   1      32.775  15.234  10.207  0.00  0.00    -0.342 N 
HETATM    9  C   UNK N   1      32.744  15.846   9.014  0.00  0.00     0.060 A 
ATOM     10  HN  UNK N   1      32.033  15.174  10.905  1.00  0.00     0.167 HD
HETATM   11  C   UNK N   1      31.685  16.534   8.424  0.00  0.00     0.032 A 
HETATM   12  C   UNK N   1      33.943  15.703   8.389  0.00  0.00     0.061 A 
HETATM   13  C   UNK N   1      31.903  17.087   7.146  0.00  0.00     0.009 A 
HETATM   14  C   UNK N   1      33.157  16.944   6.503  0.00  0.00    -0.060 A 
HETATM   15  C   UNK N   1      33.376  17.538   5.160  0.00  0.00     0.048 C 
HETATM   16  C   UNK N   1      34.199  16.238   7.133  0.00  0.00     0.038 A 
HETATM   17  N   UNK N   1      34.768  14.986   9.160  0.00  0.00    -0.342 N 
HETATM   18  H   UNK N   1      35.696  14.718   8.971  0.00  0.00     0.167 HD
ENDBRANCH   5   7
BRANCH   4  19
HETATM   19  O   UNK N   1      36.708  15.020  11.332  0.00  0.00    -0.390 OA
HETATM   20  H   UNK N   1      37.511  15.043  10.790  0.00  0.00     0.210 HD
ENDBRANCH   4  19
BRANCH   3  21
HETATM   21  O   UNK N   1      36.986  14.605  14.134  0.00  0.00    -0.390 OA
HETATM   22  H   UNK N   1      36.904  15.494  14.512  0.00  0.00     0.210 HD
ENDBRANCH   3  21
BRANCH   1  23
HETATM   23  C   UNK N   1      37.308  12.259  10.472  0.00  0.00     0.198 C 
BRANCH  23  24
HETATM   24  O   UNK N   1      36.788  12.724   9.258  0.00  0.00    -0.398 OA
HETATM   25  H   UNK N   1      36.559  12.133   8.524  0.00  0.00     0.209 HD
ENDBRANCH  23  24
ENDBRANCH   1  23
BRANCH   2  26
HETATM   26  O   UNK N   1      37.948  12.399  13.147  0.00  0.00    -0.390 OA
HETATM   27  H   UNK N   1      38.779  12.350  12.649  0.00  0.00     0.210 HD
ENDBRANCH   2  26
TORSDOF 6
ENDMDL
MODEL 5
REMARK VINA RESULT:      -6.0      1.790      2.144
REMARK  6 active torsions:
REMARK  status: ('A' for Active; 'I' for Inactive)
REMARK    1  A    between atoms: C_9  and  C_5 
REMARK    2  A    between atoms: O_18  and  C_5 
REMARK    3  A    between atoms: C_10  and  O_19 
REMARK    4  A    between atoms: C_11  and  O_20 
REMARK    5  A    between atoms: C_12  and  O_21 
REMARK    6  A    between atoms: C_13  and  C_14 
ROOT
HETATM    1  C   UNK N   1      36.028  12.724  10.107  0.00  0.00     0.177 C 
HETATM    2  C   UNK N   1      36.289  14.174   9.566  0.00  0.00     0.180 C 
HETATM    3  C   UNK N   1      36.486  15.245  10.656  0.00  0.00     0.181 C 
HETATM    4  C   UNK N   1      36.018  14.758  12.009  0.00  0.00     0.185 C 
HETATM    5  C   UNK N   1      36.774  13.445  12.314  0.00  0.00     0.221 C 
HETATM    6  O   UNK N   1      36.581  12.388  11.377  0.00  0.00    -0.365 OA
ENDROOT
BRANCH   5   7
HETATM    7  C   UNK N   1      36.407  13.002  13.702  0.00  0.00     0.114 A 
HETATM    8  N   UNK N   1      35.812  13.796  14.636  0.00  0.00    -0.342 N 
HETATM    9  C   UNK N   1      35.723  13.001  15.713  0.00  0.00     0.060 A 
ATOM     10  HN  UNK N   1      35.509  14.765  14.539  1.00  0.00     0.167 HD
HETATM   11  C   UNK N   1      35.210  13.309  16.972  0.00  0.00     0.032 A 
HETATM   12  C   UNK N   1      36.234  11.774  15.427  0.00  0.00     0.061 A 
HETATM   13  C   UNK N   1      35.235  12.292  17.948  0.00  0.00     0.009 A 
HETATM   14  C   UNK N   1      35.760  11.013  17.643  0.00  0.00    -0.060 A 
HETATM   15  C   UNK N   1      35.775   9.948  18.679  0.00  0.00     0.048 C 
HETATM   16  C   UNK N   1      36.272  10.745  16.359  0.00  0.00     0.038 A 
HETATM   17  N   UNK N   1      36.675  11.755  14.164  0.00  0.00    -0.342 N 
HETATM   18  H   UNK N   1      37.098  11.009  13.680  0.00  0.00     0.167 HD
ENDBRANCH   5   7
BRANCH   4  19
HETATM   19  O   UNK N   1      34.633  14.566  12.027  0.00  0.00    -0.390 OA
HETATM   20  H   UNK N   1      33.669  14.598  11.927  0.00  0.00     0.210 HD
ENDBRANCH   4  19
BRANCH   3  21
HETATM   21  O   UNK N   1      35.888  16.464  10.317  0.00  0.00    -0.390 OA
HETATM   22  H   UNK N   1      35.306  17.019  10.860  0.00  0.00     0.210 HD
ENDBRANCH   3  21
BRANCH   1  23
HETATM   23  C   UNK N   1      34.551  12.318  10.113  0.00  0.00     0.198 C 
BRANCH  23  24
HETATM   24  O   UNK N   1      34.244  11.613  11.282  0.00  0.00    -0.398 OA
HETATM   25  H   UNK N   1      33.626  11.947  11.951  0.00  0.00     0.209 HD
ENDBRANCH  23  24
ENDBRANCH   1  23
BRANCH   2  26
HETATM   26  O   UNK N   1      35.281  14.546   8.668  0.00  0.00    -0.390 OA
HETATM   27  H   UNK N   1      35.000  14.410   7.750  0.00  0.00     0.210 HD
ENDBRANCH   2  26
TORSDOF 6
ENDMDL
MODEL 6
REMARK VINA RESULT:      -6.0     15.156     17.105
REMARK  6 active torsions:
REMARK  status: ('A' for Active; 'I' for Inactive)
REMARK    1  A    between atoms: C_9  and  C_5 
REMARK    2  A    between atoms: O_18  and  C_5 
REMARK    3  A    between atoms: C_10  and  O_19 
REMARK    4  A    between atoms: C_11  and  O_20 
REMARK    5  A    between atoms: C_12  and  O_21 
REMARK    6  A    between atoms: C_13  and  C_14 
ROOT
HETATM    1  C   UNK N   1      43.948  19.862   2.380  0.00  0.00     0.177 C 
HETATM    2  C   UNK N   1      44.882  20.366   3.536  0.00  0.00     0.180 C 
HETATM    3  C   UNK N   1      44.665  21.835   3.948  0.00  0.00     0.181 C 
HETATM    4  C   UNK N   1      43.867  22.594   2.912  0.00  0.00     0.185 C 
HETATM    5  C   UNK N   1      42.542  21.829   2.698  0.00  0.00     0.221 C 
HETATM    6  O   UNK N   1      42.671  20.481   2.252  0.00  0.00    -0.365 OA
ENDROOT
BRANCH   5   7
HETATM    7  C   UNK N   1      41.686  22.625   1.755  0.00  0.00     0.114 A 
HETATM    8  N   UNK N   1      41.000  22.100   0.701  0.00  0.00    -0.342 N 
HETATM    9  C   UNK N   1      40.429  23.173   0.132  0.00  0.00     0.060 A 
ATOM     10  HN  UNK N   1      40.937  21.124   0.413  1.00  0.00     0.167 HD
HETATM   11  C   UNK N   1      39.625  23.220  -1.004  0.00  0.00     0.032 A 
HETATM   12  C   UNK N   1      40.753  24.295   0.829  0.00  0.00     0.061 A 
HETATM   13  C   UNK N   1      39.148  24.484  -1.409  0.00  0.00     0.009 A 
HETATM   14  C   UNK N   1      39.480  25.648  -0.674  0.00  0.00    -0.060 A 
HETATM   15  C   UNK N   1      38.966  26.973  -1.107  0.00  0.00     0.048 C 
HETATM   16  C   UNK N   1      40.299  25.556   0.467  0.00  0.00     0.038 A 
HETATM   17  N   UNK N   1      41.549  23.971   1.855  0.00  0.00    -0.342 N 
HETATM   18  H   UNK N   1      41.946  24.571   2.527  0.00  0.00     0.167 HD
ENDBRANCH   5   7
BRANCH   4  19
HETATM   19  O   UNK N   1      44.582  22.722   1.716  0.00  0.00    -0.390 OA
HETATM   20  H   UNK N   1      45.082  22.612   0.893  0.00  0.00     0.210 HD
ENDBRANCH   4  19
BRANCH   3  21
HETATM   21  O   UNK N   1      45.868  22.486   4.244  0.00  0.00    -0.390 OA
HETATM   22  H   UNK N   1      46.556  22.219   4.874  0.00  0.00     0.210 HD
ENDBRANCH   3  21
BRANCH   1  23
HETATM   23  C   UNK N   1      44.612  19.857   1.000  0.00  0.00     0.198 C 
BRANCH  23  24
HETATM   24  O   UNK N   1      43.721  20.326   0.028  0.00  0.00    -0.398 OA
HETATM   25  H   UNK N   1      42.993  20.934   0.233  0.00  0.00     0.209 HD
ENDBRANCH  23  24
ENDBRANCH   1  23
BRANCH   2  26
HETATM   26  O   UNK N   1      46.224  20.123   3.217  0.00  0.00    -0.390 OA
HETATM   27  H   UNK N   1      47.040  20.590   2.979  0.00  0.00     0.210 HD
ENDBRANCH   2  26
TORSDOF 6
ENDMDL
MODEL 7
REMARK VINA RESULT:      -5.8      2.974      7.015
REMARK  6 active torsions:
REMARK  status: ('A' for Active; 'I' for Inactive)
REMARK    1  A    between atoms: C_9  and  C_5 
REMARK    2  A    between atoms: O_18  and  C_5 
REMARK    3  A    between atoms: C_10  and  O_19 
REMARK    4  A    between atoms: C_11  and  O_20 
REMARK    5  A    between atoms: C_12  and  O_21 
REMARK    6  A    between atoms: C_13  and  C_14 
ROOT
HETATM    1  C   UNK N   1      37.087  13.012  12.830  0.00  0.00     0.177 C 
HETATM    2  C   UNK N   1      36.474  11.579  13.012  0.00  0.00     0.180 C 
HETATM    3  C   UNK N   1      35.396  11.201  11.978  0.00  0.00     0.181 C 
HETATM    4  C   UNK N   1      34.884  12.414  11.235  0.00  0.00     0.185 C 
HETATM    5  C   UNK N   1      36.106  13.117  10.600  0.00  0.00     0.221 C 
HETATM    6  O   UNK N   1      37.112  13.552  11.511  0.00  0.00    -0.365 OA
ENDROOT
BRANCH   5   7
HETATM    7  C   UNK N   1      35.609  14.261   9.765  0.00  0.00     0.114 A 
HETATM    8  N   UNK N   1      35.436  15.534  10.219  0.00  0.00    -0.342 N 
HETATM    9  C   UNK N   1      34.942  16.183   9.154  0.00  0.00     0.060 A 
ATOM     10  HN  UNK N   1      35.633  15.903  11.149  1.00  0.00     0.167 HD
HETATM   11  C   UNK N   1      34.559  17.520   9.061  0.00  0.00     0.032 A 
HETATM   12  C   UNK N   1      34.837  15.333   8.099  0.00  0.00     0.061 A 
HETATM   13  C   UNK N   1      34.059  17.966   7.821  0.00  0.00     0.009 A 
HETATM   14  C   UNK N   1      33.960  17.078   6.723  0.00  0.00    -0.060 A 
HETATM   15  C   UNK N   1      33.438  17.562   5.419  0.00  0.00     0.048 C 
HETATM   16  C   UNK N   1      34.355  15.734   6.861  0.00  0.00     0.038 A 
HETATM   17  N   UNK N   1      35.249  14.112   8.465  0.00  0.00    -0.342 N 
HETATM   18  H   UNK N   1      35.283  13.295   7.918  0.00  0.00     0.167 HD
ENDBRANCH   5   7
BRANCH   4  19
HETATM   19  O   UNK N   1      34.188  13.275  12.089  0.00  0.00    -0.390 OA
HETATM   20  H   UNK N   1      33.560  13.858  12.545  0.00  0.00     0.210 HD
ENDBRANCH   4  19
BRANCH   3  21
HETATM   21  O   UNK N   1      34.347  10.470  12.548  0.00  0.00    -0.390 OA
HETATM   22  H   UNK N   1      33.428  10.402  12.243  0.00  0.00     0.210 HD
ENDBRANCH   3  21
BRANCH   1  23
HETATM   23  C   UNK N   1      36.489  14.070  13.762  0.00  0.00     0.198 C 
BRANCH  23  24
HETATM   24  O   UNK N   1      36.437  15.312  13.121  0.00  0.00    -0.398 OA
HETATM   25  H   UNK N   1      36.263  15.407  12.171  0.00  0.00     0.209 HD
ENDBRANCH  23  24
ENDBRANCH   1  23
BRANCH   2  26
HETATM   26  O   UNK N   1      35.998  11.418  14.320  0.00  0.00    -0.390 OA
HETATM   27  H   UNK N   1      36.163  11.721  15.226  0.00  0.00     0.210 HD
ENDBRANCH   2  26
TORSDOF 6
ENDMDL
MODEL 8
REMARK VINA RESULT:      -5.6      2.739      6.732
REMARK  6 active torsions:
REMARK  status: ('A' for Active; 'I' for Inactive)
REMARK    1  A    between atoms: C_9  and  C_5 
REMARK    2  A    between atoms: O_18  and  C_5 
REMARK    3  A    between atoms: C_10  and  O_19 
REMARK    4  A    between atoms: C_11  and  O_20 
REMARK    5  A    between atoms: C_12  and  O_21 
REMARK    6  A    between atoms: C_13  and  C_14 
ROOT
HETATM    1  C   UNK N   1      35.179  11.818  13.403  0.00  0.00     0.177 C 
HETATM    2  C   UNK N   1      35.930  12.335  14.680  0.00  0.00     0.180 C 
HETATM    3  C   UNK N   1      36.398  13.801  14.605  0.00  0.00     0.181 C 
HETATM    4  C   UNK N   1      36.373  14.325  13.187  0.00  0.00     0.185 C 
HETATM    5  C   UNK N   1      34.939  14.124  12.646  0.00  0.00     0.221 C 
HETATM    6  O   UNK N   1      34.469  12.779  12.626  0.00  0.00    -0.365 OA
ENDROOT
BRANCH   5   7
HETATM    7  C   UNK N   1      34.862  14.738  11.278  0.00  0.00     0.114 A 
HETATM    8  N   UNK N   1      34.621  16.056  11.033  0.00  0.00    -0.342 N 
HETATM    9  C   UNK N   1      34.598  16.128   9.694  0.00  0.00     0.060 A 
ATOM     10  HN  UNK N   1      34.488  16.808  11.708  1.00  0.00     0.167 HD
HETATM   11  C   UNK N   1      34.368  17.246   8.894  0.00  0.00     0.032 A 
HETATM   12  C   UNK N   1      34.830  14.900   9.159  0.00  0.00     0.061 A 
HETATM   13  C   UNK N   1      34.390  17.059   7.497  0.00  0.00     0.009 A 
HETATM   14  C   UNK N   1      34.641  15.779   6.945  0.00  0.00    -0.060 A 
HETATM   15  C   UNK N   1      34.667  15.596   5.471  0.00  0.00     0.048 C 
HETATM   16  C   UNK N   1      34.865  14.675   7.789  0.00  0.00     0.038 A 
HETATM   17  N   UNK N   1      34.995  14.006  10.142  0.00  0.00    -0.342 N 
HETATM   18  H   UNK N   1      35.172  13.042  10.062  0.00  0.00     0.167 HD
ENDBRANCH   5   7
BRANCH   4  19
HETATM   19  O   UNK N   1      37.317  13.670  12.389  0.00  0.00    -0.390 OA
HETATM   20  H   UNK N   1      37.867  13.295  11.685  0.00  0.00     0.210 HD
ENDBRANCH   4  19
BRANCH   3  21
HETATM   21  O   UNK N   1      37.653  13.989  15.197  0.00  0.00    -0.390 OA
HETATM   22  H   UNK N   1      38.396  13.367  15.239  0.00  0.00     0.210 HD
ENDBRANCH   3  21
BRANCH   1  23
HETATM   23  C   UNK N   1      36.058  10.999  12.453  0.00  0.00     0.198 C 
BRANCH  23  24
HETATM   24  O   UNK N   1      36.127   9.667  12.879  0.00  0.00    -0.398 OA
HETATM   25  H   UNK N   1      35.686   9.349  13.682  0.00  0.00     0.209 HD
ENDBRANCH  23  24
ENDBRANCH   1  23
BRANCH   2  26
HETATM   26  O   UNK N   1      36.993  11.481  14.998  0.00  0.00    -0.390 OA
HETATM   27  H   UNK N   1      37.465  11.114  15.762  0.00  0.00     0.210 HD
ENDBRANCH   2  26
TORSDOF 6
ENDMDL
MODEL 9
REMARK VINA RESULT:      -5.6     15.391     18.102
REMARK  6 active torsions:
REMARK  status: ('A' for Active; 'I' for Inactive)
REMARK    1  A    between atoms: C_9  and  C_5 
REMARK    2  A    between atoms: O_18  and  C_5 
REMARK    3  A    between atoms: C_10  and  O_19 
REMARK    4  A    between atoms: C_11  and  O_20 
REMARK    5  A    between atoms: C_12  and  O_21 
REMARK    6  A    between atoms: C_13  and  C_14 
ROOT
HETATM    1  C   UNK N   1      44.652  22.910   1.142  0.00  0.00     0.177 C 
HETATM    2  C   UNK N   1      44.528  21.780   2.225  0.00  0.00     0.180 C 
HETATM    3  C   UNK N   1      43.084  21.443   2.644  0.00  0.00     0.181 C 
HETATM    4  C   UNK N   1      42.110  22.515   2.209  0.00  0.00     0.185 C 
HETATM    5  C   UNK N   1      42.268  22.691   0.682  0.00  0.00     0.221 C 
HETATM    6  O   UNK N   1      43.567  23.069   0.233  0.00  0.00    -0.365 OA
ENDROOT
BRANCH   5   7
HETATM    7  C   UNK N   1      41.233  23.672   0.212  0.00  0.00     0.114 A 
HETATM    8  N   UNK N   1      40.181  23.361  -0.596  0.00  0.00    -0.342 N 
HETATM    9  C   UNK N   1      39.568  24.539  -0.781  0.00  0.00     0.060 A 
ATOM     10  HN  UNK N   1      39.923  22.449  -0.972  1.00  0.00     0.167 HD
HETATM   11  C   UNK N   1      38.436  24.812  -1.549  0.00  0.00     0.032 A 
HETATM   12  C   UNK N   1      40.222  25.516  -0.098  0.00  0.00     0.061 A 
HETATM   13  C   UNK N   1      37.986  26.147  -1.589  0.00  0.00     0.009 A 
HETATM   14  C   UNK N   1      38.666  27.158  -0.867  0.00  0.00    -0.060 A 
HETATM   15  C   UNK N   1      38.178  28.560  -0.912  0.00  0.00     0.048 C 
HETATM   16  C   UNK N   1      39.808  26.841  -0.107  0.00  0.00     0.038 A 
HETATM   17  N   UNK N   1      41.279  24.990   0.533  0.00  0.00    -0.342 N 
HETATM   18  H   UNK N   1      41.939  25.451   1.098  0.00  0.00     0.167 HD
ENDBRANCH   5   7
BRANCH   4  19
HETATM   19  O   UNK N   1      42.344  23.716   2.888  0.00  0.00    -0.390 OA
HETATM   20  H   UNK N   1      42.572  24.612   3.181  0.00  0.00     0.210 HD
ENDBRANCH   4  19
BRANCH   3  21
HETATM   21  O   UNK N   1      42.976  21.180   4.014  0.00  0.00    -0.390 OA
HETATM   22  H   UNK N   1      42.377  21.589   4.659  0.00  0.00     0.210 HD
ENDBRANCH   3  21
BRANCH   1  23
HETATM   23  C   UNK N   1      44.994  24.288   1.716  0.00  0.00     0.198 C 
BRANCH  23  24
HETATM   24  O   UNK N   1      44.237  25.281   1.083  0.00  0.00    -0.398 OA
HETATM   25  H   UNK N   1      43.290  25.180   0.895  0.00  0.00     0.209 HD
ENDBRANCH  23  24
ENDBRANCH   1  23
BRANCH   2  26
HETATM   26  O   UNK N   1      45.319  22.088   3.340  0.00  0.00    -0.390 OA
HETATM   27  H   UNK N   1      46.185  22.457   3.572  0.00  0.00     0.210 HD
ENDBRANCH   2  26
TORSDOF 6
ENDMDL
