MODEL 1
REMARK VINA RESULT:      -5.9      0.000      0.000
REMARK  12 active torsions:
REMARK  status: ('A' for Active; 'I' for Inactive)
REMARK    1  A    between atoms: C_9  and  C_4 
REMARK    2  A    between atoms: N_13  and  C_4 
REMARK    3  A    between atoms: C_8  and  C_5 
REMARK    4  A    between atoms: O_21  and  C_5 
REMARK    5  A    between atoms: N_13  and  C_7 
REMARK    6  A    between atoms: P_22  and  C_7 
REMARK    7  A    between atoms: O_14  and  C_10 
REMARK    8  A    between atoms: P_22  and  O_15 
REMARK    9  A    between atoms: P_22  and  O_16 
REMARK   10  A    between atoms: P_23  and  O_18 
REMARK   11  A    between atoms: P_23  and  O_19 
REMARK   12  A    between atoms: P_23  and  O_21 
ROOT
HETATM    1  C   UNK N   1      19.574  16.113   8.593  0.00  0.00     0.071 C 
HETATM    2  C   UNK N   1      21.361  18.362   6.222  0.00  0.00     0.098 A 
HETATM    3  C   UNK N   1      20.243  16.603   7.356  0.00  0.00     0.039 A 
HETATM    4  C   UNK N   1      21.505  17.576   5.072  0.00  0.00    -0.008 A 
HETATM    5  C   UNK N   1      20.995  16.262   5.078  0.00  0.00     0.004 A 
HETATM    6  C   UNK N   1      20.361  15.775   6.231  0.00  0.00     0.096 A 
HETATM    7  N   UNK N   1      20.741  17.868   7.323  0.00  0.00    -0.367 N 
ATOM      8  HN  UNK N   1      20.645  18.460   8.149  1.00  0.00     0.165 HD
ENDROOT
BRANCH   5   9
HETATM    9  C   UNK N   1      21.107  15.376   3.875  0.00  0.00     0.157 C 
BRANCH   9  10
HETATM   10  N   UNK N   1      19.865  15.378   3.103  0.00  0.00    -0.404 N 
HETATM   11  H   UNK N   1      18.933  15.493   3.501  0.00  0.00     0.154 HD
BRANCH  10  12
HETATM   12  C   UNK N   1      20.145  15.191   1.675  0.00  0.00     0.185 C 
HETATM   13  C   UNK N   1      21.643  15.107   1.409  0.00  0.00     0.044 C 
BRANCH  12  14
HETATM   14  P   UNK N   1      19.373  16.554   0.652  0.00  0.00     0.258 P 
HETATM   15  O   UNK N   1      20.420  17.164  -0.317  0.00  0.00    -0.652 OA
BRANCH  14  16
HETATM   16  O   UNK N   1      18.087  16.035  -0.392  0.00  0.00    -0.328 OA
HETATM   17  H   UNK N   1      17.853  15.746  -1.288  0.00  0.00     0.220 HD
ENDBRANCH  14  16
BRANCH  14  18
HETATM   18  O   UNK N   1      18.778  17.917   1.548  0.00  0.00    -0.328 OA
HETATM   19  H   UNK N   1      18.293  18.748   1.429  0.00  0.00     0.220 HD
ENDBRANCH  14  18
ENDBRANCH  12  14
ENDBRANCH  10  12
ENDBRANCH   9  10
ENDBRANCH   5   9
BRANCH   4  20
HETATM   20  C   UNK N   1      22.199  18.133   3.860  0.00  0.00     0.221 C 
BRANCH  20  21
HETATM   21  O   UNK N   1      21.285  18.398   2.832  0.00  0.00    -0.292 OA
BRANCH  21  22
HETATM   22  P   UNK N   1      21.132  20.133   2.694  0.00  0.00     0.391 P 
HETATM   23  O   UNK N   1      20.240  20.684   3.841  0.00  0.00    -0.632 OA
BRANCH  22  24
HETATM   24  O   UNK N   1      20.343  20.557   1.208  0.00  0.00    -0.307 OA
HETATM   25  H   UNK N   1      19.810  20.222   0.471  0.00  0.00     0.222 HD
ENDBRANCH  22  24
BRANCH  22  26
HETATM   26  O   UNK N   1      22.675  20.919   2.811  0.00  0.00    -0.307 OA
HETATM   27  H   UNK N   1      23.149  21.476   3.449  0.00  0.00     0.222 HD
ENDBRANCH  22  26
ENDBRANCH  21  22
ENDBRANCH  20  21
ENDBRANCH   4  20
BRANCH   6  28
HETATM   28  O   UNK N   1      19.870  14.520   6.259  0.00  0.00    -0.358 OA
HETATM   29  H   UNK N   1      19.485  14.143   5.492  0.00  0.00     0.217 HD
ENDBRANCH   6  28
TORSDOF 12
ENDMDL
MODEL 2
REMARK VINA RESULT:      -5.4     22.093     24.359
REMARK  12 active torsions:
REMARK  status: ('A' for Active; 'I' for Inactive)
REMARK    1  A    between atoms: C_9  and  C_4 
REMARK    2  A    between atoms: N_13  and  C_4 
REMARK    3  A    between atoms: C_8  and  C_5 
REMARK    4  A    between atoms: O_21  and  C_5 
REMARK    5  A    between atoms: N_13  and  C_7 
REMARK    6  A    between atoms: P_22  and  C_7 
REMARK    7  A    between atoms: O_14  and  C_10 
REMARK    8  A    between atoms: P_22  and  O_15 
REMARK    9  A    between atoms: P_22  and  O_16 
REMARK   10  A    between atoms: P_23  and  O_18 
REMARK   11  A    between atoms: P_23  and  O_19 
REMARK   12  A    between atoms: P_23  and  O_21 
ROOT
HETATM    1  C   UNK N   1      39.161  22.691  -1.108  0.00  0.00     0.071 C 
HETATM    2  C   UNK N   1      40.910  20.885   1.640  0.00  0.00     0.098 A 
HETATM    3  C   UNK N   1      40.235  22.263  -0.170  0.00  0.00     0.039 A 
HETATM    4  C   UNK N   1      42.204  21.421   1.611  0.00  0.00    -0.008 A 
HETATM    5  C   UNK N   1      42.509  22.411   0.655  0.00  0.00     0.004 A 
HETATM    6  C   UNK N   1      41.515  22.831  -0.241  0.00  0.00     0.096 A 
HETATM    7  N   UNK N   1      39.966  21.312   0.763  0.00  0.00    -0.367 N 
ATOM      8  HN  UNK N   1      39.029  20.909   0.805  1.00  0.00     0.165 HD
ENDROOT
BRANCH   5   9
HETATM    9  C   UNK N   1      43.870  23.032   0.582  0.00  0.00     0.157 C 
BRANCH   9  10
HETATM   10  N   UNK N   1      43.827  24.442   0.964  0.00  0.00    -0.404 N 
HETATM   11  H   UNK N   1      43.102  24.865   1.543  0.00  0.00     0.154 HD
BRANCH  10  12
HETATM   12  C   UNK N   1      44.970  25.166   0.396  0.00  0.00     0.185 C 
HETATM   13  C   UNK N   1      45.574  24.413  -0.783  0.00  0.00     0.044 C 
BRANCH  12  14
HETATM   14  P   UNK N   1      46.271  25.498   1.698  0.00  0.00     0.258 P 
HETATM   15  O   UNK N   1      45.978  26.834   2.430  0.00  0.00    -0.652 OA
BRANCH  14  16
HETATM   16  O   UNK N   1      46.332  24.324   2.975  0.00  0.00    -0.328 OA
HETATM   17  H   UNK N   1      46.432  23.384   3.191  0.00  0.00     0.220 HD
ENDBRANCH  14  16
BRANCH  14  18
HETATM   18  O   UNK N   1      47.892  25.686   1.105  0.00  0.00    -0.328 OA
HETATM   19  H   UNK N   1      48.688  26.225   1.234  0.00  0.00     0.220 HD
ENDBRANCH  14  18
ENDBRANCH  12  14
ENDBRANCH  10  12
ENDBRANCH   9  10
ENDBRANCH   5   9
BRANCH   4  20
HETATM   20  C   UNK N   1      43.242  20.936   2.584  0.00  0.00     0.221 C 
BRANCH  20  21
HETATM   21  O   UNK N   1      42.859  21.200   3.905  0.00  0.00    -0.292 OA
BRANCH  21  22
HETATM   22  P   UNK N   1      43.924  22.437   4.528  0.00  0.00     0.391 P 
HETATM   23  O   UNK N   1      43.740  22.577   6.065  0.00  0.00    -0.632 OA
BRANCH  22  24
HETATM   24  O   UNK N   1      43.530  23.980   3.840  0.00  0.00    -0.307 OA
HETATM   25  H   UNK N   1      42.875  24.695   3.821  0.00  0.00     0.222 HD
ENDBRANCH  22  24
BRANCH  22  26
HETATM   26  O   UNK N   1      45.590  22.047   4.237  0.00  0.00    -0.307 OA
HETATM   27  H   UNK N   1      46.333  22.411   3.729  0.00  0.00     0.222 HD
ENDBRANCH  22  26
ENDBRANCH  21  22
ENDBRANCH  20  21
ENDBRANCH   4  20
BRANCH   6  28
HETATM   28  O   UNK N   1      41.787  23.774  -1.165  0.00  0.00    -0.358 OA
HETATM   29  H   UNK N   1      41.172  24.459  -1.342  0.00  0.00     0.217 HD
ENDBRANCH   6  28
TORSDOF 12
ENDMDL
MODEL 3
REMARK VINA RESULT:      -5.4      3.404      5.803
REMARK  12 active torsions:
REMARK  status: ('A' for Active; 'I' for Inactive)
REMARK    1  A    between atoms: C_9  and  C_4 
REMARK    2  A    between atoms: N_13  and  C_4 
REMARK    3  A    between atoms: C_8  and  C_5 
REMARK    4  A    between atoms: O_21  and  C_5 
REMARK    5  A    between atoms: N_13  and  C_7 
REMARK    6  A    between atoms: P_22  and  C_7 
REMARK    7  A    between atoms: O_14  and  C_10 
REMARK    8  A    between atoms: P_22  and  O_15 
REMARK    9  A    between atoms: P_22  and  O_16 
REMARK   10  A    between atoms: P_23  and  O_18 
REMARK   11  A    between atoms: P_23  and  O_19 
REMARK   12  A    between atoms: P_23  and  O_21 
ROOT
HETATM    1  C   UNK N   1      22.081  14.032   2.735  0.00  0.00     0.071 C 
HETATM    2  C   UNK N   1      20.265  17.277   2.947  0.00  0.00     0.098 A 
HETATM    3  C   UNK N   1      21.798  15.467   3.015  0.00  0.00     0.039 A 
HETATM    4  C   UNK N   1      21.207  18.142   3.517  0.00  0.00    -0.008 A 
HETATM    5  C   UNK N   1      22.484  17.640   3.840  0.00  0.00     0.004 A 
HETATM    6  C   UNK N   1      22.777  16.291   3.588  0.00  0.00     0.096 A 
HETATM    7  N   UNK N   1      20.575  15.976   2.710  0.00  0.00    -0.367 N 
ATOM      8  HN  UNK N   1      19.873  15.366   2.291  1.00  0.00     0.165 HD
ENDROOT
BRANCH   5   9
HETATM    9  C   UNK N   1      23.538  18.518   4.441  0.00  0.00     0.157 C 
BRANCH   9  10
HETATM   10  N   UNK N   1      24.633  18.744   3.498  0.00  0.00    -0.404 N 
HETATM   11  H   UNK N   1      24.815  18.175   2.672  0.00  0.00     0.154 HD
BRANCH  10  12
HETATM   12  C   UNK N   1      25.435  19.902   3.907  0.00  0.00     0.185 C 
HETATM   13  C   UNK N   1      25.797  20.777   2.713  0.00  0.00     0.044 C 
BRANCH  12  14
HETATM   14  P   UNK N   1      26.979  19.366   4.818  0.00  0.00     0.258 P 
HETATM   15  O   UNK N   1      27.623  20.572   5.551  0.00  0.00    -0.652 OA
BRANCH  14  16
HETATM   16  O   UNK N   1      26.708  18.204   6.078  0.00  0.00    -0.328 OA
HETATM   17  H   UNK N   1      26.401  18.070   6.989  0.00  0.00     0.220 HD
ENDBRANCH  14  16
BRANCH  14  18
HETATM   18  O   UNK N   1      28.257  18.743   3.822  0.00  0.00    -0.328 OA
HETATM   19  H   UNK N   1      28.855  17.983   3.744  0.00  0.00     0.220 HD
ENDBRANCH  14  18
ENDBRANCH  12  14
ENDBRANCH  10  12
ENDBRANCH   9  10
ENDBRANCH   5   9
BRANCH   4  20
HETATM   20  C   UNK N   1      20.849  19.579   3.780  0.00  0.00     0.221 C 
BRANCH  20  21
HETATM   21  O   UNK N   1      19.942  20.056   2.825  0.00  0.00    -0.292 OA
BRANCH  21  22
HETATM   22  P   UNK N   1      20.864  20.624   1.455  0.00  0.00     0.391 P 
HETATM   23  O   UNK N   1      22.381  20.623   1.793  0.00  0.00    -0.632 OA
BRANCH  22  24
HETATM   24  O   UNK N   1      20.444  22.265   1.079  0.00  0.00    -0.307 OA
HETATM   25  H   UNK N   1      19.724  22.856   0.808  0.00  0.00     0.222 HD
ENDBRANCH  22  24
BRANCH  22  26
HETATM   26  O   UNK N   1      20.640  19.604   0.069  0.00  0.00    -0.307 OA
HETATM   27  H   UNK N   1      19.980  18.971  -0.255  0.00  0.00     0.222 HD
ENDBRANCH  22  26
ENDBRANCH  21  22
ENDBRANCH  20  21
ENDBRANCH   4  20
BRANCH   6  28
HETATM   28  O   UNK N   1      23.990  15.790   3.894  0.00  0.00    -0.358 OA
HETATM   29  H   UNK N   1      24.070  15.060   4.476  0.00  0.00     0.217 HD
ENDBRANCH   6  28
TORSDOF 12
ENDMDL
MODEL 4
REMARK VINA RESULT:      -5.4     10.799     12.479
REMARK  12 active torsions:
REMARK  status: ('A' for Active; 'I' for Inactive)
REMARK    1  A    between atoms: C_9  and  C_4 
REMARK    2  A    between atoms: N_13  and  C_4 
REMARK    3  A    between atoms: C_8  and  C_5 
REMARK    4  A    between atoms: O_21  and  C_5 
REMARK    5  A    between atoms: N_13  and  C_7 
REMARK    6  A    between atoms: P_22  and  C_7 
REMARK    7  A    between atoms: O_14  and  C_10 
REMARK    8  A    between atoms: P_22  and  O_15 
REMARK    9  A    between atoms: P_22  and  O_16 
REMARK   10  A    between atoms: P_23  and  O_18 
REMARK   11  A    between atoms: P_23  and  O_19 
REMARK   12  A    between atoms: P_23  and  O_21 
ROOT
HETATM    1  C   UNK N   1      31.631  13.245   2.771  0.00  0.00     0.071 C 
HETATM    2  C   UNK N   1      33.823  15.703   4.511  0.00  0.00     0.098 A 
HETATM    3  C   UNK N   1      32.057  14.405   3.602  0.00  0.00     0.039 A 
HETATM    4  C   UNK N   1      32.914  16.561   5.143  0.00  0.00    -0.008 A 
HETATM    5  C   UNK N   1      31.533  16.319   4.992  0.00  0.00     0.004 A 
HETATM    6  C   UNK N   1      31.105  15.234   4.214  0.00  0.00     0.096 A 
HETATM    7  N   UNK N   1      33.382  14.657   3.765  0.00  0.00    -0.367 N 
ATOM      8  HN  UNK N   1      34.064  14.044   3.317  1.00  0.00     0.165 HD
ENDROOT
BRANCH   5   9
HETATM    9  C   UNK N   1      30.512  17.193   5.653  0.00  0.00     0.157 C 
BRANCH   9  10
HETATM   10  N   UNK N   1      29.771  16.456   6.675  0.00  0.00    -0.404 N 
HETATM   11  H   UNK N   1      30.128  15.644   7.179  0.00  0.00     0.154 HD
BRANCH  10  12
HETATM   12  C   UNK N   1      28.442  17.044   6.875  0.00  0.00     0.185 C 
HETATM   13  C   UNK N   1      28.035  17.912   5.690  0.00  0.00     0.044 C 
BRANCH  12  14
HETATM   14  P   UNK N   1      28.373  18.030   8.463  0.00  0.00     0.258 P 
HETATM   15  O   UNK N   1      27.824  17.155   9.621  0.00  0.00    -0.652 OA
BRANCH  14  16
HETATM   16  O   UNK N   1      29.915  18.575   9.044  0.00  0.00    -0.328 OA
HETATM   17  H   UNK N   1      30.692  18.350   9.580  0.00  0.00     0.220 HD
ENDBRANCH  14  16
BRANCH  14  18
HETATM   18  O   UNK N   1      27.323  19.413   8.441  0.00  0.00    -0.328 OA
HETATM   19  H   UNK N   1      26.413  19.676   8.649  0.00  0.00     0.220 HD
ENDBRANCH  14  18
ENDBRANCH  12  14
ENDBRANCH  10  12
ENDBRANCH   9  10
ENDBRANCH   5   9
BRANCH   4  20
HETATM   20  C   UNK N   1      33.414  17.719   5.961  0.00  0.00     0.221 C 
BRANCH  20  21
HETATM   21  O   UNK N   1      34.634  17.412   6.577  0.00  0.00    -0.292 OA
BRANCH  21  22
HETATM   22  P   UNK N   1      34.495  17.833   8.266  0.00  0.00     0.391 P 
HETATM   23  O   UNK N   1      35.197  19.193   8.539  0.00  0.00    -0.632 OA
BRANCH  22  24
HETATM   24  O   UNK N   1      35.299  16.656   9.255  0.00  0.00    -0.307 OA
HETATM   25  H   UNK N   1      36.056  16.496   9.839  0.00  0.00     0.222 HD
ENDBRANCH  22  24
BRANCH  22  26
HETATM   26  O   UNK N   1      32.835  18.000   8.746  0.00  0.00    -0.307 OA
HETATM   27  H   UNK N   1      32.255  18.699   9.088  0.00  0.00     0.222 HD
ENDBRANCH  22  26
ENDBRANCH  21  22
ENDBRANCH  20  21
ENDBRANCH   4  20
BRANCH   6  28
HETATM   28  O   UNK N   1      29.790  14.988   4.053  0.00  0.00    -0.358 OA
HETATM   29  H   UNK N   1      29.497  14.354   3.429  0.00  0.00     0.217 HD
ENDBRANCH   6  28
TORSDOF 12
ENDMDL
MODEL 5
REMARK VINA RESULT:      -5.4     12.614     14.356
REMARK  12 active torsions:
REMARK  status: ('A' for Active; 'I' for Inactive)
REMARK    1  A    between atoms: C_9  and  C_4 
REMARK    2  A    between atoms: N_13  and  C_4 
REMARK    3  A    between atoms: C_8  and  C_5 
REMARK    4  A    between atoms: O_21  and  C_5 
REMARK    5  A    between atoms: N_13  and  C_7 
REMARK    6  A    between atoms: P_22  and  C_7 
REMARK    7  A    between atoms: O_14  and  C_10 
REMARK    8  A    between atoms: P_22  and  O_15 
REMARK    9  A    between atoms: P_22  and  O_16 
REMARK   10  A    between atoms: P_23  and  O_18 
REMARK   11  A    between atoms: P_23  and  O_19 
REMARK   12  A    between atoms: P_23  and  O_21 
ROOT
HETATM    1  C   UNK N   1      33.635  15.555   3.160  0.00  0.00     0.071 C 
HETATM    2  C   UNK N   1      31.126  16.697   5.665  0.00  0.00     0.098 A 
HETATM    3  C   UNK N   1      33.040  15.988   4.454  0.00  0.00     0.039 A 
HETATM    4  C   UNK N   1      31.871  16.804   6.847  0.00  0.00    -0.008 A 
HETATM    5  C   UNK N   1      33.245  16.491   6.816  0.00  0.00     0.004 A 
HETATM    6  C   UNK N   1      33.830  16.079   5.610  0.00  0.00     0.096 A 
HETATM    7  N   UNK N   1      31.718  16.299   4.510  0.00  0.00    -0.367 N 
ATOM      8  HN  UNK N   1      31.156  16.231   3.660  1.00  0.00     0.165 HD
ENDROOT
BRANCH   5   9
HETATM    9  C   UNK N   1      34.097  16.599   8.043  0.00  0.00     0.157 C 
BRANCH   9  10
HETATM   10  N   UNK N   1      34.897  15.391   8.235  0.00  0.00    -0.404 N 
HETATM   11  H   UNK N   1      35.551  15.012   7.550  0.00  0.00     0.154 HD
BRANCH  10  12
HETATM   12  C   UNK N   1      34.630  14.797   9.550  0.00  0.00     0.185 C 
HETATM   13  C   UNK N   1      33.141  14.813   9.874  0.00  0.00     0.044 C 
BRANCH  12  14
HETATM   14  P   UNK N   1      35.602  15.666  10.892  0.00  0.00     0.258 P 
HETATM   15  O   UNK N   1      35.505  14.881  12.226  0.00  0.00    -0.652 OA
BRANCH  14  16
HETATM   16  O   UNK N   1      37.308  15.776  10.592  0.00  0.00    -0.328 OA
HETATM   17  H   UNK N   1      38.139  16.204  10.853  0.00  0.00     0.220 HD
ENDBRANCH  14  16
BRANCH  14  18
HETATM   18  O   UNK N   1      35.055  17.263  11.298  0.00  0.00    -0.328 OA
HETATM   19  H   UNK N   1      35.228  17.987  11.919  0.00  0.00     0.220 HD
ENDBRANCH  14  18
ENDBRANCH  12  14
ENDBRANCH  10  12
ENDBRANCH   9  10
ENDBRANCH   5   9
BRANCH   4  20
HETATM   20  C   UNK N   1      31.203  17.241   8.121  0.00  0.00     0.221 C 
BRANCH  20  21
HETATM   21  O   UNK N   1      29.817  17.047   8.057  0.00  0.00    -0.292 OA
BRANCH  21  22
HETATM   22  P   UNK N   1      29.131  17.634   9.552  0.00  0.00     0.391 P 
HETATM   23  O   UNK N   1      29.229  16.541  10.652  0.00  0.00    -0.632 OA
BRANCH  22  24
HETATM   24  O   UNK N   1      27.443  17.982   9.350  0.00  0.00    -0.307 OA
HETATM   25  H   UNK N   1      26.584  18.028   9.799  0.00  0.00     0.222 HD
ENDBRANCH  22  24
BRANCH  22  26
HETATM   26  O   UNK N   1      29.976  19.035  10.133  0.00  0.00    -0.307 OA
HETATM   27  H   UNK N   1      29.805  19.776  10.736  0.00  0.00     0.222 HD
ENDBRANCH  22  26
ENDBRANCH  21  22
ENDBRANCH  20  21
ENDBRANCH   4  20
BRANCH   6  28
HETATM   28  O   UNK N   1      35.141  15.771   5.560  0.00  0.00    -0.358 OA
HETATM   29  H   UNK N   1      35.503  15.350   4.805  0.00  0.00     0.217 HD
ENDBRANCH   6  28
TORSDOF 12
ENDMDL
MODEL 6
REMARK VINA RESULT:      -5.3      3.034      6.367
REMARK  12 active torsions:
REMARK  status: ('A' for Active; 'I' for Inactive)
REMARK    1  A    between atoms: C_9  and  C_4 
REMARK    2  A    between atoms: N_13  and  C_4 
REMARK    3  A    between atoms: C_8  and  C_5 
REMARK    4  A    between atoms: O_21  and  C_5 
REMARK    5  A    between atoms: N_13  and  C_7 
REMARK    6  A    between atoms: P_22  and  C_7 
REMARK    7  A    between atoms: O_14  and  C_10 
REMARK    8  A    between atoms: P_22  and  O_15 
REMARK    9  A    between atoms: P_22  and  O_16 
REMARK   10  A    between atoms: P_23  and  O_18 
REMARK   11  A    between atoms: P_23  and  O_19 
REMARK   12  A    between atoms: P_23  and  O_21 
ROOT
HETATM    1  C   UNK N   1      20.599  20.567   1.692  0.00  0.00     0.071 C 
HETATM    2  C   UNK N   1      20.186  16.895   1.227  0.00  0.00     0.098 A 
HETATM    3  C   UNK N   1      20.573  19.109   1.989  0.00  0.00     0.039 A 
HETATM    4  C   UNK N   1      20.508  16.369   2.484  0.00  0.00    -0.008 A 
HETATM    5  C   UNK N   1      20.871  17.254   3.520  0.00  0.00     0.004 A 
HETATM    6  C   UNK N   1      20.904  18.633   3.266  0.00  0.00     0.096 A 
HETATM    7  N   UNK N   1      20.223  18.235   1.009  0.00  0.00    -0.367 N 
ATOM      8  HN  UNK N   1      19.982  18.595   0.085  1.00  0.00     0.165 HD
ENDROOT
BRANCH   5   9
HETATM    9  C   UNK N   1      21.213  16.753   4.889  0.00  0.00     0.157 C 
BRANCH   9  10
HETATM   10  N   UNK N   1      20.128  17.017   5.832  0.00  0.00    -0.404 N 
HETATM   11  H   UNK N   1      19.183  17.295   5.568  0.00  0.00     0.154 HD
BRANCH  10  12
HETATM   12  C   UNK N   1      20.586  16.828   7.213  0.00  0.00     0.185 C 
HETATM   13  C   UNK N   1      21.477  15.598   7.339  0.00  0.00     0.044 C 
BRANCH  12  14
HETATM   14  P   UNK N   1      19.140  16.714   8.394  0.00  0.00     0.258 P 
HETATM   15  O   UNK N   1      17.813  16.531   7.611  0.00  0.00    -0.652 OA
BRANCH  14  16
HETATM   16  O   UNK N   1      19.188  15.349   9.465  0.00  0.00    -0.328 OA
HETATM   17  H   UNK N   1      19.755  14.775  10.004  0.00  0.00     0.220 HD
ENDBRANCH  14  16
BRANCH  14  18
HETATM   18  O   UNK N   1      18.863  18.118   9.377  0.00  0.00    -0.328 OA
HETATM   19  H   UNK N   1      18.402  18.400  10.183  0.00  0.00     0.220 HD
ENDBRANCH  14  18
ENDBRANCH  12  14
ENDBRANCH  10  12
ENDBRANCH   9  10
ENDBRANCH   5   9
BRANCH   4  20
HETATM   20  C   UNK N   1      20.468  14.883   2.712  0.00  0.00     0.221 C 
BRANCH  20  21
HETATM   21  O   UNK N   1      19.151  14.404   2.693  0.00  0.00    -0.292 OA
BRANCH  21  22
HETATM   22  P   UNK N   1      18.805  13.744   4.272  0.00  0.00     0.391 P 
HETATM   23  O   UNK N   1      20.123  13.305   4.970  0.00  0.00    -0.632 OA
BRANCH  22  24
HETATM   24  O   UNK N   1      17.822  12.321   4.133  0.00  0.00    -0.307 OA
HETATM   25  H   UNK N   1      17.823  11.351   4.163  0.00  0.00     0.222 HD
ENDBRANCH  22  24
BRANCH  22  26
HETATM   26  O   UNK N   1      18.039  14.916   5.298  0.00  0.00    -0.307 OA
HETATM   27  H   UNK N   1      17.908  15.060   6.248  0.00  0.00     0.222 HD
ENDBRANCH  22  26
ENDBRANCH  21  22
ENDBRANCH  20  21
ENDBRANCH   4  20
BRANCH   6  28
HETATM   28  O   UNK N   1      21.253  19.496   4.241  0.00  0.00    -0.358 OA
HETATM   29  H   UNK N   1      20.610  19.821   4.840  0.00  0.00     0.217 HD
ENDBRANCH   6  28
TORSDOF 12
ENDMDL
MODEL 7
REMARK VINA RESULT:      -5.2     13.012     14.502
REMARK  12 active torsions:
REMARK  status: ('A' for Active; 'I' for Inactive)
REMARK    1  A    between atoms: C_9  and  C_4 
REMARK    2  A    between atoms: N_13  and  C_4 
REMARK    3  A    between atoms: C_8  and  C_5 
REMARK    4  A    between atoms: O_21  and  C_5 
REMARK    5  A    between atoms: N_13  and  C_7 
REMARK    6  A    between atoms: P_22  and  C_7 
REMARK    7  A    between atoms: O_14  and  C_10 
REMARK    8  A    between atoms: P_22  and  O_15 
REMARK    9  A    between atoms: P_22  and  O_16 
REMARK   10  A    between atoms: P_23  and  O_18 
REMARK   11  A    between atoms: P_23  and  O_19 
REMARK   12  A    between atoms: P_23  and  O_21 
ROOT
HETATM    1  C   UNK N   1      25.712  21.359  -8.967  0.00  0.00     0.071 C 
HETATM    2  C   UNK N   1      28.922  21.681  -7.107  0.00  0.00     0.098 A 
HETATM    3  C   UNK N   1      26.719  21.827  -7.975  0.00  0.00     0.039 A 
HETATM    4  C   UNK N   1      28.646  22.662  -6.146  0.00  0.00    -0.008 A 
HETATM    5  C   UNK N   1      27.359  23.235  -6.110  0.00  0.00     0.004 A 
HETATM    6  C   UNK N   1      26.392  22.813  -7.034  0.00  0.00     0.096 A 
HETATM    7  N   UNK N   1      27.966  21.288  -7.988  0.00  0.00    -0.367 N 
ATOM      8  HN  UNK N   1      28.190  20.569  -8.676  1.00  0.00     0.165 HD
ENDROOT
BRANCH   5   9
HETATM    9  C   UNK N   1      26.999  24.280  -5.099  0.00  0.00     0.157 C 
BRANCH   9  10
HETATM   10  N   UNK N   1      26.882  25.597  -5.722  0.00  0.00    -0.404 N 
HETATM   11  H   UNK N   1      27.351  25.876  -6.583  0.00  0.00     0.154 HD
BRANCH  10  12
HETATM   12  C   UNK N   1      25.996  26.463  -4.935  0.00  0.00     0.185 C 
HETATM   13  C   UNK N   1      24.818  26.955  -5.767  0.00  0.00     0.044 C 
BRANCH  12  14
HETATM   14  P   UNK N   1      26.937  27.909  -4.212  0.00  0.00     0.258 P 
HETATM   15  O   UNK N   1      26.220  28.443  -2.944  0.00  0.00    -0.652 OA
BRANCH  14  16
HETATM   16  O   UNK N   1      28.537  27.528  -3.660  0.00  0.00    -0.328 OA
HETATM   17  H   UNK N   1      29.175  27.618  -2.934  0.00  0.00     0.220 HD
ENDBRANCH  14  16
BRANCH  14  18
HETATM   18  O   UNK N   1      27.075  29.302  -5.240  0.00  0.00    -0.328 OA
HETATM   19  H   UNK N   1      27.507  30.170  -5.286  0.00  0.00     0.220 HD
ENDBRANCH  14  18
ENDBRANCH  12  14
ENDBRANCH  10  12
ENDBRANCH   9  10
ENDBRANCH   5   9
BRANCH   4  20
HETATM   20  C   UNK N   1      29.715  23.092  -5.180  0.00  0.00     0.221 C 
BRANCH  20  21
HETATM   21  O   UNK N   1      29.755  22.248  -4.063  0.00  0.00    -0.292 OA
BRANCH  21  22
HETATM   22  P   UNK N   1      29.719  23.255  -2.636  0.00  0.00     0.391 P 
HETATM   23  O   UNK N   1      30.820  22.806  -1.636  0.00  0.00    -0.632 OA
BRANCH  22  24
HETATM   24  O   UNK N   1      28.203  23.086  -1.811  0.00  0.00    -0.307 OA
HETATM   25  H   UNK N   1      27.752  22.667  -1.061  0.00  0.00     0.222 HD
ENDBRANCH  22  24
BRANCH  22  26
HETATM   26  O   UNK N   1      30.018  24.921  -3.025  0.00  0.00    -0.307 OA
HETATM   27  H   UNK N   1      30.597  25.425  -3.619  0.00  0.00     0.222 HD
ENDBRANCH  22  26
ENDBRANCH  21  22
ENDBRANCH  20  21
ENDBRANCH   4  20
BRANCH   6  28
HETATM   28  O   UNK N   1      25.156  23.352  -7.019  0.00  0.00    -0.358 OA
HETATM   29  H   UNK N   1      24.657  23.374  -6.226  0.00  0.00     0.217 HD
ENDBRANCH   6  28
TORSDOF 12
ENDMDL
MODEL 8
REMARK VINA RESULT:      -5.2      3.917      6.886
REMARK  12 active torsions:
REMARK  status: ('A' for Active; 'I' for Inactive)
REMARK    1  A    between atoms: C_9  and  C_4 
REMARK    2  A    between atoms: N_13  and  C_4 
REMARK    3  A    between atoms: C_8  and  C_5 
REMARK    4  A    between atoms: O_21  and  C_5 
REMARK    5  A    between atoms: N_13  and  C_7 
REMARK    6  A    between atoms: P_22  and  C_7 
REMARK    7  A    between atoms: O_14  and  C_10 
REMARK    8  A    between atoms: P_22  and  O_15 
REMARK    9  A    between atoms: P_22  and  O_16 
REMARK   10  A    between atoms: P_23  and  O_18 
REMARK   11  A    between atoms: P_23  and  O_19 
REMARK   12  A    between atoms: P_23  and  O_21 
ROOT
HETATM    1  C   UNK N   1      20.648  21.270   0.901  0.00  0.00     0.071 C 
HETATM    2  C   UNK N   1      20.209  17.963   2.558  0.00  0.00     0.098 A 
HETATM    3  C   UNK N   1      20.882  20.111   1.807  0.00  0.00     0.039 A 
HETATM    4  C   UNK N   1      21.267  17.914   3.474  0.00  0.00    -0.008 A 
HETATM    5  C   UNK N   1      22.153  19.007   3.549  0.00  0.00     0.004 A 
HETATM    6  C   UNK N   1      21.957  20.111   2.707  0.00  0.00     0.096 A 
HETATM    7  N   UNK N   1      20.039  19.045   1.756  0.00  0.00    -0.367 N 
ATOM      8  HN  UNK N   1      19.259  19.060   1.099  1.00  0.00     0.165 HD
ENDROOT
BRANCH   5   9
HETATM    9  C   UNK N   1      23.297  19.019   4.517  0.00  0.00     0.157 C 
BRANCH   9  10
HETATM   10  N   UNK N   1      24.576  18.895   3.821  0.00  0.00    -0.404 N 
HETATM   11  H   UNK N   1      24.789  18.188   3.118  0.00  0.00     0.154 HD
BRANCH  10  12
HETATM   12  C   UNK N   1      25.513  19.929   4.275  0.00  0.00     0.185 C 
HETATM   13  C   UNK N   1      26.256  20.560   3.103  0.00  0.00     0.044 C 
BRANCH  12  14
HETATM   14  P   UNK N   1      26.723  19.241   5.524  0.00  0.00     0.258 P 
HETATM   15  O   UNK N   1      28.165  19.264   4.951  0.00  0.00    -0.652 OA
BRANCH  14  16
HETATM   16  O   UNK N   1      26.841  20.152   6.996  0.00  0.00    -0.328 OA
HETATM   17  H   UNK N   1      27.427  20.435   7.716  0.00  0.00     0.220 HD
ENDBRANCH  14  16
BRANCH  14  18
HETATM   18  O   UNK N   1      26.472  17.583   5.975  0.00  0.00    -0.328 OA
HETATM   19  H   UNK N   1      26.887  16.708   5.908  0.00  0.00     0.220 HD
ENDBRANCH  14  18
ENDBRANCH  12  14
ENDBRANCH  10  12
ENDBRANCH   9  10
ENDBRANCH   5   9
BRANCH   4  20
HETATM   20  C   UNK N   1      21.447  16.707   4.353  0.00  0.00     0.221 C 
BRANCH  20  21
HETATM   21  O   UNK N   1      20.283  16.436   5.083  0.00  0.00    -0.292 OA
BRANCH  21  22
HETATM   22  P   UNK N   1      20.682  16.553   6.779  0.00  0.00     0.391 P 
HETATM   23  O   UNK N   1      20.880  18.041   7.181  0.00  0.00    -0.632 OA
BRANCH  22  24
HETATM   24  O   UNK N   1      22.184  15.749   7.108  0.00  0.00    -0.307 OA
HETATM   25  H   UNK N   1      23.147  15.856   7.151  0.00  0.00     0.222 HD
ENDBRANCH  22  24
BRANCH  22  26
HETATM   26  O   UNK N   1      19.415  15.910   7.777  0.00  0.00    -0.307 OA
HETATM   27  H   UNK N   1      18.988  15.052   7.928  0.00  0.00     0.222 HD
ENDBRANCH  22  26
ENDBRANCH  21  22
ENDBRANCH  20  21
ENDBRANCH   4  20
BRANCH   6  28
HETATM   28  O   UNK N   1      22.796  21.165   2.759  0.00  0.00    -0.358 OA
HETATM   29  H   UNK N   1      23.009  21.643   1.982  0.00  0.00     0.217 HD
ENDBRANCH   6  28
TORSDOF 12
ENDMDL
MODEL 9
REMARK VINA RESULT:      -5.2     16.690     18.169
REMARK  12 active torsions:
REMARK  status: ('A' for Active; 'I' for Inactive)
REMARK    1  A    between atoms: C_9  and  C_4 
REMARK    2  A    between atoms: N_13  and  C_4 
REMARK    3  A    between atoms: C_8  and  C_5 
REMARK    4  A    between atoms: O_21  and  C_5 
REMARK    5  A    between atoms: N_13  and  C_7 
REMARK    6  A    between atoms: P_22  and  C_7 
REMARK    7  A    between atoms: O_14  and  C_10 
REMARK    8  A    between atoms: P_22  and  O_15 
REMARK    9  A    between atoms: P_22  and  O_16 
REMARK   10  A    between atoms: P_23  and  O_18 
REMARK   11  A    between atoms: P_23  and  O_19 
REMARK   12  A    between atoms: P_23  and  O_21 
ROOT
HETATM    1  C   UNK N   1      38.588  11.299   8.895  0.00  0.00     0.071 C 
HETATM    2  C   UNK N   1      37.099  12.254  12.172  0.00  0.00     0.098 A 
HETATM    3  C   UNK N   1      37.907  12.104   9.946  0.00  0.00     0.039 A 
HETATM    4  C   UNK N   1      36.641  13.560  11.955  0.00  0.00    -0.008 A 
HETATM    5  C   UNK N   1      36.828  14.144  10.686  0.00  0.00     0.004 A 
HETATM    6  C   UNK N   1      37.468  13.408   9.677  0.00  0.00     0.096 A 
HETATM    7  N   UNK N   1      37.712  11.562  11.178  0.00  0.00    -0.367 N 
ATOM      8  HN  UNK N   1      38.034  10.611  11.359  1.00  0.00     0.165 HD
ENDROOT
BRANCH   5   9
HETATM    9  C   UNK N   1      36.349  15.531  10.388  0.00  0.00     0.157 C 
BRANCH   9  10
HETATM   10  N   UNK N   1      35.494  15.550   9.202  0.00  0.00    -0.404 N 
HETATM   11  H   UNK N   1      35.684  15.039   8.341  0.00  0.00     0.154 HD
BRANCH  10  12
HETATM   12  C   UNK N   1      34.324  16.407   9.423  0.00  0.00     0.185 C 
HETATM   13  C   UNK N   1      33.028  15.607   9.353  0.00  0.00     0.044 C 
BRANCH  12  14
HETATM   14  P   UNK N   1      34.286  17.824   8.203  0.00  0.00     0.258 P 
HETATM   15  O   UNK N   1      32.868  18.450   8.142  0.00  0.00    -0.652 OA
BRANCH  14  16
HETATM   16  O   UNK N   1      35.316  19.159   8.613  0.00  0.00    -0.328 OA
HETATM   17  H   UNK N   1      36.169  19.423   8.995  0.00  0.00     0.220 HD
ENDBRANCH  14  16
BRANCH  14  18
HETATM   18  O   UNK N   1      34.636  17.403   6.555  0.00  0.00    -0.328 OA
HETATM   19  H   UNK N   1      34.799  17.807   5.689  0.00  0.00     0.220 HD
ENDBRANCH  14  18
ENDBRANCH  12  14
ENDBRANCH  10  12
ENDBRANCH   9  10
ENDBRANCH   5   9
BRANCH   4  20
HETATM   20  C   UNK N   1      35.968  14.317  13.066  0.00  0.00     0.221 C 
BRANCH  20  21
HETATM   21  O   UNK N   1      35.254  13.453  13.906  0.00  0.00    -0.292 OA
BRANCH  21  22
HETATM   22  P   UNK N   1      36.138  13.324  15.407  0.00  0.00     0.391 P 
HETATM   23  O   UNK N   1      36.692  11.882  15.581  0.00  0.00    -0.632 OA
BRANCH  22  24
HETATM   24  O   UNK N   1      35.088  13.616  16.758  0.00  0.00    -0.307 OA
HETATM   25  H   UNK N   1      35.054  13.831  17.703  0.00  0.00     0.222 HD
ENDBRANCH  22  24
BRANCH  22  26
HETATM   26  O   UNK N   1      37.493  14.409  15.443  0.00  0.00    -0.307 OA
HETATM   27  H   UNK N   1      37.944  14.970  16.094  0.00  0.00     0.222 HD
ENDBRANCH  22  26
ENDBRANCH  21  22
ENDBRANCH  20  21
ENDBRANCH   4  20
BRANCH   6  28
HETATM   28  O   UNK N   1      37.660  13.949   8.458  0.00  0.00    -0.358 OA
HETATM   29  H   UNK N   1      37.251  14.760   8.227  0.00  0.00     0.217 HD
ENDBRANCH   6  28
TORSDOF 12
ENDMDL
