REMARK  3 active torsions:
REMARK  status: ('A' for Active; 'I' for Inactive)
REMARK    1  A    between atoms: S_1  and  Mo_2 
REMARK    2  A    between atoms: Mo_2  and  O_3 
REMARK    3  A    between atoms: Mo_2  and  O_5 
ROOT
HETATM    1 Mo   UNK N   1       1.325  -0.056   0.000  0.00  0.00     0.000 Mo
ENDROOT
BRANCH   1   2
HETATM    2  S   UNK N   1       2.391   2.175   0.000  0.00  0.00    -0.114 SA
HETATM    3  H   UNK N   1       3.747   2.281   0.000  0.00  0.00     0.114 HD
ENDBRANCH   1   2
BRANCH   1   4
HETATM    4  O   UNK N   1       2.353  -1.554   0.000  0.00  0.00    -0.253 OA
ATOM      5  HO  UNK N   1       1.943  -2.411   0.000  1.00  0.00     0.253 HD
ENDBRANCH   1   4
BRANCH   1   6
HETATM    6  O   UNK N   1      -0.477  -0.285   0.000  0.00  0.00    -0.253 OA
ATOM      7  HO  UNK N   1      -0.887  -1.142   0.000  1.00  0.00     0.253 HD
ENDBRANCH   1   6
TORSDOF 3
