MODEL 1
REMARK VINA RESULT:      -5.9      0.000      0.000
REMARK  3 active torsions:
REMARK  status: ('A' for Active; 'I' for Inactive)
REMARK    1  A    between atoms: C_6  and  O_13 
REMARK    2  A    between atoms: O_14  and  C_7 
REMARK    3  A    between atoms: C_8  and  N_12 
ROOT
HETATM    1  C   UNK N   1      35.418  10.832  18.713  0.00  0.00     0.073 A 
HETATM    2  C   UNK N   1      35.292  11.500  17.498  0.00  0.00     0.102 A 
HETATM    3  C   UNK N   1      35.476  11.576  19.882  0.00  0.00     0.144 A 
HETATM    4  C   UNK N   1      35.269  13.585  18.630  0.00  0.00     0.330 A 
HETATM    5  N   UNK N   1      35.394  12.929  19.828  0.00  0.00    -0.289 N 
ATOM      6  HN  UNK N   1      35.426  13.467  20.693  1.00  0.00     0.172 HD
HETATM    7  N   UNK N   1      35.225  12.862  17.444  0.00  0.00    -0.282 N 
HETATM    8  O   UNK N   1      35.205  14.801  18.627  0.00  0.00    -0.246 OA
ENDROOT
BRANCH   7   9
HETATM    9  C   UNK N   1      35.161  13.474  16.099  0.00  0.00     0.235 C 
HETATM   10  C   UNK N   1      36.541  13.585  15.464  0.00  0.00     0.088 C 
HETATM   11  C   UNK N   1      36.113  13.831  14.057  0.00  0.00     0.150 C 
HETATM   12  C   UNK N   1      34.983  12.820  13.932  0.00  0.00     0.148 C 
HETATM   13  C   UNK N   1      35.496  11.419  13.615  0.00  0.00     0.042 C 
HETATM   14  O   UNK N   1      34.326  12.780  15.185  0.00  0.00    -0.359 OA
BRANCH  11  15
HETATM   15  O   UNK N   1      37.138  13.639  13.127  0.00  0.00    -0.393 OA
HETATM   16  H   UNK N   1      37.257  13.396  12.195  0.00  0.00     0.210 HD
ENDBRANCH  11  15
ENDBRANCH   7   9
BRANCH   3  17
HETATM   17  O   UNK N   1      35.616  10.957  21.066  0.00  0.00    -0.346 OA
HETATM   18  H   UNK N   1      35.083  11.197  21.798  0.00  0.00     0.219 HD
ENDBRANCH   3  17
TORSDOF 3
ENDMDL
MODEL 2
REMARK VINA RESULT:      -5.4     22.317     24.399
REMARK  3 active torsions:
REMARK  status: ('A' for Active; 'I' for Inactive)
REMARK    1  A    between atoms: C_6  and  O_13 
REMARK    2  A    between atoms: O_14  and  C_7 
REMARK    3  A    between atoms: C_8  and  N_12 
ROOT
HETATM    1  C   UNK N   1      30.396  21.206  -5.107  0.00  0.00     0.073 A 
HETATM    2  C   UNK N   1      29.661  22.360  -4.854  0.00  0.00     0.102 A 
HETATM    3  C   UNK N   1      31.206  20.696  -4.103  0.00  0.00     0.144 A 
HETATM    4  C   UNK N   1      30.531  22.450  -2.649  0.00  0.00     0.330 A 
HETATM    5  N   UNK N   1      31.258  21.312  -2.897  0.00  0.00    -0.289 N 
ATOM      6  HN  UNK N   1      31.847  20.924  -2.161  1.00  0.00     0.172 HD
HETATM    7  N   UNK N   1      29.725  22.988  -3.644  0.00  0.00    -0.282 N 
HETATM    8  O   UNK N   1      30.613  22.974  -1.553  0.00  0.00    -0.246 OA
ENDROOT
BRANCH   7   9
HETATM    9  C   UNK N   1      28.958  24.244  -3.502  0.00  0.00     0.235 C 
HETATM   10  C   UNK N   1      28.909  25.026  -4.809  0.00  0.00     0.088 C 
HETATM   11  C   UNK N   1      27.792  25.952  -4.466  0.00  0.00     0.150 C 
HETATM   12  C   UNK N   1      26.831  24.986  -3.789  0.00  0.00     0.148 C 
HETATM   13  C   UNK N   1      25.986  24.214  -4.796  0.00  0.00     0.042 C 
HETATM   14  O   UNK N   1      27.620  24.060  -3.066  0.00  0.00    -0.359 OA
BRANCH  11  15
HETATM   15  O   UNK N   1      27.245  26.593  -5.580  0.00  0.00    -0.393 OA
HETATM   16  H   UNK N   1      26.622  27.306  -5.794  0.00  0.00     0.210 HD
ENDBRANCH  11  15
ENDBRANCH   7   9
BRANCH   3  17
HETATM   17  O   UNK N   1      31.940  19.594  -4.328  0.00  0.00    -0.346 OA
HETATM   18  H   UNK N   1      32.393  19.476  -5.140  0.00  0.00     0.219 HD
ENDBRANCH   3  17
TORSDOF 3
ENDMDL
MODEL 3
REMARK VINA RESULT:      -5.3     14.293     15.785
REMARK  3 active torsions:
REMARK  status: ('A' for Active; 'I' for Inactive)
REMARK    1  A    between atoms: C_6  and  O_13 
REMARK    2  A    between atoms: O_14  and  C_7 
REMARK    3  A    between atoms: C_8  and  N_12 
ROOT
HETATM    1  C   UNK N   1      24.393  12.892   9.838  0.00  0.00     0.073 A 
HETATM    2  C   UNK N   1      23.262  13.376   9.187  0.00  0.00     0.102 A 
HETATM    3  C   UNK N   1      24.233  12.192  11.025  0.00  0.00     0.144 A 
HETATM    4  C   UNK N   1      21.876  12.455  10.878  0.00  0.00     0.330 A 
HETATM    5  N   UNK N   1      22.989  11.978  11.522  0.00  0.00    -0.289 N 
ATOM      6  HN  UNK N   1      22.881  11.453  12.389  1.00  0.00     0.172 HD
HETATM    7  N   UNK N   1      22.012  13.172   9.696  0.00  0.00    -0.282 N 
HETATM    8  O   UNK N   1      20.779  12.245  11.364  0.00  0.00    -0.246 OA
ENDROOT
BRANCH   7   9
HETATM    9  C   UNK N   1      20.885  13.786   8.962  0.00  0.00     0.235 C 
HETATM   10  C   UNK N   1      21.010  15.304   8.904  0.00  0.00     0.088 C 
HETATM   11  C   UNK N   1      20.021  15.561   7.817  0.00  0.00     0.150 C 
HETATM   12  C   UNK N   1      20.380  14.444   6.848  0.00  0.00     0.148 C 
HETATM   13  C   UNK N   1      21.567  14.809   5.963  0.00  0.00     0.042 C 
HETATM   14  O   UNK N   1      20.737  13.319   7.630  0.00  0.00    -0.359 OA
BRANCH  11  15
HETATM   15  O   UNK N   1      20.132  16.838   7.262  0.00  0.00    -0.393 OA
HETATM   16  H   UNK N   1      19.804  17.347   6.503  0.00  0.00     0.210 HD
ENDBRANCH  11  15
ENDBRANCH   7   9
BRANCH   3  17
HETATM   17  O   UNK N   1      25.309  11.731  11.683  0.00  0.00    -0.346 OA
HETATM   18  H   UNK N   1      25.266  11.540  12.599  0.00  0.00     0.219 HD
ENDBRANCH   3  17
TORSDOF 3
ENDMDL
MODEL 4
REMARK VINA RESULT:      -5.3      1.744      2.635
REMARK  3 active torsions:
REMARK  status: ('A' for Active; 'I' for Inactive)
REMARK    1  A    between atoms: C_6  and  O_13 
REMARK    2  A    between atoms: O_14  and  C_7 
REMARK    3  A    between atoms: C_8  and  N_12 
ROOT
HETATM    1  C   UNK N   1      35.210  13.892  18.195  0.00  0.00     0.073 A 
HETATM    2  C   UNK N   1      35.497  13.515  16.886  0.00  0.00     0.102 A 
HETATM    3  C   UNK N   1      35.113  12.908  19.168  0.00  0.00     0.144 A 
HETATM    4  C   UNK N   1      35.596  11.238  17.548  0.00  0.00     0.330 A 
HETATM    5  N   UNK N   1      35.313  11.608  18.838  0.00  0.00    -0.289 N 
ATOM      6  HN  UNK N   1      35.250  10.893  19.562  1.00  0.00     0.172 HD
HETATM    7  N   UNK N   1      35.683  12.204  16.553  0.00  0.00    -0.282 N 
HETATM    8  O   UNK N   1      35.761  10.059  17.295  0.00  0.00    -0.246 OA
ENDROOT
BRANCH   7   9
HETATM    9  C   UNK N   1      35.915  11.906  15.123  0.00  0.00     0.235 C 
HETATM   10  C   UNK N   1      34.651  12.096  14.295  0.00  0.00     0.088 C 
HETATM   11  C   UNK N   1      35.280  12.126  12.943  0.00  0.00     0.150 C 
HETATM   12  C   UNK N   1      36.490  13.006  13.221  0.00  0.00     0.148 C 
HETATM   13  C   UNK N   1      36.144  14.490  13.180  0.00  0.00     0.042 C 
HETATM   14  O   UNK N   1      36.938  12.689  14.526  0.00  0.00    -0.359 OA
BRANCH  11  15
HETATM   15  O   UNK N   1      34.436  12.635  11.953  0.00  0.00    -0.393 OA
HETATM   16  H   UNK N   1      34.082  12.391  11.083  0.00  0.00     0.210 HD
ENDBRANCH  11  15
ENDBRANCH   7   9
BRANCH   3  17
HETATM   17  O   UNK N   1      34.818  13.244  20.435  0.00  0.00    -0.346 OA
HETATM   18  H   UNK N   1      35.000  14.104  20.757  0.00  0.00     0.219 HD
ENDBRANCH   3  17
TORSDOF 3
ENDMDL
MODEL 5
REMARK VINA RESULT:      -5.2      8.478     10.581
REMARK  3 active torsions:
REMARK  status: ('A' for Active; 'I' for Inactive)
REMARK    1  A    between atoms: C_6  and  O_13 
REMARK    2  A    between atoms: O_14  and  C_7 
REMARK    3  A    between atoms: C_8  and  N_12 
ROOT
HETATM    1  C   UNK N   1      33.866  15.469   9.675  0.00  0.00     0.073 A 
HETATM    2  C   UNK N   1      33.297  16.001   8.522  0.00  0.00     0.102 A 
HETATM    3  C   UNK N   1      34.831  16.206  10.346  0.00  0.00     0.144 A 
HETATM    4  C   UNK N   1      34.629  17.952   8.747  0.00  0.00     0.330 A 
HETATM    5  N   UNK N   1      35.191  17.428   9.884  0.00  0.00    -0.289 N 
ATOM      6  HN  UNK N   1      35.893  17.968  10.390  1.00  0.00     0.172 HD
HETATM    7  N   UNK N   1      33.672  17.225   8.049  0.00  0.00    -0.282 N 
HETATM    8  O   UNK N   1      34.987  19.051   8.364  0.00  0.00    -0.246 OA
ENDROOT
BRANCH   7   9
HETATM    9  C   UNK N   1      33.055  17.668   6.780  0.00  0.00     0.235 C 
HETATM   10  C   UNK N   1      33.806  17.126   5.570  0.00  0.00     0.088 C 
HETATM   11  C   UNK N   1      32.763  17.384   4.535  0.00  0.00     0.150 C 
HETATM   12  C   UNK N   1      31.516  16.931   5.282  0.00  0.00     0.148 C 
HETATM   13  C   UNK N   1      31.323  15.420   5.214  0.00  0.00     0.042 C 
HETATM   14  O   UNK N   1      31.692  17.298   6.637  0.00  0.00    -0.359 OA
BRANCH  11  15
HETATM   15  O   UNK N   1      32.984  16.688   3.345  0.00  0.00    -0.393 OA
HETATM   16  H   UNK N   1      33.675  16.568   2.673  0.00  0.00     0.210 HD
ENDBRANCH  11  15
ENDBRANCH   7   9
BRANCH   3  17
HETATM   17  O   UNK N   1      35.409  15.706  11.451  0.00  0.00    -0.346 OA
HETATM   18  H   UNK N   1      35.968  14.956  11.402  0.00  0.00     0.219 HD
ENDBRANCH   3  17
TORSDOF 3
ENDMDL
MODEL 6
REMARK VINA RESULT:      -5.1      9.238     11.543
REMARK  3 active torsions:
REMARK  status: ('A' for Active; 'I' for Inactive)
REMARK    1  A    between atoms: C_6  and  O_13 
REMARK    2  A    between atoms: O_14  and  C_7 
REMARK    3  A    between atoms: C_8  and  N_12 
ROOT
HETATM    1  C   UNK N   1      34.480  17.954   8.015  0.00  0.00     0.073 A 
HETATM    2  C   UNK N   1      33.540  17.501   7.094  0.00  0.00     0.102 A 
HETATM    3  C   UNK N   1      34.591  17.300   9.233  0.00  0.00     0.144 A 
HETATM    4  C   UNK N   1      32.876  15.785   8.592  0.00  0.00     0.330 A 
HETATM    5  N   UNK N   1      33.801  16.231   9.502  0.00  0.00    -0.289 N 
ATOM      6  HN  UNK N   1      33.897  15.749  10.395  1.00  0.00     0.172 HD
HETATM    7  N   UNK N   1      32.736  16.434   7.371  0.00  0.00    -0.282 N 
HETATM    8  O   UNK N   1      32.183  14.825   8.877  0.00  0.00    -0.246 OA
ENDROOT
BRANCH   7   9
HETATM    9  C   UNK N   1      31.725  16.077   6.352  0.00  0.00     0.235 C 
HETATM   10  C   UNK N   1      30.828  17.261   6.009  0.00  0.00     0.088 C 
HETATM   11  C   UNK N   1      30.242  16.730   4.745  0.00  0.00     0.150 C 
HETATM   12  C   UNK N   1      31.483  16.134   4.095  0.00  0.00     0.148 C 
HETATM   13  C   UNK N   1      32.309  17.186   3.363  0.00  0.00     0.042 C 
HETATM   14  O   UNK N   1      32.273  15.592   5.136  0.00  0.00    -0.359 OA
BRANCH  11  15
HETATM   15  O   UNK N   1      29.623  17.712   3.969  0.00  0.00    -0.393 OA
HETATM   16  H   UNK N   1      29.055  18.492   4.076  0.00  0.00     0.210 HD
ENDBRANCH  11  15
ENDBRANCH   7   9
BRANCH   3  17
HETATM   17  O   UNK N   1      35.477  17.729  10.147  0.00  0.00    -0.346 OA
HETATM   18  H   UNK N   1      36.293  18.107   9.884  0.00  0.00     0.219 HD
ENDBRANCH   3  17
TORSDOF 3
ENDMDL
MODEL 7
REMARK VINA RESULT:      -5.1      4.458      7.472
REMARK  3 active torsions:
REMARK  status: ('A' for Active; 'I' for Inactive)
REMARK    1  A    between atoms: C_6  and  O_13 
REMARK    2  A    between atoms: O_14  and  C_7 
REMARK    3  A    between atoms: C_8  and  N_12 
ROOT
HETATM    1  C   UNK N   1      35.422  16.813  10.877  0.00  0.00     0.073 A 
HETATM    2  C   UNK N   1      35.581  15.693  11.687  0.00  0.00     0.102 A 
HETATM    3  C   UNK N   1      34.711  16.687   9.693  0.00  0.00     0.144 A 
HETATM    4  C   UNK N   1      34.330  14.386  10.152  0.00  0.00     0.330 A 
HETATM    5  N   UNK N   1      34.172  15.490   9.352  0.00  0.00    -0.289 N 
ATOM      6  HN  UNK N   1      33.642  15.408   8.485  1.00  0.00     0.172 HD
HETATM    7  N   UNK N   1      35.052  14.485  11.335  0.00  0.00    -0.282 N 
HETATM    8  O   UNK N   1      33.835  13.330   9.804  0.00  0.00    -0.246 OA
ENDROOT
BRANCH   7   9
HETATM    9  C   UNK N   1      35.337  13.345  12.232  0.00  0.00     0.235 C 
HETATM   10  C   UNK N   1      36.819  12.994  12.243  0.00  0.00     0.088 C 
HETATM   11  C   UNK N   1      36.833  12.148  13.472  0.00  0.00     0.150 C 
HETATM   12  C   UNK N   1      35.948  12.981  14.389  0.00  0.00     0.148 C 
HETATM   13  C   UNK N   1      36.720  14.110  15.062  0.00  0.00     0.042 C 
HETATM   14  O   UNK N   1      34.938  13.552  13.578  0.00  0.00    -0.359 OA
BRANCH  11  15
HETATM   15  O   UNK N   1      38.116  11.933  13.979  0.00  0.00    -0.393 OA
HETATM   16  H   UNK N   1      39.031  12.223  13.830  0.00  0.00     0.210 HD
ENDBRANCH  11  15
ENDBRANCH   7   9
BRANCH   3  17
HETATM   17  O   UNK N   1      34.558  17.748   8.884  0.00  0.00    -0.346 OA
HETATM   18  H   UNK N   1      35.289  18.292   8.664  0.00  0.00     0.219 HD
ENDBRANCH   3  17
TORSDOF 3
ENDMDL
MODEL 8
REMARK VINA RESULT:      -5.0     11.435     12.317
REMARK  3 active torsions:
REMARK  status: ('A' for Active; 'I' for Inactive)
REMARK    1  A    between atoms: C_6  and  O_13 
REMARK    2  A    between atoms: O_14  and  C_7 
REMARK    3  A    between atoms: C_8  and  N_12 
ROOT
HETATM    1  C   UNK N   1      29.660  17.565   8.988  0.00  0.00     0.073 A 
HETATM    2  C   UNK N   1      30.658  17.268   8.065  0.00  0.00     0.102 A 
HETATM    3  C   UNK N   1      28.408  17.938   8.522  0.00  0.00     0.144 A 
HETATM    4  C   UNK N   1      29.156  17.697   6.280  0.00  0.00     0.330 A 
HETATM    5  N   UNK N   1      28.171  17.992   7.188  0.00  0.00    -0.289 N 
ATOM      6  HN  UNK N   1      27.244  18.256   6.855  1.00  0.00     0.172 HD
HETATM    7  N   UNK N   1      30.422  17.337   6.723  0.00  0.00    -0.282 N 
HETATM    8  O   UNK N   1      28.901  17.765   5.091  0.00  0.00    -0.246 OA
ENDROOT
BRANCH   7   9
HETATM    9  C   UNK N   1      31.569  17.067   5.829  0.00  0.00     0.235 C 
HETATM   10  C   UNK N   1      32.899  17.330   6.524  0.00  0.00     0.088 C 
HETATM   11  C   UNK N   1      33.790  16.611   5.568  0.00  0.00     0.150 C 
HETATM   12  C   UNK N   1      32.970  15.353   5.320  0.00  0.00     0.148 C 
HETATM   13  C   UNK N   1      33.172  14.311   6.415  0.00  0.00     0.042 C 
HETATM   14  O   UNK N   1      31.609  15.742   5.321  0.00  0.00    -0.359 OA
BRANCH  11  15
HETATM   15  O   UNK N   1      35.062  16.356   6.085  0.00  0.00    -0.393 OA
HETATM   16  H   UNK N   1      35.796  16.825   6.513  0.00  0.00     0.210 HD
ENDBRANCH  11  15
ENDBRANCH   7   9
BRANCH   3  17
HETATM   17  O   UNK N   1      27.433  18.249   9.392  0.00  0.00    -0.346 OA
HETATM   18  H   UNK N   1      26.774  18.876   9.170  0.00  0.00     0.219 HD
ENDBRANCH   3  17
TORSDOF 3
ENDMDL
MODEL 9
REMARK VINA RESULT:      -5.0      6.642      8.721
REMARK  3 active torsions:
REMARK  status: ('A' for Active; 'I' for Inactive)
REMARK    1  A    between atoms: C_6  and  O_13 
REMARK    2  A    between atoms: O_14  and  C_7 
REMARK    3  A    between atoms: C_8  and  N_12 
ROOT
HETATM    1  C   UNK N   1      34.958  13.914  10.621  0.00  0.00     0.073 A 
HETATM    2  C   UNK N   1      34.186  14.772   9.843  0.00  0.00     0.102 A 
HETATM    3  C   UNK N   1      36.043  14.432  11.312  0.00  0.00     0.144 A 
HETATM    4  C   UNK N   1      35.563  16.601  10.467  0.00  0.00     0.330 A 
HETATM    5  N   UNK N   1      36.325  15.757  11.234  0.00  0.00    -0.289 N 
ATOM      6  HN  UNK N   1      37.118  16.131  11.755  1.00  0.00     0.172 HD
HETATM    7  N   UNK N   1      34.480  16.101   9.754  0.00  0.00    -0.282 N 
HETATM    8  O   UNK N   1      35.856  17.782  10.421  0.00  0.00    -0.246 OA
ENDROOT
BRANCH   7   9
HETATM    9  C   UNK N   1      33.638  16.911   8.847  0.00  0.00     0.235 C 
HETATM   10  C   UNK N   1      34.282  17.074   7.475  0.00  0.00     0.088 C 
HETATM   11  C   UNK N   1      33.081  17.542   6.726  0.00  0.00     0.150 C 
HETATM   12  C   UNK N   1      32.025  16.597   7.281  0.00  0.00     0.148 C 
HETATM   13  C   UNK N   1      32.035  15.246   6.575  0.00  0.00     0.042 C 
HETATM   14  O   UNK N   1      32.334  16.390   8.646  0.00  0.00    -0.359 OA
BRANCH  11  15
HETATM   15  O   UNK N   1      33.229  17.461   5.340  0.00  0.00    -0.393 OA
HETATM   16  H   UNK N   1      32.703  17.566   4.531  0.00  0.00     0.210 HD
ENDBRANCH  11  15
ENDBRANCH   7   9
BRANCH   3  17
HETATM   17  O   UNK N   1      36.815  13.622  12.056  0.00  0.00    -0.346 OA
HETATM   18  H   UNK N   1      36.923  13.773  12.974  0.00  0.00     0.219 HD
ENDBRANCH   3  17
TORSDOF 3
ENDMDL
