MODEL 1
REMARK VINA RESULT:      -8.0      0.000      0.000
REMARK  7 active torsions:
REMARK  status: ('A' for Active; 'I' for Inactive)
REMARK    1  A    between atoms: N_1  and  C_2 
REMARK    2  A    between atoms: C_2  and  C_3 
REMARK    3  A    between atoms: C_6  and  N_7 
REMARK       I    between atoms: N_7  and  C_8 
REMARK    4  A    between atoms: C_8  and  C_10 
REMARK    5  A    between atoms: C_12  and  N_13 
REMARK       I    between atoms: N_13  and  C_14 
REMARK    6  A    between atoms: C_24  and  C_29 
REMARK    7  A    between atoms: C_29  and  N_30 
ROOT
HETATM    1  C   UNK N   1      28.204  17.499   4.677  0.00  0.00     0.035 A 
HETATM    2  C   UNK N   1      29.305  17.064   3.942  0.00  0.00     0.048 A 
HETATM    3  C   UNK N   1      30.577  16.930   4.521  0.00  0.00     0.061 A 
HETATM    4  C   UNK N   1      30.726  17.254   5.914  0.00  0.00     0.002 A 
HETATM    5  C   UNK N   1      31.937  17.163   6.611  0.00  0.00     0.029 A 
HETATM    6  C   UNK N   1      32.028  17.494   7.976  0.00  0.00     0.008 A 
HETATM    7  C   UNK N   1      30.888  17.924   8.657  0.00  0.00     0.016 A 
HETATM    8  C   UNK N   1      29.674  18.024   7.992  0.00  0.00     0.013 A 
HETATM    9  C   UNK N   1      29.587  17.696   6.641  0.00  0.00    -0.023 A 
HETATM   10  C   UNK N   1      28.359  17.810   6.022  0.00  0.00     0.029 A 
ENDROOT
BRANCH   1  11
HETATM   11  C   UNK N   1      26.870  17.642   4.077  0.00  0.00     0.256 C 
HETATM   12  N   UNK N   1      26.096  18.674   4.501  0.00  0.00    -0.323 N 
HETATM   13  H   UNK N   1      26.496  19.254   5.188  0.00  0.00     0.169 HD
HETATM   14  O   UNK N   1      26.476  16.856   3.226  0.00  0.00    -0.267 OA
BRANCH  12  15
HETATM   15  C   UNK N   1      24.791  19.023   4.084  0.00  0.00     0.035 A 
HETATM   16  C   UNK N   1      23.653  18.293   4.459  0.00  0.00     0.030 A 
HETATM   17  C   UNK N   1      22.389  18.695   4.010  0.00  0.00     0.011 A 
HETATM   18  C   UNK N   1      22.258  19.823   3.190  0.00  0.00    -0.041 A 
HETATM   19  C   UNK N   1      23.400  20.546   2.822  0.00  0.00     0.011 A 
HETATM   20  C   UNK N   1      24.654  20.145   3.268  0.00  0.00     0.030 A 
BRANCH  18  21
HETATM   21  C   UNK N   1      20.897  20.236   2.722  0.00  0.00     0.150 C 
BRANCH  21  22
HETATM   22  N   UNK N   1      20.676  19.888   1.324  0.00  0.00    -0.426 N 
HETATM   23  H   UNK N   1      21.470  19.674   0.720  0.00  0.00     0.150 HD
HETATM   24  H   UNK N   1      19.728  19.857   0.949  0.00  0.00     0.150 HD
ENDBRANCH  21  22
ENDBRANCH  18  21
ENDBRANCH  12  15
ENDBRANCH   1  11
BRANCH   3  25
HETATM   25  N   UNK N   1      31.597  16.472   3.627  0.00  0.00    -0.191 N 
HETATM   26  C   UNK N   1      32.439  15.328   3.516  0.00  0.00     0.682 A 
HETATM   27  N   UNK N   1      33.313  15.272   2.475  0.00  0.00    -0.202 N 
HETATM   28  N   UNK N   1      32.396  14.306   4.405  0.00  0.00    -0.202 N 
HETATM   29  C   UNK N   1      34.145  14.210   2.310  0.00  0.00     0.107 A 
ATOM     30  HN  UNK N   1      33.344  16.042   1.806  1.00  0.00     0.183 HD
HETATM   31  C   UNK N   1      34.110  13.156   3.216  0.00  0.00     0.035 A 
HETATM   32  C   UNK N   1      33.211  13.226   4.276  0.00  0.00     0.107 A 
ATOM     33  HN  UNK N   1      31.741  14.348   5.185  1.00  0.00     0.183 HD
HETATM   34  H   UNK N   1      31.759  17.115   2.899  0.00  0.00     0.184 HD
ENDBRANCH   3  25
BRANCH   6  35
HETATM   35  C   UNK N   1      33.310  17.395   8.702  0.00  0.00     0.102 C 
HETATM   36  N   UNK N   1      33.503  16.459   9.557  0.00  0.00    -0.385 N 
HETATM   37  H   UNK N   1      34.360  16.400  10.036  0.00  0.00     0.157 HD
ATOM     38  HN  UNK N   1      32.767  15.777   9.740  1.00  0.00     0.157 HD
BRANCH  35  39
HETATM   39  N   UNK N   1      34.339  18.334   8.458  0.00  0.00    -0.385 N 
HETATM   40  H   UNK N   1      35.276  18.096   8.635  0.00  0.00     0.157 HD
HETATM   41  H   UNK N   1      34.116  19.229   8.109  0.00  0.00     0.157 HD
ENDBRANCH  35  39
ENDBRANCH   6  35
TORSDOF 7
ENDMDL
MODEL 2
REMARK VINA RESULT:      -7.9      2.800     10.187
REMARK  7 active torsions:
REMARK  status: ('A' for Active; 'I' for Inactive)
REMARK    1  A    between atoms: N_1  and  C_2 
REMARK    2  A    between atoms: C_2  and  C_3 
REMARK    3  A    between atoms: C_6  and  N_7 
REMARK       I    between atoms: N_7  and  C_8 
REMARK    4  A    between atoms: C_8  and  C_10 
REMARK    5  A    between atoms: C_12  and  N_13 
REMARK       I    between atoms: N_13  and  C_14 
REMARK    6  A    between atoms: C_24  and  C_29 
REMARK    7  A    between atoms: C_29  and  N_30 
ROOT
HETATM    1  C   UNK N   1      26.384  18.471   4.950  0.00  0.00     0.035 A 
HETATM    2  C   UNK N   1      25.612  17.355   5.269  0.00  0.00     0.048 A 
HETATM    3  C   UNK N   1      24.270  17.247   4.874  0.00  0.00     0.061 A 
HETATM    4  C   UNK N   1      23.694  18.327   4.120  0.00  0.00     0.002 A 
HETATM    5  C   UNK N   1      22.370  18.344   3.667  0.00  0.00     0.029 A 
HETATM    6  C   UNK N   1      21.856  19.429   2.932  0.00  0.00     0.008 A 
HETATM    7  C   UNK N   1      22.681  20.517   2.645  0.00  0.00     0.016 A 
HETATM    8  C   UNK N   1      23.998  20.528   3.082  0.00  0.00     0.013 A 
HETATM    9  C   UNK N   1      24.504  19.453   3.809  0.00  0.00    -0.023 A 
HETATM   10  C   UNK N   1      25.819  19.509   4.222  0.00  0.00     0.029 A 
ENDROOT
BRANCH   1  11
HETATM   11  C   UNK N   1      27.791  18.591   5.361  0.00  0.00     0.256 C 
HETATM   12  N   UNK N   1      28.260  17.701   6.271  0.00  0.00    -0.323 N 
HETATM   13  H   UNK N   1      27.611  17.034   6.590  0.00  0.00     0.169 HD
HETATM   14  O   UNK N   1      28.509  19.466   4.894  0.00  0.00    -0.267 OA
BRANCH  12  15
HETATM   15  C   UNK N   1      29.559  17.606   6.821  0.00  0.00     0.035 A 
HETATM   16  C   UNK N   1      30.639  17.044   6.124  0.00  0.00     0.030 A 
HETATM   17  C   UNK N   1      31.901  16.982   6.729  0.00  0.00     0.011 A 
HETATM   18  C   UNK N   1      32.086  17.479   8.026  0.00  0.00    -0.041 A 
HETATM   19  C   UNK N   1      31.002  18.038   8.713  0.00  0.00     0.011 A 
HETATM   20  C   UNK N   1      29.750  18.099   8.111  0.00  0.00     0.030 A 
BRANCH  18  21
HETATM   21  C   UNK N   1      33.444  17.402   8.654  0.00  0.00     0.150 C 
BRANCH  21  22
HETATM   22  N   UNK N   1      34.273  18.544   8.292  0.00  0.00    -0.426 N 
HETATM   23  H   UNK N   1      33.851  19.466   8.179  0.00  0.00     0.150 HD
HETATM   24  H   UNK N   1      35.276  18.422   8.152  0.00  0.00     0.150 HD
ENDBRANCH  21  22
ENDBRANCH  18  21
ENDBRANCH  12  15
ENDBRANCH   1  11
BRANCH   3  25
HETATM   25  N   UNK N   1      23.621  16.037   5.283  0.00  0.00    -0.191 N 
HETATM   26  C   UNK N   1      22.555  15.679   6.158  0.00  0.00     0.682 A 
HETATM   27  N   UNK N   1      22.232  14.362   6.272  0.00  0.00    -0.202 N 
HETATM   28  N   UNK N   1      21.861  16.600   6.871  0.00  0.00    -0.202 N 
HETATM   29  C   UNK N   1      21.227  13.952   7.089  0.00  0.00     0.107 A 
ATOM     30  HN  UNK N   1      22.755  13.670   5.735  1.00  0.00     0.183 HD
HETATM   31  C   UNK N   1      20.508  14.887   7.825  0.00  0.00     0.035 A 
HETATM   32  C   UNK N   1      20.848  16.231   7.699  0.00  0.00     0.107 A 
ATOM     33  HN  UNK N   1      22.103  17.586   6.785  1.00  0.00     0.183 HD
HETATM   34  H   UNK N   1      24.014  15.247   4.845  0.00  0.00     0.184 HD
ENDBRANCH   3  25
BRANCH   6  35
HETATM   35  C   UNK N   1      20.457  19.436   2.458  0.00  0.00     0.102 C 
HETATM   36  N   UNK N   1      20.082  20.260   1.551  0.00  0.00    -0.385 N 
HETATM   37  H   UNK N   1      19.148  20.259   1.240  0.00  0.00     0.157 HD
ATOM     38  HN  UNK N   1      20.752  20.918   1.151  1.00  0.00     0.157 HD
BRANCH  35  39
HETATM   39  N   UNK N   1      19.518  18.530   3.003  0.00  0.00    -0.385 N 
HETATM   40  H   UNK N   1      18.555  18.676   2.866  0.00  0.00     0.157 HD
HETATM   41  H   UNK N   1      19.829  17.751   3.521  0.00  0.00     0.157 HD
ENDBRANCH  35  39
ENDBRANCH   6  35
TORSDOF 7
ENDMDL
MODEL 3
REMARK VINA RESULT:      -7.8      7.840     13.637
REMARK  7 active torsions:
REMARK  status: ('A' for Active; 'I' for Inactive)
REMARK    1  A    between atoms: N_1  and  C_2 
REMARK    2  A    between atoms: C_2  and  C_3 
REMARK    3  A    between atoms: C_6  and  N_7 
REMARK       I    between atoms: N_7  and  C_8 
REMARK    4  A    between atoms: C_8  and  C_10 
REMARK    5  A    between atoms: C_12  and  N_13 
REMARK       I    between atoms: N_13  and  C_14 
REMARK    6  A    between atoms: C_24  and  C_29 
REMARK    7  A    between atoms: C_29  and  N_30 
ROOT
HETATM    1  C   UNK N   1      35.963  13.200  12.630  0.00  0.00     0.035 A 
HETATM    2  C   UNK N   1      35.614  14.403  12.019  0.00  0.00     0.048 A 
HETATM    3  C   UNK N   1      36.167  14.797  10.790  0.00  0.00     0.061 A 
HETATM    4  C   UNK N   1      37.117  13.921  10.161  0.00  0.00     0.002 A 
HETATM    5  C   UNK N   1      37.740  14.195   8.937  0.00  0.00     0.029 A 
HETATM    6  C   UNK N   1      38.665  13.300   8.365  0.00  0.00     0.008 A 
HETATM    7  C   UNK N   1      38.971  12.110   9.027  0.00  0.00     0.016 A 
HETATM    8  C   UNK N   1      38.369  11.813  10.241  0.00  0.00     0.013 A 
HETATM    9  C   UNK N   1      37.455  12.700  10.806  0.00  0.00    -0.023 A 
HETATM   10  C   UNK N   1      36.881  12.360  12.014  0.00  0.00     0.029 A 
ENDROOT
BRANCH   1  11
HETATM   11  C   UNK N   1      35.388  12.781  13.917  0.00  0.00     0.256 C 
HETATM   12  N   UNK N   1      36.201  12.792  15.003  0.00  0.00    -0.323 N 
HETATM   13  H   UNK N   1      37.127  13.084  14.841  0.00  0.00     0.169 HD
HETATM   14  O   UNK N   1      34.217  12.436  13.999  0.00  0.00    -0.267 OA
BRANCH  12  15
HETATM   15  C   UNK N   1      35.892  12.438  16.337  0.00  0.00     0.035 A 
HETATM   16  C   UNK N   1      35.411  13.364  17.275  0.00  0.00     0.030 A 
HETATM   17  C   UNK N   1      35.125  12.946  18.581  0.00  0.00     0.011 A 
HETATM   18  C   UNK N   1      35.318  11.609  18.951  0.00  0.00    -0.041 A 
HETATM   19  C   UNK N   1      35.798  10.693  18.007  0.00  0.00     0.011 A 
HETATM   20  C   UNK N   1      36.082  11.109  16.712  0.00  0.00     0.030 A 
BRANCH  18  21
HETATM   21  C   UNK N   1      35.006  11.183  20.353  0.00  0.00     0.150 C 
BRANCH  21  22
HETATM   22  N   UNK N   1      36.193  10.710  21.052  0.00  0.00    -0.426 N 
HETATM   23  H   UNK N   1      37.063  11.239  20.996  0.00  0.00     0.150 HD
HETATM   24  H   UNK N   1      36.154   9.849  21.598  0.00  0.00     0.150 HD
ENDBRANCH  21  22
ENDBRANCH  18  21
ENDBRANCH  12  15
ENDBRANCH   1  11
BRANCH   3  25
HETATM   25  N   UNK N   1      35.702  16.060  10.302  0.00  0.00    -0.191 N 
HETATM   26  C   UNK N   1      34.979  16.529   9.167  0.00  0.00     0.682 A 
HETATM   27  N   UNK N   1      34.730  17.863   9.070  0.00  0.00    -0.202 N 
HETATM   28  N   UNK N   1      34.538  15.696   8.193  0.00  0.00    -0.202 N 
HETATM   29  C   UNK N   1      34.046  18.376   8.014  0.00  0.00     0.107 A 
ATOM     30  HN  UNK N   1      35.063  18.489   9.803  1.00  0.00     0.183 HD
HETATM   31  C   UNK N   1      33.588  17.532   7.008  0.00  0.00     0.035 A 
HETATM   32  C   UNK N   1      33.850  16.169   7.120  0.00  0.00     0.107 A 
ATOM     33  HN  UNK N   1      34.725  14.697   8.266  1.00  0.00     0.183 HD
HETATM   34  H   UNK N   1      35.946  16.798  10.908  0.00  0.00     0.184 HD
ENDBRANCH   3  25
BRANCH   6  35
HETATM   35  C   UNK N   1      39.317  13.599   7.074  0.00  0.00     0.102 C 
HETATM   36  N   UNK N   1      40.213  14.512   6.994  0.00  0.00    -0.385 N 
HETATM   37  H   UNK N   1      40.643  14.705   6.130  0.00  0.00     0.157 HD
ATOM     38  HN  UNK N   1      40.481  15.038   7.826  1.00  0.00     0.157 HD
BRANCH  35  39
HETATM   39  N   UNK N   1      38.955  12.878   5.913  0.00  0.00    -0.385 N 
HETATM   40  H   UNK N   1      38.634  13.357   5.115  0.00  0.00     0.157 HD
HETATM   41  H   UNK N   1      39.024  11.895   5.902  0.00  0.00     0.157 HD
ENDBRANCH  35  39
ENDBRANCH   6  35
TORSDOF 7
ENDMDL
MODEL 4
REMARK VINA RESULT:      -7.8      5.157      8.908
REMARK  7 active torsions:
REMARK  status: ('A' for Active; 'I' for Inactive)
REMARK    1  A    between atoms: N_1  and  C_2 
REMARK    2  A    between atoms: C_2  and  C_3 
REMARK    3  A    between atoms: C_6  and  N_7 
REMARK       I    between atoms: N_7  and  C_8 
REMARK    4  A    between atoms: C_8  and  C_10 
REMARK    5  A    between atoms: C_12  and  N_13 
REMARK       I    between atoms: N_13  and  C_14 
REMARK    6  A    between atoms: C_24  and  C_29 
REMARK    7  A    between atoms: C_29  and  N_30 
ROOT
HETATM    1  C   UNK N   1      34.528  16.174   9.040  0.00  0.00     0.035 A 
HETATM    2  C   UNK N   1      35.051  16.136  10.331  0.00  0.00     0.048 A 
HETATM    3  C   UNK N   1      36.078  15.249  10.689  0.00  0.00     0.061 A 
HETATM    4  C   UNK N   1      36.591  14.362   9.680  0.00  0.00     0.002 A 
HETATM    5  C   UNK N   1      37.612  13.431   9.906  0.00  0.00     0.029 A 
HETATM    6  C   UNK N   1      38.077  12.585   8.881  0.00  0.00     0.008 A 
HETATM    7  C   UNK N   1      37.512  12.672   7.607  0.00  0.00     0.016 A 
HETATM    8  C   UNK N   1      36.499  13.586   7.355  0.00  0.00     0.013 A 
HETATM    9  C   UNK N   1      36.040  14.422   8.371  0.00  0.00    -0.023 A 
HETATM   10  C   UNK N   1      35.031  15.314   8.073  0.00  0.00     0.029 A 
ENDROOT
BRANCH   1  11
HETATM   11  C   UNK N   1      33.453  17.102   8.659  0.00  0.00     0.256 C 
HETATM   12  N   UNK N   1      32.214  16.583   8.462  0.00  0.00    -0.323 N 
HETATM   13  H   UNK N   1      32.132  15.611   8.592  0.00  0.00     0.169 HD
HETATM   14  O   UNK N   1      33.673  18.298   8.525  0.00  0.00    -0.267 OA
BRANCH  12  15
HETATM   15  C   UNK N   1      31.027  17.256   8.094  0.00  0.00     0.035 A 
HETATM   16  C   UNK N   1      30.271  18.012   9.003  0.00  0.00     0.030 A 
HETATM   17  C   UNK N   1      29.103  18.654   8.572  0.00  0.00     0.011 A 
HETATM   18  C   UNK N   1      28.689  18.543   7.238  0.00  0.00    -0.041 A 
HETATM   19  C   UNK N   1      29.451  17.786   6.339  0.00  0.00     0.011 A 
HETATM   20  C   UNK N   1      30.609  17.149   6.768  0.00  0.00     0.030 A 
BRANCH  18  21
HETATM   21  C   UNK N   1      27.437  19.237   6.797  0.00  0.00     0.150 C 
BRANCH  21  22
HETATM   22  N   UNK N   1      26.932  20.143   7.821  0.00  0.00    -0.426 N 
HETATM   23  H   UNK N   1      27.577  20.741   8.336  0.00  0.00     0.150 HD
HETATM   24  H   UNK N   1      25.932  20.178   8.022  0.00  0.00     0.150 HD
ENDBRANCH  21  22
ENDBRANCH  18  21
ENDBRANCH  12  15
ENDBRANCH   1  11
BRANCH   3  25
HETATM   25  N   UNK N   1      36.499  15.339  12.054  0.00  0.00    -0.191 N 
HETATM   26  C   UNK N   1      36.316  14.580  13.247  0.00  0.00     0.682 A 
HETATM   27  N   UNK N   1      36.911  15.024  14.388  0.00  0.00    -0.202 N 
HETATM   28  N   UNK N   1      35.577  13.445  13.278  0.00  0.00    -0.202 N 
HETATM   29  C   UNK N   1      36.777  14.348  15.559  0.00  0.00     0.107 A 
ATOM     30  HN  UNK N   1      37.467  15.879  14.363  1.00  0.00     0.183 HD
HETATM   31  C   UNK N   1      36.021  13.182  15.604  0.00  0.00     0.035 A 
HETATM   32  C   UNK N   1      35.419  12.740  14.429  0.00  0.00     0.107 A 
ATOM     33  HN  UNK N   1      35.133  13.113  12.423  1.00  0.00     0.183 HD
HETATM   34  H   UNK N   1      37.063  16.132  12.210  0.00  0.00     0.184 HD
ENDBRANCH   3  25
BRANCH   6  35
HETATM   35  C   UNK N   1      39.155  11.606   9.129  0.00  0.00     0.102 C 
HETATM   36  N   UNK N   1      40.354  11.847   8.744  0.00  0.00    -0.385 N 
HETATM   37  H   UNK N   1      41.066  11.190   8.913  0.00  0.00     0.157 HD
ATOM     38  HN  UNK N   1      40.568  12.720   8.261  1.00  0.00     0.157 HD
BRANCH  35  39
HETATM   39  N   UNK N   1      38.871  10.392   9.796  0.00  0.00    -0.385 N 
HETATM   40  H   UNK N   1      38.149  10.354  10.464  0.00  0.00     0.157 HD
HETATM   41  H   UNK N   1      39.396   9.584   9.592  0.00  0.00     0.157 HD
ENDBRANCH  35  39
ENDBRANCH   6  35
TORSDOF 7
ENDMDL
MODEL 5
REMARK VINA RESULT:      -7.7      9.807     13.954
REMARK  7 active torsions:
REMARK  status: ('A' for Active; 'I' for Inactive)
REMARK    1  A    between atoms: N_1  and  C_2 
REMARK    2  A    between atoms: C_2  and  C_3 
REMARK    3  A    between atoms: C_6  and  N_7 
REMARK       I    between atoms: N_7  and  C_8 
REMARK    4  A    between atoms: C_8  and  C_10 
REMARK    5  A    between atoms: C_12  and  N_13 
REMARK       I    between atoms: N_13  and  C_14 
REMARK    6  A    between atoms: C_24  and  C_29 
REMARK    7  A    between atoms: C_29  and  N_30 
ROOT
HETATM    1  C   UNK N   1      36.217  12.466  14.175  0.00  0.00     0.035 A 
HETATM    2  C   UNK N   1      36.687  11.159  14.289  0.00  0.00     0.048 A 
HETATM    3  C   UNK N   1      36.674  10.471  15.512  0.00  0.00     0.061 A 
HETATM    4  C   UNK N   1      36.156  11.151  16.668  0.00  0.00     0.002 A 
HETATM    5  C   UNK N   1      36.087  10.578  17.944  0.00  0.00     0.029 A 
HETATM    6  C   UNK N   1      35.570  11.289  19.043  0.00  0.00     0.008 A 
HETATM    7  C   UNK N   1      35.114  12.596  18.864  0.00  0.00     0.016 A 
HETATM    8  C   UNK N   1      35.171  13.189  17.611  0.00  0.00     0.013 A 
HETATM    9  C   UNK N   1      35.683  12.483  16.525  0.00  0.00    -0.023 A 
HETATM   10  C   UNK N   1      35.719  13.114  15.298  0.00  0.00     0.029 A 
ENDROOT
BRANCH   1  11
HETATM   11  C   UNK N   1      36.228  13.193  12.898  0.00  0.00     0.256 C 
HETATM   12  N   UNK N   1      35.181  14.015  12.631  0.00  0.00    -0.323 N 
HETATM   13  H   UNK N   1      34.485  14.060  13.326  0.00  0.00     0.169 HD
HETATM   14  O   UNK N   1      37.152  13.059  12.106  0.00  0.00    -0.267 OA
BRANCH  12  15
HETATM   15  C   UNK N   1      34.959  14.814  11.487  0.00  0.00     0.035 A 
HETATM   16  C   UNK N   1      34.171  14.390  10.406  0.00  0.00     0.030 A 
HETATM   17  C   UNK N   1      33.992  15.233   9.302  0.00  0.00     0.011 A 
HETATM   18  C   UNK N   1      34.597  16.496   9.275  0.00  0.00    -0.041 A 
HETATM   19  C   UNK N   1      35.382  16.910  10.358  0.00  0.00     0.011 A 
HETATM   20  C   UNK N   1      35.558  16.072  11.453  0.00  0.00     0.030 A 
BRANCH  18  21
HETATM   21  C   UNK N   1      34.393  17.382   8.084  0.00  0.00     0.150 C 
BRANCH  21  22
HETATM   22  N   UNK N   1      34.760  18.763   8.367  0.00  0.00    -0.426 N 
HETATM   23  H   UNK N   1      34.209  19.313   9.027  0.00  0.00     0.150 HD
HETATM   24  H   UNK N   1      35.568  19.181   7.905  0.00  0.00     0.150 HD
ENDBRANCH  21  22
ENDBRANCH  18  21
ENDBRANCH  12  15
ENDBRANCH   1  11
BRANCH   3  25
HETATM   25  N   UNK N   1      37.193   9.137  15.455  0.00  0.00    -0.191 N 
HETATM   26  C   UNK N   1      38.465   8.530  15.245  0.00  0.00     0.682 A 
HETATM   27  N   UNK N   1      38.539   7.171  15.267  0.00  0.00    -0.202 N 
HETATM   28  N   UNK N   1      39.589   9.255  15.027  0.00  0.00    -0.202 N 
HETATM   29  C   UNK N   1      39.720   6.528  15.074  0.00  0.00     0.107 A 
ATOM     30  HN  UNK N   1      37.692   6.626  15.431  1.00  0.00     0.183 HD
HETATM   31  C   UNK N   1      40.880   7.261  14.850  0.00  0.00     0.035 A 
HETATM   32  C   UNK N   1      40.789   8.650  14.830  0.00  0.00     0.107 A 
ATOM     33  HN  UNK N   1      39.532  10.272  15.011  1.00  0.00     0.183 HD
HETATM   34  H   UNK N   1      36.487   8.465  15.597  0.00  0.00     0.184 HD
ENDBRANCH   3  25
BRANCH   6  35
HETATM   35  C   UNK N   1      35.501  10.676  20.385  0.00  0.00     0.102 C 
HETATM   36  N   UNK N   1      36.498  10.754  21.188  0.00  0.00    -0.385 N 
HETATM   37  H   UNK N   1      36.444  10.343  22.080  0.00  0.00     0.157 HD
ATOM     38  HN  UNK N   1      37.346  11.243  20.901  1.00  0.00     0.157 HD
BRANCH  35  39
HETATM   39  N   UNK N   1      34.332   9.995  20.795  0.00  0.00    -0.385 N 
HETATM   40  H   UNK N   1      34.280   9.016  20.721  0.00  0.00     0.157 HD
HETATM   41  H   UNK N   1      33.568  10.502  21.156  0.00  0.00     0.157 HD
ENDBRANCH  35  39
ENDBRANCH   6  35
TORSDOF 7
ENDMDL
MODEL 6
REMARK VINA RESULT:      -7.5      1.862      2.227
REMARK  7 active torsions:
REMARK  status: ('A' for Active; 'I' for Inactive)
REMARK    1  A    between atoms: N_1  and  C_2 
REMARK    2  A    between atoms: C_2  and  C_3 
REMARK    3  A    between atoms: C_6  and  N_7 
REMARK       I    between atoms: N_7  and  C_8 
REMARK    4  A    between atoms: C_8  and  C_10 
REMARK    5  A    between atoms: C_12  and  N_13 
REMARK       I    between atoms: N_13  and  C_14 
REMARK    6  A    between atoms: C_24  and  C_29 
REMARK    7  A    between atoms: C_29  and  N_30 
ROOT
HETATM    1  C   UNK N   1      27.468  18.621   5.699  0.00  0.00     0.035 A 
HETATM    2  C   UNK N   1      28.114  17.744   4.829  0.00  0.00     0.048 A 
HETATM    3  C   UNK N   1      29.311  17.101   5.180  0.00  0.00     0.061 A 
HETATM    4  C   UNK N   1      29.870  17.367   6.477  0.00  0.00     0.002 A 
HETATM    5  C   UNK N   1      31.056  16.792   6.949  0.00  0.00     0.029 A 
HETATM    6  C   UNK N   1      31.561  17.088   8.230  0.00  0.00     0.008 A 
HETATM    7  C   UNK N   1      30.866  17.976   9.054  0.00  0.00     0.016 A 
HETATM    8  C   UNK N   1      29.688  18.561   8.612  0.00  0.00     0.013 A 
HETATM    9  C   UNK N   1      29.191  18.266   7.344  0.00  0.00    -0.023 A 
HETATM   10  C   UNK N   1      28.016  18.872   6.950  0.00  0.00     0.029 A 
ENDROOT
BRANCH   1  11
HETATM   11  C   UNK N   1      26.214  19.298   5.338  0.00  0.00     0.256 C 
HETATM   12  N   UNK N   1      25.348  18.632   4.532  0.00  0.00    -0.323 N 
HETATM   13  H   UNK N   1      25.632  17.734   4.248  0.00  0.00     0.169 HD
HETATM   14  O   UNK N   1      25.965  20.422   5.752  0.00  0.00    -0.267 OA
BRANCH  12  15
HETATM   15  C   UNK N   1      24.091  19.060   4.047  0.00  0.00     0.035 A 
HETATM   16  C   UNK N   1      23.946  20.142   3.166  0.00  0.00     0.030 A 
HETATM   17  C   UNK N   1      22.670  20.513   2.724  0.00  0.00     0.011 A 
HETATM   18  C   UNK N   1      21.540  19.809   3.160  0.00  0.00    -0.041 A 
HETATM   19  C   UNK N   1      21.695  18.731   4.040  0.00  0.00     0.011 A 
HETATM   20  C   UNK N   1      22.963  18.363   4.477  0.00  0.00     0.030 A 
BRANCH  18  21
HETATM   21  C   UNK N   1      20.185  20.223   2.675  0.00  0.00     0.150 C 
BRANCH  21  22
HETATM   22  N   UNK N   1      19.302  19.078   2.492  0.00  0.00    -0.426 N 
HETATM   23  H   UNK N   1      19.651  18.134   2.654  0.00  0.00     0.150 HD
HETATM   24  H   UNK N   1      18.335  19.221   2.201  0.00  0.00     0.150 HD
ENDBRANCH  21  22
ENDBRANCH  18  21
ENDBRANCH  12  15
ENDBRANCH   1  11
BRANCH   3  25
HETATM   25  N   UNK N   1      29.842  16.233   4.172  0.00  0.00    -0.191 N 
HETATM   26  C   UNK N   1      29.857  14.831   3.916  0.00  0.00     0.682 A 
HETATM   27  N   UNK N   1      30.498  14.389   2.800  0.00  0.00    -0.202 N 
HETATM   28  N   UNK N   1      29.259  13.936   4.740  0.00  0.00    -0.202 N 
HETATM   29  C   UNK N   1      30.550  13.066   2.496  0.00  0.00     0.107 A 
ATOM     30  HN  UNK N   1      30.948  15.063   2.181  1.00  0.00     0.183 HD
HETATM   31  C   UNK N   1      29.941  12.138   3.334  0.00  0.00     0.035 A 
HETATM   32  C   UNK N   1      29.289  12.604   4.472  0.00  0.00     0.107 A 
ATOM     33  HN  UNK N   1      28.779  14.268   5.575  1.00  0.00     0.183 HD
HETATM   34  H   UNK N   1      30.323  16.736   3.475  0.00  0.00     0.184 HD
ENDBRANCH   3  25
BRANCH   6  35
HETATM   35  C   UNK N   1      32.813  16.476   8.717  0.00  0.00     0.102 C 
HETATM   36  N   UNK N   1      33.052  15.234   8.512  0.00  0.00    -0.385 N 
HETATM   37  H   UNK N   1      33.889  14.833   8.840  0.00  0.00     0.157 HD
ATOM     38  HN  UNK N   1      32.375  14.660   8.008  1.00  0.00     0.157 HD
BRANCH  35  39
HETATM   39  N   UNK N   1      33.760  17.259   9.417  0.00  0.00    -0.385 N 
HETATM   40  H   UNK N   1      34.721  17.068   9.327  0.00  0.00     0.157 HD
HETATM   41  H   UNK N   1      33.457  17.997   9.996  0.00  0.00     0.157 HD
ENDBRANCH  35  39
ENDBRANCH   6  35
TORSDOF 7
ENDMDL
MODEL 7
REMARK VINA RESULT:      -7.4      2.909      9.573
REMARK  7 active torsions:
REMARK  status: ('A' for Active; 'I' for Inactive)
REMARK    1  A    between atoms: N_1  and  C_2 
REMARK    2  A    between atoms: C_2  and  C_3 
REMARK    3  A    between atoms: C_6  and  N_7 
REMARK       I    between atoms: N_7  and  C_8 
REMARK    4  A    between atoms: C_8  and  C_10 
REMARK    5  A    between atoms: C_12  and  N_13 
REMARK       I    between atoms: N_13  and  C_14 
REMARK    6  A    between atoms: C_24  and  C_29 
REMARK    7  A    between atoms: C_29  and  N_30 
ROOT
HETATM    1  C   UNK N   1      27.283  17.692   4.990  0.00  0.00     0.035 A 
HETATM    2  C   UNK N   1      26.302  16.778   5.372  0.00  0.00     0.048 A 
HETATM    3  C   UNK N   1      24.943  16.988   5.086  0.00  0.00     0.061 A 
HETATM    4  C   UNK N   1      24.575  18.185   4.380  0.00  0.00     0.002 A 
HETATM    5  C   UNK N   1      23.258  18.513   4.034  0.00  0.00     0.029 A 
HETATM    6  C   UNK N   1      22.952  19.699   3.341  0.00  0.00     0.008 A 
HETATM    7  C   UNK N   1      23.981  20.574   2.987  0.00  0.00     0.016 A 
HETATM    8  C   UNK N   1      25.295  20.275   3.317  0.00  0.00     0.013 A 
HETATM    9  C   UNK N   1      25.596  19.099   4.003  0.00  0.00    -0.023 A 
HETATM   10  C   UNK N   1      26.916  18.845   4.308  0.00  0.00     0.029 A 
ENDROOT
BRANCH   1  11
HETATM   11  C   UNK N   1      28.707  17.478   5.286  0.00  0.00     0.256 C 
HETATM   12  N   UNK N   1      29.042  17.131   6.554  0.00  0.00    -0.323 N 
HETATM   13  H   UNK N   1      28.293  17.048   7.187  0.00  0.00     0.169 HD
HETATM   14  O   UNK N   1      29.556  17.611   4.415  0.00  0.00    -0.267 OA
BRANCH  12  15
HETATM   15  C   UNK N   1      30.326  16.873   7.086  0.00  0.00     0.035 A 
HETATM   16  C   UNK N   1      31.059  15.717   6.774  0.00  0.00     0.030 A 
HETATM   17  C   UNK N   1      32.326  15.524   7.337  0.00  0.00     0.011 A 
HETATM   18  C   UNK N   1      32.864  16.480   8.208  0.00  0.00    -0.041 A 
HETATM   19  C   UNK N   1      32.125  17.630   8.513  0.00  0.00     0.011 A 
HETATM   20  C   UNK N   1      30.867  17.820   7.954  0.00  0.00     0.030 A 
BRANCH  18  21
HETATM   21  C   UNK N   1      34.222  16.254   8.799  0.00  0.00     0.150 C 
BRANCH  21  22
HETATM   22  N   UNK N   1      34.453  17.098   9.964  0.00  0.00    -0.426 N 
HETATM   23  H   UNK N   1      33.662  17.458  10.498  0.00  0.00     0.150 HD
HETATM   24  H   UNK N   1      35.406  17.329  10.245  0.00  0.00     0.150 HD
ENDBRANCH  21  22
ENDBRANCH  18  21
ENDBRANCH  12  15
ENDBRANCH   1  11
BRANCH   3  25
HETATM   25  N   UNK N   1      24.068  15.953   5.547  0.00  0.00    -0.191 N 
HETATM   26  C   UNK N   1      24.116  14.913   6.521  0.00  0.00     0.682 A 
HETATM   27  N   UNK N   1      23.027  14.109   6.656  0.00  0.00    -0.202 N 
HETATM   28  N   UNK N   1      25.201  14.705   7.306  0.00  0.00    -0.202 N 
HETATM   29  C   UNK N   1      23.007  13.099   7.564  0.00  0.00     0.107 A 
ATOM     30  HN  UNK N   1      22.212  14.267   6.064  1.00  0.00     0.183 HD
HETATM   31  C   UNK N   1      24.114  12.875   8.376  0.00  0.00     0.035 A 
HETATM   32  C   UNK N   1      25.221  13.706   8.227  0.00  0.00     0.107 A 
ATOM     33  HN  UNK N   1      26.016  15.308   7.205  1.00  0.00     0.183 HD
HETATM   34  H   UNK N   1      23.208  15.962   5.067  0.00  0.00     0.184 HD
ENDBRANCH   3  25
BRANCH   6  35
HETATM   35  C   UNK N   1      21.560  20.036   2.982  0.00  0.00     0.102 C 
HETATM   36  N   UNK N   1      21.272  21.193   2.511  0.00  0.00    -0.385 N 
HETATM   37  H   UNK N   1      20.342  21.410   2.274  0.00  0.00     0.157 HD
ATOM     38  HN  UNK N   1      22.007  21.889   2.383  1.00  0.00     0.157 HD
BRANCH  35  39
HETATM   39  N   UNK N   1      20.532  19.081   3.154  0.00  0.00    -0.385 N 
HETATM   40  H   UNK N   1      20.720  18.232   3.614  0.00  0.00     0.157 HD
HETATM   41  H   UNK N   1      19.626  19.265   2.813  0.00  0.00     0.157 HD
ENDBRANCH  35  39
ENDBRANCH   6  35
TORSDOF 7
ENDMDL
MODEL 8
REMARK VINA RESULT:      -7.2      2.905      9.709
REMARK  7 active torsions:
REMARK  status: ('A' for Active; 'I' for Inactive)
REMARK    1  A    between atoms: N_1  and  C_2 
REMARK    2  A    between atoms: C_2  and  C_3 
REMARK    3  A    between atoms: C_6  and  N_7 
REMARK       I    between atoms: N_7  and  C_8 
REMARK    4  A    between atoms: C_8  and  C_10 
REMARK    5  A    between atoms: C_12  and  N_13 
REMARK       I    between atoms: N_13  and  C_14 
REMARK    6  A    between atoms: C_24  and  C_29 
REMARK    7  A    between atoms: C_29  and  N_30 
ROOT
HETATM    1  C   UNK N   1      26.341  18.328   4.859  0.00  0.00     0.035 A 
HETATM    2  C   UNK N   1      25.681  17.143   5.180  0.00  0.00     0.048 A 
HETATM    3  C   UNK N   1      24.330  16.938   4.861  0.00  0.00     0.061 A 
HETATM    4  C   UNK N   1      23.623  17.992   4.185  0.00  0.00     0.002 A 
HETATM    5  C   UNK N   1      22.276  17.915   3.812  0.00  0.00     0.029 A 
HETATM    6  C   UNK N   1      21.633  18.978   3.151  0.00  0.00     0.008 A 
HETATM    7  C   UNK N   1      22.349  20.140   2.858  0.00  0.00     0.016 A 
HETATM    8  C   UNK N   1      23.685  20.245   3.216  0.00  0.00     0.013 A 
HETATM    9  C   UNK N   1      24.320  19.191   3.870  0.00  0.00    -0.023 A 
HETATM   10  C   UNK N   1      25.650  19.340   4.206  0.00  0.00     0.029 A 
ENDROOT
BRANCH   1  11
HETATM   11  C   UNK N   1      27.756  18.549   5.190  0.00  0.00     0.256 C 
HETATM   12  N   UNK N   1      28.494  17.471   5.555  0.00  0.00    -0.323 N 
HETATM   13  H   UNK N   1      28.015  16.611   5.570  0.00  0.00     0.169 HD
HETATM   14  O   UNK N   1      28.246  19.670   5.135  0.00  0.00    -0.267 OA
BRANCH  12  15
HETATM   15  C   UNK N   1      29.859  17.420   5.917  0.00  0.00     0.035 A 
HETATM   16  C   UNK N   1      30.290  17.362   7.251  0.00  0.00     0.030 A 
HETATM   17  C   UNK N   1      31.659  17.314   7.539  0.00  0.00     0.011 A 
HETATM   18  C   UNK N   1      32.599  17.324   6.500  0.00  0.00    -0.041 A 
HETATM   19  C   UNK N   1      32.160  17.383   5.172  0.00  0.00     0.011 A 
HETATM   20  C   UNK N   1      30.800  17.430   4.887  0.00  0.00     0.030 A 
BRANCH  18  21
HETATM   21  C   UNK N   1      34.059  17.272   6.830  0.00  0.00     0.150 C 
BRANCH  21  22
HETATM   22  N   UNK N   1      34.397  18.163   7.933  0.00  0.00    -0.426 N 
HETATM   23  H   UNK N   1      34.983  17.828   8.698  0.00  0.00     0.150 HD
HETATM   24  H   UNK N   1      34.047  19.121   7.941  0.00  0.00     0.150 HD
ENDBRANCH  21  22
ENDBRANCH  18  21
ENDBRANCH  12  15
ENDBRANCH   1  11
BRANCH   3  25
HETATM   25  N   UNK N   1      23.806  15.666   5.261  0.00  0.00    -0.191 N 
HETATM   26  C   UNK N   1      23.443  14.447   4.617  0.00  0.00     0.682 A 
HETATM   27  N   UNK N   1      22.965  13.432   5.387  0.00  0.00    -0.202 N 
HETATM   28  N   UNK N   1      23.559  14.271   3.278  0.00  0.00    -0.202 N 
HETATM   29  C   UNK N   1      22.601  12.244   4.838  0.00  0.00     0.107 A 
ATOM     30  HN  UNK N   1      22.878  13.566   6.395  1.00  0.00     0.183 HD
HETATM   31  C   UNK N   1      22.715  12.052   3.465  0.00  0.00     0.035 A 
HETATM   32  C   UNK N   1      23.206  13.098   2.690  0.00  0.00     0.107 A 
ATOM     33  HN  UNK N   1      23.918  15.032   2.703  1.00  0.00     0.183 HD
HETATM   34  H   UNK N   1      23.659  15.622   6.234  0.00  0.00     0.184 HD
ENDBRANCH   3  25
BRANCH   6  35
HETATM   35  C   UNK N   1      20.211  18.887   2.762  0.00  0.00     0.102 C 
HETATM   36  N   UNK N   1      19.655  19.835   2.103  0.00  0.00    -0.385 N 
HETATM   37  H   UNK N   1      18.707  19.767   1.847  0.00  0.00     0.157 HD
ATOM     38  HN  UNK N   1      20.196  20.661   1.844  1.00  0.00     0.157 HD
BRANCH  35  39
HETATM   39  N   UNK N   1      19.451  17.748   3.115  0.00  0.00    -0.385 N 
HETATM   40  H   UNK N   1      19.700  17.214   3.903  0.00  0.00     0.157 HD
HETATM   41  H   UNK N   1      18.671  17.489   2.572  0.00  0.00     0.157 HD
ENDBRANCH  35  39
ENDBRANCH   6  35
TORSDOF 7
ENDMDL
MODEL 9
REMARK VINA RESULT:      -7.1      8.139     13.203
REMARK  7 active torsions:
REMARK  status: ('A' for Active; 'I' for Inactive)
REMARK    1  A    between atoms: N_1  and  C_2 
REMARK    2  A    between atoms: C_2  and  C_3 
REMARK    3  A    between atoms: C_6  and  N_7 
REMARK       I    between atoms: N_7  and  C_8 
REMARK    4  A    between atoms: C_8  and  C_10 
REMARK    5  A    between atoms: C_12  and  N_13 
REMARK       I    between atoms: N_13  and  C_14 
REMARK    6  A    between atoms: C_24  and  C_29 
REMARK    7  A    between atoms: C_29  and  N_30 
ROOT
HETATM    1  C   UNK N   1      35.789  13.370  12.739  0.00  0.00     0.035 A 
HETATM    2  C   UNK N   1      35.558  12.440  11.728  0.00  0.00     0.048 A 
HETATM    3  C   UNK N   1      35.218  12.833  10.424  0.00  0.00     0.061 A 
HETATM    4  C   UNK N   1      35.110  14.239  10.144  0.00  0.00     0.002 A 
HETATM    5  C   UNK N   1      34.778  14.761   8.889  0.00  0.00     0.029 A 
HETATM    6  C   UNK N   1      34.686  16.149   8.669  0.00  0.00     0.008 A 
HETATM    7  C   UNK N   1      34.929  17.030   9.725  0.00  0.00     0.016 A 
HETATM    8  C   UNK N   1      35.260  16.540  10.980  0.00  0.00     0.013 A 
HETATM    9  C   UNK N   1      35.351  15.166  11.194  0.00  0.00    -0.023 A 
HETATM   10  C   UNK N   1      35.682  14.726  12.459  0.00  0.00     0.029 A 
ENDROOT
BRANCH   1  11
HETATM   11  C   UNK N   1      36.146  12.966  14.107  0.00  0.00     0.256 C 
HETATM   12  N   UNK N   1      35.135  12.790  14.996  0.00  0.00    -0.323 N 
HETATM   13  H   UNK N   1      34.228  12.950  14.649  0.00  0.00     0.169 HD
HETATM   14  O   UNK N   1      37.315  12.797  14.428  0.00  0.00    -0.267 OA
BRANCH  12  15
HETATM   15  C   UNK N   1      35.215  12.408  16.355  0.00  0.00     0.035 A 
HETATM   16  C   UNK N   1      35.177  13.335  17.407  0.00  0.00     0.030 A 
HETATM   17  C   UNK N   1      35.260  12.888  18.731  0.00  0.00     0.011 A 
HETATM   18  C   UNK N   1      35.382  11.520  19.007  0.00  0.00    -0.041 A 
HETATM   19  C   UNK N   1      35.419  10.602  17.950  0.00  0.00     0.011 A 
HETATM   20  C   UNK N   1      35.336  11.048  16.636  0.00  0.00     0.030 A 
BRANCH  18  21
HETATM   21  C   UNK N   1      35.470  11.063  20.431  0.00  0.00     0.150 C 
BRANCH  21  22
HETATM   22  N   UNK N   1      34.161  11.022  21.069  0.00  0.00    -0.426 N 
HETATM   23  H   UNK N   1      33.565  11.850  21.065  0.00  0.00     0.150 HD
HETATM   24  H   UNK N   1      33.839  10.164  21.519  0.00  0.00     0.150 HD
ENDBRANCH  21  22
ENDBRANCH  18  21
ENDBRANCH  12  15
ENDBRANCH   1  11
BRANCH   3  25
HETATM   25  N   UNK N   1      35.015  11.752   9.507  0.00  0.00    -0.191 N 
HETATM   26  C   UNK N   1      34.110  10.658   9.380  0.00  0.00     0.682 A 
HETATM   27  N   UNK N   1      34.260   9.821   8.318  0.00  0.00    -0.202 N 
HETATM   28  N   UNK N   1      33.117  10.430  10.273  0.00  0.00    -0.202 N 
HETATM   29  C   UNK N   1      33.432   8.759   8.136  0.00  0.00     0.107 A 
ATOM     30  HN  UNK N   1      35.008   9.994   7.645  1.00  0.00     0.183 HD
HETATM   31  C   UNK N   1      32.410   8.515   9.047  0.00  0.00     0.035 A 
HETATM   32  C   UNK N   1      32.268   9.379  10.128  0.00  0.00     0.107 A 
ATOM     33  HN  UNK N   1      33.006  11.058  11.069  1.00  0.00     0.183 HD
HETATM   34  H   UNK N   1      35.672  11.768   8.773  0.00  0.00     0.184 HD
ENDBRANCH   3  25
BRANCH   6  35
HETATM   35  C   UNK N   1      34.335  16.690   7.341  0.00  0.00     0.102 C 
HETATM   36  N   UNK N   1      34.522  15.989   6.283  0.00  0.00    -0.385 N 
HETATM   37  H   UNK N   1      34.287  16.357   5.402  0.00  0.00     0.157 HD
ATOM     38  HN  UNK N   1      34.916  15.051   6.357  1.00  0.00     0.157 HD
BRANCH  35  39
HETATM   39  N   UNK N   1      33.789  17.989   7.225  0.00  0.00    -0.385 N 
HETATM   40  H   UNK N   1      33.493  18.323   6.348  0.00  0.00     0.157 HD
HETATM   41  H   UNK N   1      33.705  18.561   8.023  0.00  0.00     0.157 HD
ENDBRANCH  35  39
ENDBRANCH   6  35
TORSDOF 7
ENDMDL
