MODEL 1
REMARK VINA RESULT:      -4.4      0.000      0.000
REMARK  6 active torsions:
REMARK  status: ('A' for Active; 'I' for Inactive)
REMARK    1  A    between atoms: C_2  and  C_4 
REMARK    2  A    between atoms: C_4  and  S_5 
REMARK    3  A    between atoms: S_5  and  C_6 
REMARK    4  A    between atoms: C_6  and  C_7 
REMARK    5  A    between atoms: C_7  and  S_8 
REMARK    6  A    between atoms: S_8  and  O_9 
ROOT
HETATM    1  C   UNK N   1      32.974  15.904   9.085  0.00  0.00     0.091 C 
ENDROOT
BRANCH   1   2
HETATM    2  S   UNK N   1      31.862  16.705   7.890  0.00  0.00    -0.161 SA
BRANCH   2   3
HETATM    3  C   UNK N   1      32.843  16.116   6.480  0.00  0.00     0.151 C 
BRANCH   3   4
HETATM    4  C   UNK N   1      33.342  17.270   5.673  0.00  0.00     0.132 C 
HETATM    5  C   UNK N   1      32.792  17.514   4.310  0.00  0.00     0.091 C 
HETATM    6  O   UNK N   1      34.215  17.996   6.113  0.00  0.00    -0.298 OA
ENDBRANCH   3   4
ENDBRANCH   2   3
ENDBRANCH   1   2
BRANCH   1   7
HETATM    7  C   UNK N   1      34.266  16.696   9.195  0.00  0.00     0.165 C 
BRANCH   7   8
HETATM    8  S   UNK N   1      35.241  16.142  10.631  0.00  0.00     0.094 S 
HETATM    9  O   UNK N   1      35.741  15.387   9.390  0.00  0.00    -0.601 OA
HETATM   10  O   UNK N   1      35.691  17.567  10.277  0.00  0.00    -0.601 OA
BRANCH   8  11
HETATM   11  O   UNK N   1      36.934  16.096  10.904  0.00  0.00    -0.296 OA
HETATM   12  H   UNK N   1      37.365  15.421  11.451  0.00  0.00     0.232 HD
ENDBRANCH   8  11
ENDBRANCH   7   8
ENDBRANCH   1   7
TORSDOF 6
ENDMDL
MODEL 2
REMARK VINA RESULT:      -4.3     13.236     15.305
REMARK  6 active torsions:
REMARK  status: ('A' for Active; 'I' for Inactive)
REMARK    1  A    between atoms: C_2  and  C_4 
REMARK    2  A    between atoms: C_4  and  S_5 
REMARK    3  A    between atoms: S_5  and  C_6 
REMARK    4  A    between atoms: C_6  and  C_7 
REMARK    5  A    between atoms: C_7  and  S_8 
REMARK    6  A    between atoms: S_8  and  O_9 
ROOT
HETATM    1  C   UNK N   1      28.787  24.176  -3.802  0.00  0.00     0.091 C 
ENDROOT
BRANCH   1   2
HETATM    2  S   UNK N   1      28.415  25.921  -4.151  0.00  0.00    -0.161 SA
BRANCH   2   3
HETATM    3  C   UNK N   1      26.688  25.728  -3.625  0.00  0.00     0.151 C 
BRANCH   3   4
HETATM    4  C   UNK N   1      25.972  27.038  -3.692  0.00  0.00     0.132 C 
HETATM    5  C   UNK N   1      25.345  27.475  -4.971  0.00  0.00     0.091 C 
HETATM    6  O   UNK N   1      25.922  27.762  -2.715  0.00  0.00    -0.298 OA
ENDBRANCH   3   4
ENDBRANCH   2   3
ENDBRANCH   1   2
BRANCH   1   7
HETATM    7  C   UNK N   1      30.152  24.065  -3.141  0.00  0.00     0.165 C 
BRANCH   7   8
HETATM    8  S   UNK N   1      30.629  22.318  -2.941  0.00  0.00     0.094 S 
HETATM    9  O   UNK N   1      31.805  23.067  -3.586  0.00  0.00    -0.601 OA
HETATM   10  O   UNK N   1      30.629  22.968  -1.549  0.00  0.00    -0.601 OA
BRANCH   8  11
HETATM   11  O   UNK N   1      31.978  21.591  -2.169  0.00  0.00    -0.296 OA
HETATM   12  H   UNK N   1      32.859  21.545  -2.573  0.00  0.00     0.232 HD
ENDBRANCH   8  11
ENDBRANCH   7   8
ENDBRANCH   1   7
TORSDOF 6
ENDMDL
MODEL 3
REMARK VINA RESULT:      -4.2     13.637     14.917
REMARK  6 active torsions:
REMARK  status: ('A' for Active; 'I' for Inactive)
REMARK    1  A    between atoms: C_2  and  C_4 
REMARK    2  A    between atoms: C_4  and  S_5 
REMARK    3  A    between atoms: S_5  and  C_6 
REMARK    4  A    between atoms: C_6  and  C_7 
REMARK    5  A    between atoms: C_7  and  S_8 
REMARK    6  A    between atoms: S_8  and  O_9 
ROOT
HETATM    1  C   UNK N   1      20.280  18.045   2.579  0.00  0.00     0.091 C 
ENDROOT
BRANCH   1   2
HETATM    2  S   UNK N   1      20.146  17.023   4.077  0.00  0.00    -0.161 SA
BRANCH   2   3
HETATM    3  C   UNK N   1      21.362  18.042   4.962  0.00  0.00     0.151 C 
BRANCH   3   4
HETATM    4  C   UNK N   1      21.231  17.847   6.438  0.00  0.00     0.132 C 
HETATM    5  C   UNK N   1      21.466  16.501   7.031  0.00  0.00     0.091 C 
HETATM    6  O   UNK N   1      20.907  18.777   7.154  0.00  0.00    -0.298 OA
ENDBRANCH   3   4
ENDBRANCH   2   3
ENDBRANCH   1   2
BRANCH   1   7
HETATM    7  C   UNK N   1      21.081  19.300   2.884  0.00  0.00     0.165 C 
BRANCH   7   8
HETATM    8  S   UNK N   1      20.750  20.592   1.642  0.00  0.00     0.094 S 
HETATM    9  O   UNK N   1      22.231  20.677   2.042  0.00  0.00    -0.601 OA
HETATM   10  O   UNK N   1      20.745  19.234   0.923  0.00  0.00    -0.601 OA
BRANCH   8  11
HETATM   11  O   UNK N   1      21.502  20.941   0.140  0.00  0.00    -0.296 OA
HETATM   12  H   UNK N   1      21.982  20.278  -0.380  0.00  0.00     0.232 HD
ENDBRANCH   8  11
ENDBRANCH   7   8
ENDBRANCH   1   7
TORSDOF 6
ENDMDL
MODEL 4
REMARK VINA RESULT:      -4.2      2.496      3.179
REMARK  6 active torsions:
REMARK  status: ('A' for Active; 'I' for Inactive)
REMARK    1  A    between atoms: C_2  and  C_4 
REMARK    2  A    between atoms: C_4  and  S_5 
REMARK    3  A    between atoms: S_5  and  C_6 
REMARK    4  A    between atoms: C_6  and  C_7 
REMARK    5  A    between atoms: C_7  and  S_8 
REMARK    6  A    between atoms: S_8  and  O_9 
ROOT
HETATM    1  C   UNK N   1      34.814  14.529   9.862  0.00  0.00     0.091 C 
ENDROOT
BRANCH   1   2
HETATM    2  S   UNK N   1      33.651  15.717   9.126  0.00  0.00    -0.161 SA
BRANCH   2   3
HETATM    3  C   UNK N   1      34.786  17.106   9.407  0.00  0.00     0.151 C 
BRANCH   3   4
HETATM    4  C   UNK N   1      34.608  18.148   8.351  0.00  0.00     0.132 C 
HETATM    5  C   UNK N   1      33.714  17.879   7.189  0.00  0.00     0.091 C 
HETATM    6  O   UNK N   1      35.209  19.204   8.421  0.00  0.00    -0.298 OA
ENDBRANCH   3   4
ENDBRANCH   2   3
ENDBRANCH   1   2
BRANCH   1   7
HETATM    7  C   UNK N   1      34.600  14.466  11.366  0.00  0.00     0.165 C 
BRANCH   7   8
HETATM    8  S   UNK N   1      36.147  14.014  12.216  0.00  0.00     0.094 S 
HETATM    9  O   UNK N   1      36.068  15.547  12.142  0.00  0.00    -0.601 OA
HETATM   10  O   UNK N   1      34.981  13.733  13.177  0.00  0.00    -0.601 OA
BRANCH   8  11
HETATM   11  O   UNK N   1      36.778  14.475  13.744  0.00  0.00    -0.296 OA
HETATM   12  H   UNK N   1      37.526  15.084  13.846  0.00  0.00     0.232 HD
ENDBRANCH   8  11
ENDBRANCH   7   8
ENDBRANCH   1   7
TORSDOF 6
ENDMDL
MODEL 5
REMARK VINA RESULT:      -4.2      3.732      6.381
REMARK  6 active torsions:
REMARK  status: ('A' for Active; 'I' for Inactive)
REMARK    1  A    between atoms: C_2  and  C_4 
REMARK    2  A    between atoms: C_4  and  S_5 
REMARK    3  A    between atoms: S_5  and  C_6 
REMARK    4  A    between atoms: C_6  and  C_7 
REMARK    5  A    between atoms: C_7  and  S_8 
REMARK    6  A    between atoms: S_8  and  O_9 
ROOT
HETATM    1  C   UNK N   1      35.373  15.904  10.620  0.00  0.00     0.091 C 
ENDROOT
BRANCH   1   2
HETATM    2  S   UNK N   1      34.995  14.300  11.388  0.00  0.00    -0.161 SA
BRANCH   2   3
HETATM    3  C   UNK N   1      36.042  14.666  12.826  0.00  0.00     0.151 C 
BRANCH   3   4
HETATM    4  C   UNK N   1      35.737  13.725  13.946  0.00  0.00     0.132 C 
HETATM    5  C   UNK N   1      36.792  13.395  14.945  0.00  0.00     0.091 C 
HETATM    6  O   UNK N   1      34.638  13.206  14.032  0.00  0.00    -0.298 OA
ENDBRANCH   3   4
ENDBRANCH   2   3
ENDBRANCH   1   2
BRANCH   1   7
HETATM    7  C   UNK N   1      34.784  15.954   9.219  0.00  0.00     0.165 C 
BRANCH   7   8
HETATM    8  S   UNK N   1      34.176  17.628   8.836  0.00  0.00     0.094 S 
HETATM    9  O   UNK N   1      35.342  17.755   9.829  0.00  0.00    -0.601 OA
HETATM   10  O   UNK N   1      34.931  17.107   7.604  0.00  0.00    -0.601 OA
BRANCH   8  11
HETATM   11  O   UNK N   1      34.987  19.024   8.254  0.00  0.00    -0.296 OA
HETATM   12  H   UNK N   1      35.498  19.618   8.826  0.00  0.00     0.232 HD
ENDBRANCH   8  11
ENDBRANCH   7   8
ENDBRANCH   1   7
TORSDOF 6
ENDMDL
MODEL 6
REMARK VINA RESULT:      -4.2     17.583     18.975
REMARK  6 active torsions:
REMARK  status: ('A' for Active; 'I' for Inactive)
REMARK    1  A    between atoms: C_2  and  C_4 
REMARK    2  A    between atoms: C_4  and  S_5 
REMARK    3  A    between atoms: S_5  and  C_6 
REMARK    4  A    between atoms: C_6  and  C_7 
REMARK    5  A    between atoms: C_7  and  S_8 
REMARK    6  A    between atoms: S_8  and  O_9 
ROOT
HETATM    1  C   UNK N   1      25.909  24.016  -5.935  0.00  0.00     0.091 C 
ENDROOT
BRANCH   1   2
HETATM    2  S   UNK N   1      25.502  25.776  -5.733  0.00  0.00    -0.161 SA
BRANCH   2   3
HETATM    3  C   UNK N   1      26.381  25.867  -4.146  0.00  0.00     0.151 C 
BRANCH   3   4
HETATM    4  C   UNK N   1      26.015  27.120  -3.418  0.00  0.00     0.132 C 
HETATM    5  C   UNK N   1      25.738  28.367  -4.183  0.00  0.00     0.091 C 
HETATM    6  O   UNK N   1      25.968  27.132  -2.201  0.00  0.00    -0.298 OA
ENDBRANCH   3   4
ENDBRANCH   2   3
ENDBRANCH   1   2
BRANCH   1   7
HETATM    7  C   UNK N   1      26.260  23.733  -7.387  0.00  0.00     0.165 C 
BRANCH   7   8
HETATM    8  S   UNK N   1      25.346  22.280  -7.998  0.00  0.00     0.094 S 
HETATM    9  O   UNK N   1      25.008  22.471  -6.512  0.00  0.00    -0.601 OA
HETATM   10  O   UNK N   1      24.684  23.535  -8.586  0.00  0.00    -0.601 OA
BRANCH   8  11
HETATM   11  O   UNK N   1      23.675  21.893  -7.963  0.00  0.00    -0.296 OA
HETATM   12  H   UNK N   1      23.046  22.311  -7.355  0.00  0.00     0.232 HD
ENDBRANCH   8  11
ENDBRANCH   7   8
ENDBRANCH   1   7
TORSDOF 6
ENDMDL
MODEL 7
REMARK VINA RESULT:      -4.2      3.825      5.775
REMARK  6 active torsions:
REMARK  status: ('A' for Active; 'I' for Inactive)
REMARK    1  A    between atoms: C_2  and  C_4 
REMARK    2  A    between atoms: C_4  and  S_5 
REMARK    3  A    between atoms: S_5  and  C_6 
REMARK    4  A    between atoms: C_6  and  C_7 
REMARK    5  A    between atoms: C_7  and  S_8 
REMARK    6  A    between atoms: S_8  and  O_9 
ROOT
HETATM    1  C   UNK N   1      31.713  17.128   8.403  0.00  0.00     0.091 C 
ENDROOT
BRANCH   1   2
HETATM    2  S   UNK N   1      33.415  17.759   8.295  0.00  0.00    -0.161 SA
BRANCH   2   3
HETATM    3  C   UNK N   1      34.085  16.284   9.116  0.00  0.00     0.151 C 
BRANCH   3   4
HETATM    4  C   UNK N   1      35.188  16.663  10.051  0.00  0.00     0.132 C 
HETATM    5  C   UNK N   1      35.793  15.632  10.939  0.00  0.00     0.091 C 
HETATM    6  O   UNK N   1      35.575  17.816  10.109  0.00  0.00    -0.298 OA
ENDBRANCH   3   4
ENDBRANCH   2   3
ENDBRANCH   1   2
BRANCH   1   7
HETATM    7  C   UNK N   1      30.776  18.248   8.825  0.00  0.00     0.165 C 
BRANCH   7   8
HETATM    8  S   UNK N   1      29.117  17.594   9.196  0.00  0.00     0.094 S 
HETATM    9  O   UNK N   1      29.426  18.716  10.198  0.00  0.00    -0.601 OA
HETATM   10  O   UNK N   1      29.022  18.412   7.898  0.00  0.00    -0.601 OA
BRANCH   8  11
HETATM   11  O   UNK N   1      27.594  18.373   9.334  0.00  0.00    -0.296 OA
HETATM   12  H   UNK N   1      26.752  17.894   9.337  0.00  0.00     0.232 HD
ENDBRANCH   8  11
ENDBRANCH   7   8
ENDBRANCH   1   7
TORSDOF 6
ENDMDL
MODEL 8
REMARK VINA RESULT:      -4.1     13.693     15.141
REMARK  6 active torsions:
REMARK  status: ('A' for Active; 'I' for Inactive)
REMARK    1  A    between atoms: C_2  and  C_4 
REMARK    2  A    between atoms: C_4  and  S_5 
REMARK    3  A    between atoms: S_5  and  C_6 
REMARK    4  A    between atoms: C_6  and  C_7 
REMARK    5  A    between atoms: C_7  and  S_8 
REMARK    6  A    between atoms: S_8  and  O_9 
ROOT
HETATM    1  C   UNK N   1      21.294  18.755   4.616  0.00  0.00     0.091 C 
ENDROOT
BRANCH   1   2
HETATM    2  S   UNK N   1      21.102  17.119   5.385  0.00  0.00    -0.161 SA
BRANCH   2   3
HETATM    3  C   UNK N   1      19.656  16.730   4.357  0.00  0.00     0.151 C 
BRANCH   3   4
HETATM    4  C   UNK N   1      18.837  15.655   4.994  0.00  0.00     0.132 C 
HETATM    5  C   UNK N   1      19.149  14.225   4.719  0.00  0.00     0.091 C 
HETATM    6  O   UNK N   1      17.899  15.943   5.716  0.00  0.00    -0.298 OA
ENDBRANCH   3   4
ENDBRANCH   2   3
ENDBRANCH   1   2
BRANCH   1   7
HETATM    7  C   UNK N   1      20.700  18.737   3.217  0.00  0.00     0.165 C 
BRANCH   7   8
HETATM    8  S   UNK N   1      20.966  20.336   2.384  0.00  0.00     0.094 S 
HETATM    9  O   UNK N   1      20.311  20.606   3.748  0.00  0.00    -0.601 OA
HETATM   10  O   UNK N   1      22.334  19.811   2.845  0.00  0.00    -0.601 OA
BRANCH   8  11
HETATM   11  O   UNK N   1      21.780  21.758   2.893  0.00  0.00    -0.296 OA
HETATM   12  H   UNK N   1      22.020  21.930   3.816  0.00  0.00     0.232 HD
ENDBRANCH   8  11
ENDBRANCH   7   8
ENDBRANCH   1   7
TORSDOF 6
ENDMDL
MODEL 9
REMARK VINA RESULT:      -4.0      1.987      2.552
REMARK  6 active torsions:
REMARK  status: ('A' for Active; 'I' for Inactive)
REMARK    1  A    between atoms: C_2  and  C_4 
REMARK    2  A    between atoms: C_4  and  S_5 
REMARK    3  A    between atoms: S_5  and  C_6 
REMARK    4  A    between atoms: C_6  and  C_7 
REMARK    5  A    between atoms: C_7  and  S_8 
REMARK    6  A    between atoms: S_8  and  O_9 
ROOT
HETATM    1  C   UNK N   1      32.351  15.847   7.879  0.00  0.00     0.091 C 
ENDROOT
BRANCH   1   2
HETATM    2  S   UNK N   1      31.289  16.667   6.652  0.00  0.00    -0.161 SA
BRANCH   2   3
HETATM    3  C   UNK N   1      32.048  15.748   5.281  0.00  0.00     0.151 C 
BRANCH   3   4
HETATM    4  C   UNK N   1      32.539  16.690   4.230  0.00  0.00     0.132 C 
HETATM    5  C   UNK N   1      33.219  16.157   3.017  0.00  0.00     0.091 C 
HETATM    6  O   UNK N   1      32.409  17.892   4.372  0.00  0.00    -0.298 OA
ENDBRANCH   3   4
ENDBRANCH   2   3
ENDBRANCH   1   2
BRANCH   1   7
HETATM    7  C   UNK N   1      33.764  16.401   7.788  0.00  0.00     0.165 C 
BRANCH   7   8
HETATM    8  S   UNK N   1      33.779  18.186   8.153  0.00  0.00     0.094 S 
HETATM    9  O   UNK N   1      34.602  17.467   9.233  0.00  0.00    -0.601 OA
HETATM   10  O   UNK N   1      34.677  17.948   6.930  0.00  0.00    -0.601 OA
BRANCH   8  11
HETATM   11  O   UNK N   1      35.075  19.283   8.400  0.00  0.00    -0.296 OA
HETATM   12  H   UNK N   1      35.048  19.998   9.054  0.00  0.00     0.232 HD
ENDBRANCH   8  11
ENDBRANCH   7   8
ENDBRANCH   1   7
TORSDOF 6
ENDMDL
