MODEL 1
REMARK VINA RESULT:      -2.8      0.000      0.000
REMARK  2 active torsions:
REMARK  status: ('A' for Active; 'I' for Inactive)
REMARK    1  A    between atoms: C_2  and  C_3 
REMARK    2  A    between atoms: C_3  and  O_4 
ROOT
HETATM    1  C   UNK N   1      24.089  12.179  10.784  0.00  0.00     0.163 C 
ENDROOT
BRANCH   1   2
HETATM    2  C   UNK N   1      22.838  12.018  11.620  0.00  0.00     0.021 C 
HETATM    3  C   UNK N   1      23.232  11.880  13.073  0.00  0.00     0.007 C 
ENDBRANCH   1   2
BRANCH   1   4
HETATM    4  O   UNK N   1      25.175  12.443  11.615  0.00  0.00    -0.401 OA
HETATM    5  H   UNK N   1      25.733  11.716  11.929  0.00  0.00     0.209 HD
ENDBRANCH   1   4
TORSDOF 2
ENDMDL
MODEL 2
REMARK VINA RESULT:      -2.7      1.419      2.213
REMARK  2 active torsions:
REMARK  status: ('A' for Active; 'I' for Inactive)
REMARK    1  A    between atoms: C_2  and  C_3 
REMARK    2  A    between atoms: C_3  and  O_4 
ROOT
HETATM    1  C   UNK N   1      23.046  11.788  13.058  0.00  0.00     0.163 C 
ENDROOT
BRANCH   1   2
HETATM    2  C   UNK N   1      23.348  11.997  11.591  0.00  0.00     0.021 C 
HETATM    3  C   UNK N   1      22.060  12.313  10.865  0.00  0.00     0.007 C 
ENDBRANCH   1   2
BRANCH   1   4
HETATM    4  O   UNK N   1      23.920  12.550  13.829  0.00  0.00    -0.401 OA
HETATM    5  H   UNK N   1      23.792  12.614  14.788  0.00  0.00     0.209 HD
ENDBRANCH   1   4
TORSDOF 2
ENDMDL
MODEL 3
REMARK VINA RESULT:      -2.7     12.923     13.385
REMARK  2 active torsions:
REMARK  status: ('A' for Active; 'I' for Inactive)
REMARK    1  A    between atoms: C_2  and  C_3 
REMARK    2  A    between atoms: C_3  and  O_4 
ROOT
HETATM    1  C   UNK N   1      20.731  20.828   1.244  0.00  0.00     0.163 C 
ENDROOT
BRANCH   1   2
HETATM    2  C   UNK N   1      20.592  19.546   2.035  0.00  0.00     0.021 C 
HETATM    3  C   UNK N   1      20.685  19.867   3.510  0.00  0.00     0.007 C 
ENDBRANCH   1   2
BRANCH   1   4
HETATM    4  O   UNK N   1      20.605  20.554  -0.115  0.00  0.00    -0.401 OA
HETATM    5  H   UNK N   1      19.890  19.981  -0.431  0.00  0.00     0.209 HD
ENDBRANCH   1   4
TORSDOF 2
ENDMDL
MODEL 4
REMARK VINA RESULT:      -2.6      8.021      8.785
REMARK  2 active torsions:
REMARK  status: ('A' for Active; 'I' for Inactive)
REMARK    1  A    between atoms: C_2  and  C_3 
REMARK    2  A    between atoms: C_3  and  O_4 
ROOT
HETATM    1  C   UNK N   1      28.650  17.596   9.471  0.00  0.00     0.163 C 
ENDROOT
BRANCH   1   2
HETATM    2  C   UNK N   1      29.756  18.627   9.536  0.00  0.00     0.021 C 
HETATM    3  C   UNK N   1      30.941  18.126   8.742  0.00  0.00     0.007 C 
ENDBRANCH   1   2
BRANCH   1   4
HETATM    4  O   UNK N   1      27.420  18.237   9.353  0.00  0.00    -0.401 OA
HETATM    5  H   UNK N   1      27.038  18.397   8.477  0.00  0.00     0.209 HD
ENDBRANCH   1   4
TORSDOF 2
ENDMDL
MODEL 5
REMARK VINA RESULT:      -2.4     18.996     19.101
REMARK  2 active torsions:
REMARK  status: ('A' for Active; 'I' for Inactive)
REMARK    1  A    between atoms: C_2  and  C_3 
REMARK    2  A    between atoms: C_3  and  O_4 
ROOT
HETATM    1  C   UNK N   1      30.822  23.029  -2.695  0.00  0.00     0.163 C 
ENDROOT
BRANCH   1   2
HETATM    2  C   UNK N   1      31.563  21.740  -2.977  0.00  0.00     0.021 C 
HETATM    3  C   UNK N   1      30.699  20.859  -3.850  0.00  0.00     0.007 C 
ENDBRANCH   1   2
BRANCH   1   4
HETATM    4  O   UNK N   1      30.388  23.038  -1.372  0.00  0.00    -0.401 OA
HETATM    5  H   UNK N   1      31.033  22.998  -0.649  0.00  0.00     0.209 HD
ENDBRANCH   1   4
TORSDOF 2
ENDMDL
MODEL 6
REMARK VINA RESULT:      -2.4     11.772     12.454
REMARK  2 active torsions:
REMARK  status: ('A' for Active; 'I' for Inactive)
REMARK    1  A    between atoms: C_2  and  C_3 
REMARK    2  A    between atoms: C_3  and  O_4 
ROOT
HETATM    1  C   UNK N   1      34.452  18.355   8.150  0.00  0.00     0.163 C 
ENDROOT
BRANCH   1   2
HETATM    2  C   UNK N   1      34.479  17.176   9.098  0.00  0.00     0.021 C 
HETATM    3  C   UNK N   1      33.296  16.281   8.801  0.00  0.00     0.007 C 
ENDBRANCH   1   2
BRANCH   1   4
HETATM    4  O   UNK N   1      35.377  19.309   8.565  0.00  0.00    -0.401 OA
HETATM    5  H   UNK N   1      36.294  19.263   8.253  0.00  0.00     0.209 HD
ENDBRANCH   1   4
TORSDOF 2
ENDMDL
MODEL 7
REMARK VINA RESULT:      -2.4     12.324     12.634
REMARK  2 active torsions:
REMARK  status: ('A' for Active; 'I' for Inactive)
REMARK    1  A    between atoms: C_2  and  C_3 
REMARK    2  A    between atoms: C_3  and  O_4 
ROOT
HETATM    1  C   UNK N   1      20.986  20.824   2.232  0.00  0.00     0.163 C 
ENDROOT
BRANCH   1   2
HETATM    2  C   UNK N   1      20.460  19.928   3.333  0.00  0.00     0.021 C 
HETATM    3  C   UNK N   1      19.581  18.863   2.720  0.00  0.00     0.007 C 
ENDBRANCH   1   2
BRANCH   1   4
HETATM    4  O   UNK N   1      21.929  21.704   2.756  0.00  0.00    -0.401 OA
HETATM    5  H   UNK N   1      22.832  21.399   2.934  0.00  0.00     0.209 HD
ENDBRANCH   1   4
TORSDOF 2
ENDMDL
MODEL 8
REMARK VINA RESULT:      -2.4      3.778      4.063
REMARK  2 active torsions:
REMARK  status: ('A' for Active; 'I' for Inactive)
REMARK    1  A    between atoms: C_2  and  C_3 
REMARK    2  A    between atoms: C_3  and  O_4 
ROOT
HETATM    1  C   UNK N   1      20.717  13.884   9.881  0.00  0.00     0.163 C 
ENDROOT
BRANCH   1   2
HETATM    2  C   UNK N   1      20.881  12.643  10.731  0.00  0.00     0.021 C 
HETATM    3  C   UNK N   1      22.356  12.356  10.901  0.00  0.00     0.007 C 
ENDBRANCH   1   2
BRANCH   1   4
HETATM    4  O   UNK N   1      19.366  14.206   9.780  0.00  0.00    -0.401 OA
HETATM    5  H   UNK N   1      18.974  14.848  10.392  0.00  0.00     0.209 HD
ENDBRANCH   1   4
TORSDOF 2
ENDMDL
MODEL 9
REMARK VINA RESULT:      -2.3     12.147     12.433
REMARK  2 active torsions:
REMARK  status: ('A' for Active; 'I' for Inactive)
REMARK    1  A    between atoms: C_2  and  C_3 
REMARK    2  A    between atoms: C_3  and  O_4 
ROOT
HETATM    1  C   UNK N   1      23.952  20.273   3.206  0.00  0.00     0.163 C 
ENDROOT
BRANCH   1   2
HETATM    2  C   UNK N   1      25.249  20.472   2.454  0.00  0.00     0.021 C 
HETATM    3  C   UNK N   1      26.401  20.381   3.429  0.00  0.00     0.007 C 
ENDBRANCH   1   2
BRANCH   1   4
HETATM    4  O   UNK N   1      23.081  21.320   2.922  0.00  0.00    -0.401 OA
HETATM    5  H   UNK N   1      22.925  21.585   2.002  0.00  0.00     0.209 HD
ENDBRANCH   1   4
TORSDOF 2
ENDMDL
