REMARK  5 active torsions:
REMARK  status: ('A' for Active; 'I' for Inactive)
REMARK    1  A    between atoms: C_2  and  C_4 
REMARK    2  A    between atoms: C_4  and  C_5 
REMARK    3  A    between atoms: C_5  and  N_6 
REMARK    4  A    between atoms: C_5  and  C_7 
REMARK       I    between atoms: C_7  and  N_9 
REMARK    5  A    between atoms: N_9  and  O_10 
ROOT
HETATM    1  C   UNK N   1       4.230   1.595  -0.320  0.00  0.00     0.169 C 
ENDROOT
BRANCH   1   2
HETATM    2  C   UNK N   1       2.938   2.109   0.319  0.00  0.00     0.038 C 
BRANCH   2   3
HETATM    3  C   UNK N   1       1.694   1.514  -0.331  0.00  0.00    -0.020 C 
HETATM    4  C   UNK N   1       0.487   2.345   0.050  0.00  0.00     0.009 C 
HETATM    5  C   UNK N   1       1.465   0.084   0.120  0.00  0.00     0.009 C 
ENDBRANCH   2   3
ENDBRANCH   1   2
BRANCH   1   6
HETATM    6  N   UNK N   1       4.488   0.236   0.131  0.00  0.00    -0.418 N 
HETATM    7  H   UNK N   1       3.754  -0.397   0.448  0.00  0.00     0.150 HD
HETATM    8  H   UNK N   1       5.451  -0.100   0.131  0.00  0.00     0.150 HD
ENDBRANCH   1   6
BRANCH   1   9
HETATM    9  C   UNK N   1       5.393   2.534  -0.036  0.00  0.00     0.263 C 
HETATM   10  O   UNK N   1       5.177   3.735   0.025  0.00  0.00    -0.269 OA
HETATM   11  N   UNK N   1       6.676   2.102   0.084  0.00  0.00    -0.236 N 
HETATM   12  H   UNK N   1       7.381   2.763   0.271  0.00  0.00     0.197 HD
BRANCH  11  13
HETATM   13  O   UNK N   1       7.019   0.813  -0.042  0.00  0.00    -0.287 OA
HETATM   14  H   UNK N   1       6.334   0.132  -0.133  0.00  0.00     0.244 HD
ENDBRANCH  11  13
ENDBRANCH   1   9
TORSDOF 5
