MODEL 1
REMARK VINA RESULT:      -5.0      0.000      0.000
REMARK  10 active torsions:
REMARK  status: ('A' for Active; 'I' for Inactive)
REMARK    1  A    between atoms: C_7  and  O_1 
REMARK    2  A    between atoms: C_9  and  O_2 
REMARK    3  A    between atoms: C_10  and  O_3 
REMARK    4  A    between atoms: O_4  and  C_11 
REMARK    5  A    between atoms: O_5  and  C_12 
REMARK    6  A    between atoms: C_7  and  C_8 
REMARK    7  A    between atoms: C_7  and  C_9 
REMARK    8  A    between atoms: C_8  and  C_10 
REMARK    9  A    between atoms: C_9  and  C_11 
REMARK   10  A    between atoms: C_10  and  C_12 
ROOT
HETATM    1  C   UNK N   1      34.700  15.810  10.840  0.00  0.00     0.151 C 
ENDROOT
BRANCH   1   2
HETATM    2  O   UNK N   1      33.573  15.031  11.104  0.00  0.00    -0.393 OA
HETATM    3  H   UNK N   1      33.629  14.286  11.723  0.00  0.00     0.210 HD
ENDBRANCH   1   2
BRANCH   1   4
HETATM    4  C   UNK N   1      34.744  16.111   9.354  0.00  0.00     0.077 C 
BRANCH   4   5
HETATM    5  C   UNK N   1      33.888  17.328   9.072  0.00  0.00     0.218 C 
BRANCH   5   6
HETATM    6  O   UNK N   1      32.644  16.919   8.590  0.00  0.00    -0.385 OA
HETATM    7  H   UNK N   1      32.031  17.568   8.211  0.00  0.00     0.210 HD
ENDBRANCH   5   6
BRANCH   5   8
HETATM    8  C   UNK N   1      34.575  18.229   8.089  0.00  0.00     0.169 C 
HETATM    9  O   UNK N   1      35.246  19.166   8.487  0.00  0.00    -0.648 OA
BRANCH   8  10
HETATM   10  O   UNK N   1      34.441  18.020   6.764  0.00  0.00    -0.774 OA
HETATM   11  H   UNK N   1      34.541  18.719   6.148  0.00  0.00     0.167 HD
ENDBRANCH   8  10
ENDBRANCH   5   8
ENDBRANCH   4   5
ENDBRANCH   1   4
BRANCH   1  12
HETATM   12  C   UNK N   1      35.984  15.091  11.258  0.00  0.00     0.170 C 
BRANCH  12  13
HETATM   13  O   UNK N   1      37.083  15.892  10.938  0.00  0.00    -0.391 OA
HETATM   14  H   UNK N   1      37.408  15.941  10.025  0.00  0.00     0.210 HD
ENDBRANCH  12  13
BRANCH  12  15
HETATM   15  C   UNK N   1      36.018  14.804  12.752  0.00  0.00     0.198 C 
BRANCH  15  16
HETATM   16  O   UNK N   1      35.058  13.847  13.085  0.00  0.00    -0.398 OA
HETATM   17  H   UNK N   1      35.155  13.263  13.853  0.00  0.00     0.209 HD
ENDBRANCH  15  16
ENDBRANCH  12  15
ENDBRANCH   1  12
TORSDOF 10
ENDMDL
MODEL 2
REMARK VINA RESULT:      -5.0      1.081      2.032
REMARK  10 active torsions:
REMARK  status: ('A' for Active; 'I' for Inactive)
REMARK    1  A    between atoms: C_7  and  O_1 
REMARK    2  A    between atoms: C_9  and  O_2 
REMARK    3  A    between atoms: C_10  and  O_3 
REMARK    4  A    between atoms: O_4  and  C_11 
REMARK    5  A    between atoms: O_5  and  C_12 
REMARK    6  A    between atoms: C_7  and  C_8 
REMARK    7  A    between atoms: C_7  and  C_9 
REMARK    8  A    between atoms: C_8  and  C_10 
REMARK    9  A    between atoms: C_9  and  C_11 
REMARK   10  A    between atoms: C_10  and  C_12 
ROOT
HETATM    1  C   UNK N   1      35.764  15.759  10.581  0.00  0.00     0.151 C 
ENDROOT
BRANCH   1   2
HETATM    2  O   UNK N   1      37.134  15.916  10.800  0.00  0.00    -0.393 OA
HETATM    3  H   UNK N   1      37.471  16.724  11.216  0.00  0.00     0.210 HD
ENDBRANCH   1   2
BRANCH   1   4
HETATM    4  C   UNK N   1      35.157  17.123  10.316  0.00  0.00     0.077 C 
BRANCH   4   5
HETATM    5  C   UNK N   1      34.317  17.053   9.057  0.00  0.00     0.218 C 
BRANCH   5   6
HETATM    6  O   UNK N   1      34.512  15.818   8.437  0.00  0.00    -0.385 OA
HETATM    7  H   UNK N   1      35.400  15.549   8.156  0.00  0.00     0.210 HD
ENDBRANCH   5   6
BRANCH   5   8
HETATM    8  C   UNK N   1      34.672  18.179   8.133  0.00  0.00     0.169 C 
HETATM    9  O   UNK N   1      34.379  18.114   6.951  0.00  0.00    -0.648 OA
BRANCH   8  10
HETATM   10  O   UNK N   1      35.330  19.260   8.597  0.00  0.00    -0.774 OA
HETATM   11  H   UNK N   1      35.835  19.805   8.026  0.00  0.00     0.167 HD
ENDBRANCH   8  10
ENDBRANCH   5   8
ENDBRANCH   4   5
ENDBRANCH   1   4
BRANCH   1  12
HETATM   12  C   UNK N   1      35.077  15.114  11.785  0.00  0.00     0.170 C 
BRANCH  12  13
HETATM   13  O   UNK N   1      33.878  14.531  11.371  0.00  0.00    -0.391 OA
HETATM   14  H   UNK N   1      33.686  13.602  11.571  0.00  0.00     0.210 HD
ENDBRANCH  12  13
BRANCH  12  15
HETATM   15  C   UNK N   1      35.940  14.036  12.426  0.00  0.00     0.198 C 
BRANCH  15  16
HETATM   16  O   UNK N   1      36.788  14.596  13.381  0.00  0.00    -0.398 OA
HETATM   17  H   UNK N   1      37.284  14.054  14.014  0.00  0.00     0.209 HD
ENDBRANCH  15  16
ENDBRANCH  12  15
ENDBRANCH   1  12
TORSDOF 10
ENDMDL
MODEL 3
REMARK VINA RESULT:      -4.9      1.114      2.086
REMARK  10 active torsions:
REMARK  status: ('A' for Active; 'I' for Inactive)
REMARK    1  A    between atoms: C_7  and  O_1 
REMARK    2  A    between atoms: C_9  and  O_2 
REMARK    3  A    between atoms: C_10  and  O_3 
REMARK    4  A    between atoms: O_4  and  C_11 
REMARK    5  A    between atoms: O_5  and  C_12 
REMARK    6  A    between atoms: C_7  and  C_8 
REMARK    7  A    between atoms: C_7  and  C_9 
REMARK    8  A    between atoms: C_8  and  C_10 
REMARK    9  A    between atoms: C_9  and  C_11 
REMARK   10  A    between atoms: C_10  and  C_12 
ROOT
HETATM    1  C   UNK N   1      34.427  14.946   9.083  0.00  0.00     0.151 C 
ENDROOT
BRANCH   1   2
HETATM    2  O   UNK N   1      35.696  14.837   8.511  0.00  0.00    -0.393 OA
HETATM    3  H   UNK N   1      36.145  15.626   8.169  0.00  0.00     0.210 HD
ENDBRANCH   1   2
BRANCH   1   4
HETATM    4  C   UNK N   1      33.587  15.872   8.225  0.00  0.00     0.077 C 
BRANCH   4   5
HETATM    5  C   UNK N   1      33.633  17.267   8.814  0.00  0.00     0.218 C 
BRANCH   5   6
HETATM    6  O   UNK N   1      32.333  17.746   8.977  0.00  0.00    -0.385 OA
HETATM    7  H   UNK N   1      31.744  17.825   8.211  0.00  0.00     0.210 HD
ENDBRANCH   5   6
BRANCH   5   8
HETATM    8  C   UNK N   1      34.434  18.177   7.930  0.00  0.00     0.169 C 
HETATM    9  O   UNK N   1      35.049  19.111   8.415  0.00  0.00    -0.648 OA
BRANCH   8  10
HETATM   10  O   UNK N   1      34.464  17.979   6.597  0.00  0.00    -0.774 OA
HETATM   11  H   UNK N   1      35.079  18.428   6.051  0.00  0.00     0.167 HD
ENDBRANCH   8  10
ENDBRANCH   5   8
ENDBRANCH   4   5
ENDBRANCH   1   4
BRANCH   1  12
HETATM   12  C   UNK N   1      34.504  15.493  10.509  0.00  0.00     0.170 C 
BRANCH  12  13
HETATM   13  O   UNK N   1      33.514  14.887  11.286  0.00  0.00    -0.391 OA
HETATM   14  H   UNK N   1      33.738  14.171  11.901  0.00  0.00     0.210 HD
ENDBRANCH  12  13
BRANCH  12  15
HETATM   15  C   UNK N   1      35.855  15.221  11.154  0.00  0.00     0.198 C 
BRANCH  15  16
HETATM   16  O   UNK N   1      36.758  16.236  10.837  0.00  0.00    -0.398 OA
HETATM   17  H   UNK N   1      37.716  16.088  10.819  0.00  0.00     0.209 HD
ENDBRANCH  15  16
ENDBRANCH  12  15
ENDBRANCH   1  12
TORSDOF 10
ENDMDL
MODEL 4
REMARK VINA RESULT:      -4.8      2.349      3.641
REMARK  10 active torsions:
REMARK  status: ('A' for Active; 'I' for Inactive)
REMARK    1  A    between atoms: C_7  and  O_1 
REMARK    2  A    between atoms: C_9  and  O_2 
REMARK    3  A    between atoms: C_10  and  O_3 
REMARK    4  A    between atoms: O_4  and  C_11 
REMARK    5  A    between atoms: O_5  and  C_12 
REMARK    6  A    between atoms: C_7  and  C_8 
REMARK    7  A    between atoms: C_7  and  C_9 
REMARK    8  A    between atoms: C_8  and  C_10 
REMARK    9  A    between atoms: C_9  and  C_11 
REMARK   10  A    between atoms: C_10  and  C_12 
ROOT
HETATM    1  C   UNK N   1      36.134  13.038  12.174  0.00  0.00     0.151 C 
ENDROOT
BRANCH   1   2
HETATM    2  O   UNK N   1      37.475  13.427  12.150  0.00  0.00    -0.393 OA
HETATM    3  H   UNK N   1      38.049  13.242  12.909  0.00  0.00     0.210 HD
ENDBRANCH   1   2
BRANCH   1   4
HETATM    4  C   UNK N   1      35.411  13.722  11.029  0.00  0.00     0.077 C 
BRANCH   4   5
HETATM    5  C   UNK N   1      34.845  15.038  11.519  0.00  0.00     0.218 C 
BRANCH   5   6
HETATM    6  O   UNK N   1      33.501  15.131  11.154  0.00  0.00    -0.385 OA
HETATM    7  H   UNK N   1      32.821  14.693  11.687  0.00  0.00     0.210 HD
ENDBRANCH   5   6
BRANCH   5   8
HETATM    8  C   UNK N   1      35.635  16.183  10.957  0.00  0.00     0.169 C 
HETATM    9  O   UNK N   1      35.061  17.188  10.573  0.00  0.00    -0.648 OA
BRANCH   8  10
HETATM   10  O   UNK N   1      36.976  16.102  10.858  0.00  0.00    -0.774 OA
HETATM   11  H   UNK N   1      37.386  15.532  10.238  0.00  0.00     0.167 HD
ENDBRANCH   8  10
ENDBRANCH   5   8
ENDBRANCH   4   5
ENDBRANCH   1   4
BRANCH   1  12
HETATM   12  C   UNK N   1      35.470  13.412  13.499  0.00  0.00     0.170 C 
BRANCH  12  13
HETATM   13  O   UNK N   1      34.347  12.606  13.693  0.00  0.00    -0.391 OA
HETATM   14  H   UNK N   1      33.621  12.608  13.050  0.00  0.00     0.210 HD
ENDBRANCH  12  13
BRANCH  12  15
HETATM   15  C   UNK N   1      36.408  13.224  14.683  0.00  0.00     0.198 C 
BRANCH  15  16
HETATM   16  O   UNK N   1      37.143  14.387  14.911  0.00  0.00    -0.398 OA
HETATM   17  H   UNK N   1      37.429  14.968  14.190  0.00  0.00     0.209 HD
ENDBRANCH  15  16
ENDBRANCH  12  15
ENDBRANCH   1  12
TORSDOF 10
ENDMDL
MODEL 5
REMARK VINA RESULT:      -4.8     15.706     16.870
REMARK  10 active torsions:
REMARK  status: ('A' for Active; 'I' for Inactive)
REMARK    1  A    between atoms: C_7  and  O_1 
REMARK    2  A    between atoms: C_9  and  O_2 
REMARK    3  A    between atoms: C_10  and  O_3 
REMARK    4  A    between atoms: O_4  and  C_11 
REMARK    5  A    between atoms: O_5  and  C_12 
REMARK    6  A    between atoms: C_7  and  C_8 
REMARK    7  A    between atoms: C_7  and  C_9 
REMARK    8  A    between atoms: C_8  and  C_10 
REMARK    9  A    between atoms: C_9  and  C_11 
REMARK   10  A    between atoms: C_10  and  C_12 
ROOT
HETATM    1  C   UNK N   1      19.669  18.725   3.091  0.00  0.00     0.151 C 
ENDROOT
BRANCH   1   2
HETATM    2  O   UNK N   1      18.475  18.726   2.369  0.00  0.00    -0.393 OA
HETATM    3  H   UNK N   1      18.485  18.875   1.411  0.00  0.00     0.210 HD
ENDBRANCH   1   2
BRANCH   1   4
HETATM    4  C   UNK N   1      20.186  20.149   3.174  0.00  0.00     0.077 C 
BRANCH   4   5
HETATM    5  C   UNK N   1      21.338  20.312   2.205  0.00  0.00     0.218 C 
BRANCH   5   6
HETATM    6  O   UNK N   1      22.342  21.077   2.801  0.00  0.00    -0.385 OA
HETATM    7  H   UNK N   1      23.241  21.069   2.437  0.00  0.00     0.210 HD
ENDBRANCH   5   6
BRANCH   5   8
HETATM    8  C   UNK N   1      20.860  20.951   0.934  0.00  0.00     0.169 C 
HETATM    9  O   UNK N   1      20.825  20.302  -0.098  0.00  0.00    -0.648 OA
BRANCH   8  10
HETATM   10  O   UNK N   1      20.486  22.245   0.920  0.00  0.00    -0.774 OA
HETATM   11  H   UNK N   1      20.676  22.800   0.190  0.00  0.00     0.167 HD
ENDBRANCH   8  10
ENDBRANCH   5   8
ENDBRANCH   4   5
ENDBRANCH   1   4
BRANCH   1  12
HETATM   12  C   UNK N   1      20.720  17.833   2.428  0.00  0.00     0.170 C 
BRANCH  12  13
HETATM   13  O   UNK N   1      21.279  16.990   3.391  0.00  0.00    -0.391 OA
HETATM   14  H   UNK N   1      21.242  16.027   3.283  0.00  0.00     0.210 HD
ENDBRANCH  12  13
BRANCH  12  15
HETATM   15  C   UNK N   1      20.126  16.974   1.322  0.00  0.00     0.198 C 
BRANCH  15  16
HETATM   16  O   UNK N   1      19.404  15.912   1.866  0.00  0.00    -0.398 OA
HETATM   17  H   UNK N   1      18.957  15.253   1.313  0.00  0.00     0.209 HD
ENDBRANCH  15  16
ENDBRANCH  12  15
ENDBRANCH   1  12
TORSDOF 10
ENDMDL
MODEL 6
REMARK VINA RESULT:      -4.5     14.653     16.498
REMARK  10 active torsions:
REMARK  status: ('A' for Active; 'I' for Inactive)
REMARK    1  A    between atoms: C_7  and  O_1 
REMARK    2  A    between atoms: C_9  and  O_2 
REMARK    3  A    between atoms: C_10  and  O_3 
REMARK    4  A    between atoms: O_4  and  C_11 
REMARK    5  A    between atoms: O_5  and  C_12 
REMARK    6  A    between atoms: C_7  and  C_8 
REMARK    7  A    between atoms: C_7  and  C_9 
REMARK    8  A    between atoms: C_8  and  C_10 
REMARK    9  A    between atoms: C_9  and  C_11 
REMARK   10  A    between atoms: C_10  and  C_12 
ROOT
HETATM    1  C   UNK N   1      19.707  18.136   2.282  0.00  0.00     0.151 C 
ENDROOT
BRANCH   1   2
HETATM    2  O   UNK N   1      18.418  18.669   2.332  0.00  0.00    -0.393 OA
HETATM    3  H   UNK N   1      18.215  19.497   1.870  0.00  0.00     0.210 HD
ENDBRANCH   1   2
BRANCH   1   4
HETATM    4  C   UNK N   1      20.682  19.252   1.961  0.00  0.00     0.077 C 
BRANCH   4   5
HETATM    5  C   UNK N   1      21.324  19.729   3.247  0.00  0.00     0.218 C 
BRANCH   5   6
HETATM    6  O   UNK N   1      20.365  20.362   4.039  0.00  0.00    -0.385 OA
HETATM    7  H   UNK N   1      20.394  21.323   4.164  0.00  0.00     0.210 HD
ENDBRANCH   5   6
BRANCH   5   8
HETATM    8  C   UNK N   1      22.466  20.655   2.944  0.00  0.00     0.169 C 
HETATM    9  O   UNK N   1      23.591  20.208   2.802  0.00  0.00    -0.648 OA
BRANCH   8  10
HETATM   10  O   UNK N   1      22.259  21.983   2.845  0.00  0.00    -0.774 OA
HETATM   11  H   UNK N   1      22.396  22.439   2.039  0.00  0.00     0.167 HD
ENDBRANCH   8  10
ENDBRANCH   5   8
ENDBRANCH   4   5
ENDBRANCH   1   4
BRANCH   1  12
HETATM   12  C   UNK N   1      19.815  17.038   1.222  0.00  0.00     0.170 C 
BRANCH  12  13
HETATM   13  O   UNK N   1      20.329  17.585   0.045  0.00  0.00    -0.391 OA
HETATM   14  H   UNK N   1      20.125  17.186  -0.815  0.00  0.00     0.210 HD
ENDBRANCH  12  13
BRANCH  12  15
HETATM   15  C   UNK N   1      20.728  15.904   1.665  0.00  0.00     0.198 C 
BRANCH  15  16
HETATM   16  O   UNK N   1      21.383  15.349   0.564  0.00  0.00    -0.398 OA
HETATM   17  H   UNK N   1      21.459  14.391   0.437  0.00  0.00     0.209 HD
ENDBRANCH  15  16
ENDBRANCH  12  15
ENDBRANCH   1  12
TORSDOF 10
ENDMDL
MODEL 7
REMARK VINA RESULT:      -4.5      1.165      5.199
REMARK  10 active torsions:
REMARK  status: ('A' for Active; 'I' for Inactive)
REMARK    1  A    between atoms: C_7  and  O_1 
REMARK    2  A    between atoms: C_9  and  O_2 
REMARK    3  A    between atoms: C_10  and  O_3 
REMARK    4  A    between atoms: O_4  and  C_11 
REMARK    5  A    between atoms: O_5  and  C_12 
REMARK    6  A    between atoms: C_7  and  C_8 
REMARK    7  A    between atoms: C_7  and  C_9 
REMARK    8  A    between atoms: C_8  and  C_10 
REMARK    9  A    between atoms: C_9  and  C_11 
REMARK   10  A    between atoms: C_10  and  C_12 
ROOT
HETATM    1  C   UNK N   1      34.628  16.819   9.914  0.00  0.00     0.151 C 
ENDROOT
BRANCH   1   2
HETATM    2  O   UNK N   1      35.635  17.656  10.399  0.00  0.00    -0.393 OA
HETATM    3  H   UNK N   1      35.785  18.523   9.992  0.00  0.00     0.210 HD
ENDBRANCH   1   2
BRANCH   1   4
HETATM    4  C   UNK N   1      34.896  15.407  10.398  0.00  0.00     0.077 C 
BRANCH   4   5
HETATM    5  C   UNK N   1      36.076  15.427  11.348  0.00  0.00     0.218 C 
BRANCH   5   6
HETATM    6  O   UNK N   1      37.263  15.360  10.617  0.00  0.00    -0.385 OA
HETATM    7  H   UNK N   1      37.336  14.755   9.862  0.00  0.00     0.210 HD
ENDBRANCH   5   6
BRANCH   5   8
HETATM    8  C   UNK N   1      35.979  14.288  12.319  0.00  0.00     0.169 C 
HETATM    9  O   UNK N   1      34.886  13.893  12.689  0.00  0.00    -0.648 OA
BRANCH   8  10
HETATM   10  O   UNK N   1      37.095  13.707  12.802  0.00  0.00    -0.774 OA
HETATM   11  H   UNK N   1      37.223  13.587  13.722  0.00  0.00     0.167 HD
ENDBRANCH   8  10
ENDBRANCH   5   8
ENDBRANCH   4   5
ENDBRANCH   1   4
BRANCH   1  12
HETATM   12  C   UNK N   1      34.577  16.838   8.385  0.00  0.00     0.170 C 
BRANCH  12  13
HETATM   13  O   UNK N   1      33.675  15.868   7.944  0.00  0.00    -0.391 OA
HETATM   14  H   UNK N   1      33.379  15.162   8.540  0.00  0.00     0.210 HD
ENDBRANCH  12  13
BRANCH  12  15
HETATM   15  C   UNK N   1      34.133  18.189   7.845  0.00  0.00     0.198 C 
BRANCH  15  16
HETATM   16  O   UNK N   1      35.000  19.194   8.274  0.00  0.00    -0.398 OA
HETATM   17  H   UNK N   1      34.682  20.005   8.699  0.00  0.00     0.209 HD
ENDBRANCH  15  16
ENDBRANCH  12  15
ENDBRANCH   1  12
TORSDOF 10
ENDMDL
MODEL 8
REMARK VINA RESULT:      -4.5      3.001      5.888
REMARK  10 active torsions:
REMARK  status: ('A' for Active; 'I' for Inactive)
REMARK    1  A    between atoms: C_7  and  O_1 
REMARK    2  A    between atoms: C_9  and  O_2 
REMARK    3  A    between atoms: C_10  and  O_3 
REMARK    4  A    between atoms: O_4  and  C_11 
REMARK    5  A    between atoms: O_5  and  C_12 
REMARK    6  A    between atoms: C_7  and  C_8 
REMARK    7  A    between atoms: C_7  and  C_9 
REMARK    8  A    between atoms: C_8  and  C_10 
REMARK    9  A    between atoms: C_9  and  C_11 
REMARK   10  A    between atoms: C_10  and  C_12 
ROOT
HETATM    1  C   UNK N   1      35.545  14.197  11.692  0.00  0.00     0.151 C 
ENDROOT
BRANCH   1   2
HETATM    2  O   UNK N   1      34.164  14.402  11.718  0.00  0.00    -0.393 OA
HETATM    3  H   UNK N   1      33.559  13.656  11.587  0.00  0.00     0.210 HD
ENDBRANCH   1   2
BRANCH   1   4
HETATM    4  C   UNK N   1      36.122  14.619  13.029  0.00  0.00     0.077 C 
BRANCH   4   5
HETATM    5  C   UNK N   1      35.989  13.470  14.008  0.00  0.00     0.218 C 
BRANCH   5   6
HETATM    6  O   UNK N   1      34.651  13.085  14.093  0.00  0.00    -0.385 OA
HETATM    7  H   UNK N   1      34.375  12.424  14.747  0.00  0.00     0.210 HD
ENDBRANCH   5   6
BRANCH   5   8
HETATM    8  C   UNK N   1      36.519  13.871  15.353  0.00  0.00     0.169 C 
HETATM    9  O   UNK N   1      35.948  13.506  16.366  0.00  0.00    -0.648 OA
BRANCH   8  10
HETATM   10  O   UNK N   1      37.616  14.647  15.449  0.00  0.00    -0.774 OA
HETATM   11  H   UNK N   1      37.955  14.911  16.282  0.00  0.00     0.167 HD
ENDBRANCH   8  10
ENDBRANCH   5   8
ENDBRANCH   4   5
ENDBRANCH   1   4
BRANCH   1  12
HETATM   12  C   UNK N   1      36.206  14.998  10.569  0.00  0.00     0.170 C 
BRANCH  12  13
HETATM   13  O   UNK N   1      36.757  16.165  11.102  0.00  0.00    -0.391 OA
HETATM   14  H   UNK N   1      37.179  16.820  10.524  0.00  0.00     0.210 HD
ENDBRANCH  12  13
BRANCH  12  15
HETATM   15  C   UNK N   1      37.314  14.213   9.883  0.00  0.00     0.198 C 
BRANCH  15  16
HETATM   16  O   UNK N   1      38.534  14.876  10.015  0.00  0.00    -0.398 OA
HETATM   17  H   UNK N   1      39.347  14.416  10.275  0.00  0.00     0.209 HD
ENDBRANCH  15  16
ENDBRANCH  12  15
ENDBRANCH   1  12
TORSDOF 10
ENDMDL
MODEL 9
REMARK VINA RESULT:      -4.5     12.331     14.146
REMARK  10 active torsions:
REMARK  status: ('A' for Active; 'I' for Inactive)
REMARK    1  A    between atoms: C_7  and  O_1 
REMARK    2  A    between atoms: C_9  and  O_2 
REMARK    3  A    between atoms: C_10  and  O_3 
REMARK    4  A    between atoms: O_4  and  C_11 
REMARK    5  A    between atoms: O_5  and  C_12 
REMARK    6  A    between atoms: C_7  and  C_8 
REMARK    7  A    between atoms: C_7  and  C_9 
REMARK    8  A    between atoms: C_8  and  C_10 
REMARK    9  A    between atoms: C_9  and  C_11 
REMARK   10  A    between atoms: C_10  and  C_12 
ROOT
HETATM    1  C   UNK N   1      21.119  12.798   9.584  0.00  0.00     0.151 C 
ENDROOT
BRANCH   1   2
HETATM    2  O   UNK N   1      20.051  13.344  10.298  0.00  0.00    -0.393 OA
HETATM    3  H   UNK N   1      19.160  13.350   9.913  0.00  0.00     0.210 HD
ENDBRANCH   1   2
BRANCH   1   4
HETATM    4  C   UNK N   1      22.393  13.013  10.378  0.00  0.00     0.077 C 
BRANCH   4   5
HETATM    5  C   UNK N   1      22.591  11.844  11.320  0.00  0.00     0.218 C 
BRANCH   5   6
HETATM    6  O   UNK N   1      21.438  11.663  12.085  0.00  0.00    -0.385 OA
HETATM    7  H   UNK N   1      21.437  11.897  13.026  0.00  0.00     0.210 HD
ENDBRANCH   5   6
BRANCH   5   8
HETATM    8  C   UNK N   1      23.785  12.080  12.196  0.00  0.00     0.169 C 
HETATM    9  O   UNK N   1      23.665  12.054  13.409  0.00  0.00    -0.648 OA
BRANCH   8  10
HETATM   10  O   UNK N   1      24.990  12.340  11.651  0.00  0.00    -0.774 OA
HETATM   11  H   UNK N   1      25.418  11.718  11.097  0.00  0.00     0.167 HD
ENDBRANCH   8  10
ENDBRANCH   5   8
ENDBRANCH   4   5
ENDBRANCH   1   4
BRANCH   1  12
HETATM   12  C   UNK N   1      21.255  13.444   8.205  0.00  0.00     0.170 C 
BRANCH  12  13
HETATM   13  O   UNK N   1      20.811  12.546   7.232  0.00  0.00    -0.391 OA
HETATM   14  H   UNK N   1      20.990  11.597   7.318  0.00  0.00     0.210 HD
ENDBRANCH  12  13
BRANCH  12  15
HETATM   15  C   UNK N   1      20.438  14.722   8.088  0.00  0.00     0.198 C 
BRANCH  15  16
HETATM   16  O   UNK N   1      20.950  15.706   8.934  0.00  0.00    -0.398 OA
HETATM   17  H   UNK N   1      21.467  16.456   8.601  0.00  0.00     0.209 HD
ENDBRANCH  15  16
ENDBRANCH  12  15
ENDBRANCH   1  12
TORSDOF 10
ENDMDL
