MODEL 1
REMARK VINA RESULT:      -6.2      0.000      0.000
REMARK  20 active torsions:
REMARK  status: ('A' for Active; 'I' for Inactive)
REMARK    1  A    between atoms: C_6  and  C_5 
REMARK    2  A    between atoms: C_11  and  C_5 
REMARK    3  A    between atoms: C_13  and  C_6 
REMARK    4  A    between atoms: C_14  and  C_7 
REMARK    5  A    between atoms: N_20  and  C_7 
REMARK    6  A    between atoms: C_12  and  C_8 
REMARK    7  A    between atoms: S_33  and  C_8 
REMARK    8  A    between atoms: N_24  and  C_10 
REMARK    9  A    between atoms: C_16  and  C_11 
REMARK   10  A    between atoms: C_11  and  N_19 
REMARK   11  A    between atoms: C_15  and  C_12 
REMARK   12  A    between atoms: C_12  and  N_22 
REMARK   13  A    between atoms: C_13  and  O_25 
REMARK   14  A    between atoms: O_27  and  C_14 
REMARK   15  A    between atoms: O_28  and  C_15 
REMARK   16  A    between atoms: O_30  and  C_16 
REMARK   17  A    between atoms: N_24  and  C_17 
REMARK   18  A    between atoms: C_17  and  O_31 
REMARK   19  A    between atoms: S_33  and  C_17 
REMARK   20  A    between atoms: O_32  and  N_24 
ROOT
HETATM    1  C   UNK N   1      33.048  13.845   8.477  0.00  0.00     0.167 C 
ENDROOT
BRANCH   1   2
HETATM    2  C   UNK N   1      34.038  13.697   7.318  0.00  0.00     0.111 C 
BRANCH   2   3
HETATM    3  S   UNK N   1      33.404  14.301   5.710  0.00  0.00    -0.112 SA
BRANCH   3   4
HETATM    4  C   UNK N   1      34.428  15.813   5.538  0.00  0.00     0.311 C 
BRANCH   4   5
HETATM    5  N   UNK N   1      33.741  17.019   5.997  0.00  0.00    -0.222 N 
BRANCH   5   6
HETATM    6  C   UNK N   1      32.316  17.166   5.939  0.00  0.00     0.060 A 
HETATM    7  C   UNK N   1      31.684  17.379   4.703  0.00  0.00     0.033 A 
HETATM    8  C   UNK N   1      30.303  17.589   4.637  0.00  0.00     0.020 A 
HETATM    9  C   UNK N   1      29.537  17.565   5.805  0.00  0.00     0.006 A 
HETATM   10  C   UNK N   1      30.147  17.317   7.035  0.00  0.00     0.020 A 
HETATM   11  I   UNK N   1      27.468  17.939   5.723  0.00  0.00    -0.045 I 
HETATM   12  C   UNK N   1      31.526  17.121   7.102  0.00  0.00     0.033 A 
ENDBRANCH   5   6
BRANCH   5  13
HETATM   13  O   UNK N   1      34.434  17.869   6.775  0.00  0.00    -0.284 OA
HETATM   14  H   UNK N   1      34.452  18.815   6.563  0.00  0.00     0.245 HD
ENDBRANCH   5  13
ENDBRANCH   4   5
BRANCH   4  15
HETATM   15  O   UNK N   1      35.632  15.608   6.215  0.00  0.00    -0.366 OA
HETATM   16  H   UNK N   1      35.750  15.597   7.177  0.00  0.00     0.213 HD
ENDBRANCH   4  15
ENDBRANCH   3   4
ENDBRANCH   2   3
ENDBRANCH   1   2
BRANCH   1  17
HETATM   17  C   UNK N   1      33.541  14.864   9.478  0.00  0.00     0.136 C 
HETATM   18  N   UNK N   1      34.508  15.664   9.182  0.00  0.00    -0.363 N 
ATOM     19  HN  UNK N   1      34.940  15.589   8.261  1.00  0.00     0.161 HD
BRANCH  18  20
HETATM   20  C   UNK N   1      35.002  16.661  10.101  0.00  0.00     0.231 C 
BRANCH  20  21
HETATM   21  C   UNK N   1      35.989  16.057  11.046  0.00  0.00     0.158 C 
HETATM   22  O   UNK N   1      35.627  15.662  12.141  0.00  0.00    -0.649 OA
BRANCH  21  23
HETATM   23  O   UNK N   1      37.281  15.949  10.685  0.00  0.00    -0.775 OA
HETATM   24  H   UNK N   1      37.744  16.479  10.067  0.00  0.00     0.167 HD
ENDBRANCH  21  23
ENDBRANCH  20  21
ENDBRANCH  18  20
BRANCH  17  25
HETATM   25  O   UNK N   1      32.925  14.957  10.676  0.00  0.00    -0.348 OA
HETATM   26  H   UNK N   1      32.041  14.712  10.870  0.00  0.00     0.219 HD
ENDBRANCH  17  25
ENDBRANCH   1  17
BRANCH   1  27
HETATM   27  N   UNK N   1      32.644  12.572   9.067  0.00  0.00    -0.362 N 
HETATM   28  C   UNK N   1      33.365  11.665   9.646  0.00  0.00     0.111 C 
ATOM     29  HN  UNK N   1      31.647  12.366   9.016  1.00  0.00     0.162 HD
BRANCH  28  30
HETATM   30  C   UNK N   1      34.845  11.815   9.851  0.00  0.00     0.086 C 
BRANCH  30  31
HETATM   31  C   UNK N   1      35.457  11.063  11.039  0.00  0.00     0.043 C 
BRANCH  31  32
HETATM   32  C   UNK N   1      35.557  11.840  12.370  0.00  0.00     0.173 C 
BRANCH  32  33
HETATM   33  C   UNK N   1      36.941  12.333  12.738  0.00  0.00     0.163 C 
HETATM   34  O   UNK N   1      37.499  11.877  13.724  0.00  0.00    -0.648 OA
BRANCH  33  35
HETATM   35  O   UNK N   1      37.575  13.261  11.995  0.00  0.00    -0.775 OA
HETATM   36  H   UNK N   1      38.280  13.758  12.362  0.00  0.00     0.167 HD
ENDBRANCH  33  35
ENDBRANCH  32  33
BRANCH  32  37
HETATM   37  N   UNK N   1      34.625  12.954  12.365  0.00  0.00    -0.418 N 
HETATM   38  H   UNK N   1      33.759  13.305  12.775  0.00  0.00     0.150 HD
HETATM   39  H   UNK N   1      34.966  13.648  11.701  0.00  0.00     0.150 HD
ENDBRANCH  32  37
ENDBRANCH  31  32
ENDBRANCH  30  31
ENDBRANCH  28  30
BRANCH  28  40
HETATM   40  O   UNK N   1      32.742  10.591  10.161  0.00  0.00    -0.350 OA
HETATM   41  H   UNK N   1      31.908  10.179  10.044  0.00  0.00     0.219 HD
ENDBRANCH  28  40
ENDBRANCH   1  27
TORSDOF 20
ENDMDL
MODEL 2
REMARK VINA RESULT:      -6.1      9.175     13.165
REMARK  20 active torsions:
REMARK  status: ('A' for Active; 'I' for Inactive)
REMARK    1  A    between atoms: C_6  and  C_5 
REMARK    2  A    between atoms: C_11  and  C_5 
REMARK    3  A    between atoms: C_13  and  C_6 
REMARK    4  A    between atoms: C_14  and  C_7 
REMARK    5  A    between atoms: N_20  and  C_7 
REMARK    6  A    between atoms: C_12  and  C_8 
REMARK    7  A    between atoms: S_33  and  C_8 
REMARK    8  A    between atoms: N_24  and  C_10 
REMARK    9  A    between atoms: C_16  and  C_11 
REMARK   10  A    between atoms: C_11  and  N_19 
REMARK   11  A    between atoms: C_15  and  C_12 
REMARK   12  A    between atoms: C_12  and  N_22 
REMARK   13  A    between atoms: C_13  and  O_25 
REMARK   14  A    between atoms: O_27  and  C_14 
REMARK   15  A    between atoms: O_28  and  C_15 
REMARK   16  A    between atoms: O_30  and  C_16 
REMARK   17  A    between atoms: N_24  and  C_17 
REMARK   18  A    between atoms: C_17  and  O_31 
REMARK   19  A    between atoms: S_33  and  C_17 
REMARK   20  A    between atoms: O_32  and  N_24 
ROOT
HETATM    1  C   UNK N   1      24.366  18.961   3.814  0.00  0.00     0.167 C 
ENDROOT
BRANCH   1   2
HETATM    2  C   UNK N   1      25.819  19.418   3.972  0.00  0.00     0.111 C 
BRANCH   2   3
HETATM    3  S   UNK N   1      26.299  19.801   5.698  0.00  0.00    -0.112 SA
BRANCH   3   4
HETATM    4  C   UNK N   1      27.224  18.267   6.093  0.00  0.00     0.311 C 
BRANCH   4   5
HETATM    5  N   UNK N   1      27.973  18.363   7.346  0.00  0.00    -0.222 N 
BRANCH   5   6
HETATM    6  C   UNK N   1      29.352  17.989   7.452  0.00  0.00     0.060 A 
HETATM    7  C   UNK N   1      30.083  18.323   8.604  0.00  0.00     0.033 A 
HETATM    8  C   UNK N   1      31.446  18.022   8.695  0.00  0.00     0.020 A 
HETATM    9  C   UNK N   1      32.086  17.362   7.643  0.00  0.00     0.006 A 
HETATM   10  C   UNK N   1      31.364  16.990   6.509  0.00  0.00     0.020 A 
HETATM   11  I   UNK N   1      34.148  16.958   7.745  0.00  0.00    -0.045 I 
HETATM   12  C   UNK N   1      30.008  17.302   6.413  0.00  0.00     0.033 A 
ENDBRANCH   5   6
BRANCH   5  13
HETATM   13  O   UNK N   1      27.443  19.112   8.329  0.00  0.00    -0.284 OA
HETATM   14  H   UNK N   1      26.517  18.988   8.587  0.00  0.00     0.245 HD
ENDBRANCH   5  13
ENDBRANCH   4   5
BRANCH   4  15
HETATM   15  O   UNK N   1      26.324  17.201   6.104  0.00  0.00    -0.366 OA
HETATM   16  H   UNK N   1      26.506  16.297   5.802  0.00  0.00     0.213 HD
ENDBRANCH   4  15
ENDBRANCH   3   4
ENDBRANCH   2   3
ENDBRANCH   1   2
BRANCH   1  17
HETATM   17  C   UNK N   1      23.559  19.988   3.055  0.00  0.00     0.136 C 
HETATM   18  N   UNK N   1      22.270  19.967   3.085  0.00  0.00    -0.363 N 
ATOM     19  HN  UNK N   1      21.805  19.238   3.624  1.00  0.00     0.161 HD
BRANCH  18  20
HETATM   20  C   UNK N   1      21.460  20.936   2.386  0.00  0.00     0.231 C 
BRANCH  20  21
HETATM   21  C   UNK N   1      20.883  20.337   1.145  0.00  0.00     0.158 C 
HETATM   22  O   UNK N   1      21.097  20.850   0.059  0.00  0.00    -0.649 OA
BRANCH  21  23
HETATM   23  O   UNK N   1      20.126  19.227   1.227  0.00  0.00    -0.775 OA
HETATM   24  H   UNK N   1      19.810  18.812   2.006  0.00  0.00     0.167 HD
ENDBRANCH  21  23
ENDBRANCH  20  21
ENDBRANCH  18  20
BRANCH  17  25
HETATM   25  O   UNK N   1      24.208  20.959   2.376  0.00  0.00    -0.348 OA
HETATM   26  H   UNK N   1      23.852  21.500   1.698  0.00  0.00     0.219 HD
ENDBRANCH  17  25
ENDBRANCH   1  17
BRANCH   1  27
HETATM   27  N   UNK N   1      23.752  18.521   5.063  0.00  0.00    -0.362 N 
HETATM   28  C   UNK N   1      22.891  17.575   5.271  0.00  0.00     0.111 C 
ATOM     29  HN  UNK N   1      24.042  19.033   5.895  1.00  0.00     0.162 HD
BRANCH  28  30
HETATM   30  C   UNK N   1      22.381  16.687   4.173  0.00  0.00     0.086 C 
BRANCH  30  31
HETATM   31  C   UNK N   1      21.423  15.563   4.585  0.00  0.00     0.043 C 
BRANCH  31  32
HETATM   32  C   UNK N   1      19.914  15.847   4.417  0.00  0.00     0.173 C 
BRANCH  32  33
HETATM   33  C   UNK N   1      19.134  16.026   5.703  0.00  0.00     0.163 C 
HETATM   34  O   UNK N   1      19.729  16.308   6.731  0.00  0.00    -0.648 OA
BRANCH  33  35
HETATM   35  O   UNK N   1      17.795  15.887   5.736  0.00  0.00    -0.775 OA
HETATM   36  H   UNK N   1      17.358  15.365   5.092  0.00  0.00     0.167 HD
ENDBRANCH  33  35
ENDBRANCH  32  33
BRANCH  32  37
HETATM   37  N   UNK N   1      19.720  17.004   3.561  0.00  0.00    -0.418 N 
HETATM   38  H   UNK N   1      19.085  17.775   3.350  0.00  0.00     0.150 HD
HETATM   39  H   UNK N   1      20.521  17.072   2.935  0.00  0.00     0.150 HD
ENDBRANCH  32  37
ENDBRANCH  31  32
ENDBRANCH  30  31
ENDBRANCH  28  30
BRANCH  28  40
HETATM   40  O   UNK N   1      22.514  17.328   6.537  0.00  0.00    -0.350 OA
HETATM   41  H   UNK N   1      22.087  17.812   7.217  0.00  0.00     0.219 HD
ENDBRANCH  28  40
ENDBRANCH   1  27
TORSDOF 20
ENDMDL
MODEL 3
REMARK VINA RESULT:      -6.1      4.132      9.082
REMARK  20 active torsions:
REMARK  status: ('A' for Active; 'I' for Inactive)
REMARK    1  A    between atoms: C_6  and  C_5 
REMARK    2  A    between atoms: C_11  and  C_5 
REMARK    3  A    between atoms: C_13  and  C_6 
REMARK    4  A    between atoms: C_14  and  C_7 
REMARK    5  A    between atoms: N_20  and  C_7 
REMARK    6  A    between atoms: C_12  and  C_8 
REMARK    7  A    between atoms: S_33  and  C_8 
REMARK    8  A    between atoms: N_24  and  C_10 
REMARK    9  A    between atoms: C_16  and  C_11 
REMARK   10  A    between atoms: C_11  and  N_19 
REMARK   11  A    between atoms: C_15  and  C_12 
REMARK   12  A    between atoms: C_12  and  N_22 
REMARK   13  A    between atoms: C_13  and  O_25 
REMARK   14  A    between atoms: O_27  and  C_14 
REMARK   15  A    between atoms: O_28  and  C_15 
REMARK   16  A    between atoms: O_30  and  C_16 
REMARK   17  A    between atoms: N_24  and  C_17 
REMARK   18  A    between atoms: C_17  and  O_31 
REMARK   19  A    between atoms: S_33  and  C_17 
REMARK   20  A    between atoms: O_32  and  N_24 
ROOT
HETATM    1  C   UNK N   1      33.021  16.370   7.797  0.00  0.00     0.167 C 
ENDROOT
BRANCH   1   2
HETATM    2  C   UNK N   1      34.258  15.703   8.405  0.00  0.00     0.111 C 
BRANCH   2   3
HETATM    3  S   UNK N   1      33.933  14.806   9.968  0.00  0.00    -0.112 SA
BRANCH   3   4
HETATM    4  C   UNK N   1      34.837  15.900  11.130  0.00  0.00     0.311 C 
BRANCH   4   5
HETATM    5  N   UNK N   1      36.184  15.417  11.433  0.00  0.00    -0.222 N 
BRANCH   5   6
HETATM    6  C   UNK N   1      36.425  14.206  12.161  0.00  0.00     0.060 A 
HETATM    7  C   UNK N   1      35.968  14.081  13.484  0.00  0.00     0.033 A 
HETATM    8  C   UNK N   1      36.252  12.932  14.229  0.00  0.00     0.020 A 
HETATM    9  C   UNK N   1      36.975  11.886  13.650  0.00  0.00     0.006 A 
HETATM   10  C   UNK N   1      37.401  11.981  12.325  0.00  0.00     0.020 A 
HETATM   11  I   UNK N   1      37.458  10.179  14.781  0.00  0.00    -0.045 I 
HETATM   12  C   UNK N   1      37.130  13.133  11.586  0.00  0.00     0.033 A 
ENDBRANCH   5   6
BRANCH   5  13
HETATM   13  O   UNK N   1      37.205  15.955  10.743  0.00  0.00    -0.284 OA
HETATM   14  H   UNK N   1      37.749  16.650  11.145  0.00  0.00     0.245 HD
ENDBRANCH   5  13
ENDBRANCH   4   5
BRANCH   4  15
HETATM   15  O   UNK N   1      34.853  17.190  10.597  0.00  0.00    -0.366 OA
HETATM   16  H   UNK N   1      34.647  18.007  11.076  0.00  0.00     0.213 HD
ENDBRANCH   4  15
ENDBRANCH   3   4
ENDBRANCH   2   3
ENDBRANCH   1   2
BRANCH   1  17
HETATM   17  C   UNK N   1      33.381  17.125   6.539  0.00  0.00     0.136 C 
HETATM   18  N   UNK N   1      32.735  16.924   5.442  0.00  0.00    -0.363 N 
ATOM     19  HN  UNK N   1      31.981  16.237   5.437  1.00  0.00     0.161 HD
BRANCH  18  20
HETATM   20  C   UNK N   1      33.036  17.632   4.220  0.00  0.00     0.231 C 
BRANCH  20  21
HETATM   21  C   UNK N   1      32.503  16.887   3.040  0.00  0.00     0.158 C 
HETATM   22  O   UNK N   1      33.208  16.086   2.451  0.00  0.00    -0.649 OA
BRANCH  21  23
HETATM   23  O   UNK N   1      31.240  17.102   2.628  0.00  0.00    -0.775 OA
HETATM   24  H   UNK N   1      30.487  16.573   2.806  0.00  0.00     0.167 HD
ENDBRANCH  21  23
ENDBRANCH  20  21
ENDBRANCH  18  20
BRANCH  17  25
HETATM   25  O   UNK N   1      34.365  18.049   6.589  0.00  0.00    -0.348 OA
HETATM   26  H   UNK N   1      35.222  17.974   6.218  0.00  0.00     0.219 HD
ENDBRANCH  17  25
ENDBRANCH   1  17
BRANCH   1  27
HETATM   27  N   UNK N   1      32.242  17.144   8.759  0.00  0.00    -0.362 N 
HETATM   28  C   UNK N   1      30.992  17.483   8.727  0.00  0.00     0.111 C 
ATOM     29  HN  UNK N   1      32.758  17.468   9.576  1.00  0.00     0.162 HD
BRANCH  28  30
HETATM   30  C   UNK N   1      30.066  17.061   7.622  0.00  0.00     0.086 C 
BRANCH  30  31
HETATM   31  C   UNK N   1      28.782  17.880   7.448  0.00  0.00     0.043 C 
BRANCH  31  32
HETATM   32  C   UNK N   1      28.288  18.088   6.000  0.00  0.00     0.173 C 
BRANCH  32  33
HETATM   33  C   UNK N   1      27.609  19.414   5.723  0.00  0.00     0.163 C 
HETATM   34  O   UNK N   1      28.053  20.145   4.851  0.00  0.00    -0.648 OA
BRANCH  33  35
HETATM   35  O   UNK N   1      26.521  19.803   6.415  0.00  0.00    -0.775 OA
HETATM   36  H   UNK N   1      25.916  19.166   6.740  0.00  0.00     0.167 HD
ENDBRANCH  33  35
ENDBRANCH  32  33
BRANCH  32  37
HETATM   37  N   UNK N   1      29.386  17.896   5.069  0.00  0.00    -0.418 N 
HETATM   38  H   UNK N   1      29.863  18.301   4.263  0.00  0.00     0.150 HD
HETATM   39  H   UNK N   1      29.860  17.028   5.314  0.00  0.00     0.150 HD
ENDBRANCH  32  37
ENDBRANCH  31  32
ENDBRANCH  30  31
ENDBRANCH  28  30
BRANCH  28  40
HETATM   40  O   UNK N   1      30.492  18.162   9.773  0.00  0.00    -0.350 OA
HETATM   41  H   UNK N   1      30.665  18.987  10.182  0.00  0.00     0.219 HD
ENDBRANCH  28  40
ENDBRANCH   1  27
TORSDOF 20
ENDMDL
MODEL 4
REMARK VINA RESULT:      -5.9      4.283      8.892
REMARK  20 active torsions:
REMARK  status: ('A' for Active; 'I' for Inactive)
REMARK    1  A    between atoms: C_6  and  C_5 
REMARK    2  A    between atoms: C_11  and  C_5 
REMARK    3  A    between atoms: C_13  and  C_6 
REMARK    4  A    between atoms: C_14  and  C_7 
REMARK    5  A    between atoms: N_20  and  C_7 
REMARK    6  A    between atoms: C_12  and  C_8 
REMARK    7  A    between atoms: S_33  and  C_8 
REMARK    8  A    between atoms: N_24  and  C_10 
REMARK    9  A    between atoms: C_16  and  C_11 
REMARK   10  A    between atoms: C_11  and  N_19 
REMARK   11  A    between atoms: C_15  and  C_12 
REMARK   12  A    between atoms: C_12  and  N_22 
REMARK   13  A    between atoms: C_13  and  O_25 
REMARK   14  A    between atoms: O_27  and  C_14 
REMARK   15  A    between atoms: O_28  and  C_15 
REMARK   16  A    between atoms: O_30  and  C_16 
REMARK   17  A    between atoms: N_24  and  C_17 
REMARK   18  A    between atoms: C_17  and  O_31 
REMARK   19  A    between atoms: S_33  and  C_17 
REMARK   20  A    between atoms: O_32  and  N_24 
ROOT
HETATM    1  C   UNK N   1      33.702  15.179   9.451  0.00  0.00     0.167 C 
ENDROOT
BRANCH   1   2
HETATM    2  C   UNK N   1      34.045  15.310  10.938  0.00  0.00     0.111 C 
BRANCH   2   3
HETATM    3  S   UNK N   1      35.813  15.033  11.326  0.00  0.00    -0.112 SA
BRANCH   3   4
HETATM    4  C   UNK N   1      35.642  13.637  12.503  0.00  0.00     0.311 C 
BRANCH   4   5
HETATM    5  N   UNK N   1      36.113  13.967  13.847  0.00  0.00    -0.222 N 
BRANCH   5   6
HETATM    6  C   UNK N   1      36.054  13.037  14.936  0.00  0.00     0.060 A 
HETATM    7  C   UNK N   1      36.778  11.835  14.871  0.00  0.00     0.033 A 
HETATM    8  C   UNK N   1      36.680  10.889  15.896  0.00  0.00     0.020 A 
HETATM    9  C   UNK N   1      35.874  11.146  17.009  0.00  0.00     0.006 A 
HETATM   10  C   UNK N   1      35.180  12.353  17.104  0.00  0.00     0.020 A 
HETATM   11  I   UNK N   1      35.673   9.705  18.527  0.00  0.00    -0.045 I 
HETATM   12  C   UNK N   1      35.268  13.291  16.075  0.00  0.00     0.033 A 
ENDBRANCH   5   6
BRANCH   5  13
HETATM   13  O   UNK N   1      36.900  15.049  13.980  0.00  0.00    -0.284 OA
HETATM   14  H   UNK N   1      36.504  15.932  14.048  0.00  0.00     0.245 HD
ENDBRANCH   5  13
ENDBRANCH   4   5
BRANCH   4  15
HETATM   15  O   UNK N   1      34.310  13.222  12.503  0.00  0.00    -0.366 OA
HETATM   16  H   UNK N   1      33.991  12.326  12.692  0.00  0.00     0.213 HD
ENDBRANCH   4  15
ENDBRANCH   3   4
ENDBRANCH   2   3
ENDBRANCH   1   2
BRANCH   1  17
HETATM   17  C   UNK N   1      33.934  13.766   8.969  0.00  0.00     0.136 C 
HETATM   18  N   UNK N   1      33.333  12.772   9.527  0.00  0.00    -0.363 N 
ATOM     19  HN  UNK N   1      32.705  12.957  10.309  1.00  0.00     0.161 HD
BRANCH  18  20
HETATM   20  C   UNK N   1      33.514  11.408   9.091  0.00  0.00     0.231 C 
BRANCH  20  21
HETATM   21  C   UNK N   1      34.060  10.572  10.203  0.00  0.00     0.158 C 
HETATM   22  O   UNK N   1      35.026   9.853  10.012  0.00  0.00    -0.649 OA
BRANCH  21  23
HETATM   23  O   UNK N   1      33.482  10.615  11.417  0.00  0.00    -0.775 OA
HETATM   24  H   UNK N   1      32.718  11.097  11.666  0.00  0.00     0.167 HD
ENDBRANCH  21  23
ENDBRANCH  20  21
ENDBRANCH  18  20
BRANCH  17  25
HETATM   25  O   UNK N   1      34.749  13.561   7.911  0.00  0.00    -0.348 OA
HETATM   26  H   UNK N   1      34.726  12.833   7.321  0.00  0.00     0.219 HD
ENDBRANCH  17  25
ENDBRANCH   1  17
BRANCH   1  27
HETATM   27  N   UNK N   1      34.318  16.206   8.616  0.00  0.00    -0.362 N 
HETATM   28  C   UNK N   1      33.775  16.999   7.748  0.00  0.00     0.111 C 
ATOM     29  HN  UNK N   1      35.325  16.316   8.733  1.00  0.00     0.162 HD
BRANCH  28  30
HETATM   30  C   UNK N   1      32.298  17.010   7.473  0.00  0.00     0.086 C 
BRANCH  30  31
HETATM   31  C   UNK N   1      31.420  17.795   8.454  0.00  0.00     0.043 C 
BRANCH  31  32
HETATM   32  C   UNK N   1      29.954  17.328   8.592  0.00  0.00     0.173 C 
BRANCH  32  33
HETATM   33  C   UNK N   1      29.076  18.182   9.484  0.00  0.00     0.163 C 
HETATM   34  O   UNK N   1      29.594  18.905  10.321  0.00  0.00    -0.648 OA
BRANCH  33  35
HETATM   35  O   UNK N   1      27.734  18.166   9.370  0.00  0.00    -0.775 OA
HETATM   36  H   UNK N   1      27.329  18.353   8.546  0.00  0.00     0.167 HD
ENDBRANCH  33  35
ENDBRANCH  32  33
BRANCH  32  37
HETATM   37  N   UNK N   1      29.347  17.206   7.279  0.00  0.00    -0.418 N 
HETATM   38  H   UNK N   1      28.871  17.725   6.540  0.00  0.00     0.150 HD
HETATM   39  H   UNK N   1      29.426  16.234   6.983  0.00  0.00     0.150 HD
ENDBRANCH  32  37
ENDBRANCH  31  32
ENDBRANCH  30  31
ENDBRANCH  28  30
BRANCH  28  40
HETATM   40  O   UNK N   1      34.558  17.905   7.139  0.00  0.00    -0.350 OA
HETATM   41  H   UNK N   1      35.391  17.893   6.711  0.00  0.00     0.219 HD
ENDBRANCH  28  40
ENDBRANCH   1  27
TORSDOF 20
ENDMDL
MODEL 5
REMARK VINA RESULT:      -5.9      4.184      8.001
REMARK  20 active torsions:
REMARK  status: ('A' for Active; 'I' for Inactive)
REMARK    1  A    between atoms: C_6  and  C_5 
REMARK    2  A    between atoms: C_11  and  C_5 
REMARK    3  A    between atoms: C_13  and  C_6 
REMARK    4  A    between atoms: C_14  and  C_7 
REMARK    5  A    between atoms: N_20  and  C_7 
REMARK    6  A    between atoms: C_12  and  C_8 
REMARK    7  A    between atoms: S_33  and  C_8 
REMARK    8  A    between atoms: N_24  and  C_10 
REMARK    9  A    between atoms: C_16  and  C_11 
REMARK   10  A    between atoms: C_11  and  N_19 
REMARK   11  A    between atoms: C_15  and  C_12 
REMARK   12  A    between atoms: C_12  and  N_22 
REMARK   13  A    between atoms: C_13  and  O_25 
REMARK   14  A    between atoms: O_27  and  C_14 
REMARK   15  A    between atoms: O_28  and  C_15 
REMARK   16  A    between atoms: O_30  and  C_16 
REMARK   17  A    between atoms: N_24  and  C_17 
REMARK   18  A    between atoms: C_17  and  O_31 
REMARK   19  A    between atoms: S_33  and  C_17 
REMARK   20  A    between atoms: O_32  and  N_24 
ROOT
HETATM    1  C   UNK N   1      34.507  13.606   9.668  0.00  0.00     0.167 C 
ENDROOT
BRANCH   1   2
HETATM    2  C   UNK N   1      35.770  13.382  10.505  0.00  0.00     0.111 C 
BRANCH   2   3
HETATM    3  S   UNK N   1      35.443  12.834  12.222  0.00  0.00    -0.112 SA
BRANCH   3   4
HETATM    4  C   UNK N   1      35.776  14.408  13.103  0.00  0.00     0.311 C 
BRANCH   4   5
HETATM    5  N   UNK N   1      36.392  14.205  14.413  0.00  0.00    -0.222 N 
BRANCH   5   6
HETATM    6  C   UNK N   1      36.244  12.988  15.156  0.00  0.00     0.060 A 
HETATM    7  C   UNK N   1      35.231  12.877  16.123  0.00  0.00     0.033 A 
HETATM    8  C   UNK N   1      35.115  11.720  16.901  0.00  0.00     0.020 A 
HETATM    9  C   UNK N   1      35.997  10.655  16.705  0.00  0.00     0.006 A 
HETATM   10  C   UNK N   1      36.984  10.738  15.722  0.00  0.00     0.020 A 
HETATM   11  I   UNK N   1      35.869   8.936  17.910  0.00  0.00    -0.045 I 
HETATM   12  C   UNK N   1      37.108  11.897  14.955  0.00  0.00     0.033 A 
ENDBRANCH   5   6
BRANCH   5  13
HETATM   13  O   UNK N   1      37.368  15.055  14.778  0.00  0.00    -0.284 OA
HETATM   14  H   UNK N   1      38.253  14.717  14.986  0.00  0.00     0.245 HD
ENDBRANCH   5  13
ENDBRANCH   4   5
BRANCH   4  15
HETATM   15  O   UNK N   1      36.560  15.216  12.278  0.00  0.00    -0.366 OA
HETATM   16  H   UNK N   1      37.269  15.811  12.569  0.00  0.00     0.213 HD
ENDBRANCH   4  15
ENDBRANCH   3   4
ENDBRANCH   2   3
ENDBRANCH   1   2
BRANCH   1  17
HETATM   17  C   UNK N   1      33.998  15.019   9.830  0.00  0.00     0.136 C 
HETATM   18  N   UNK N   1      34.364  15.949   9.016  0.00  0.00    -0.363 N 
ATOM     19  HN  UNK N   1      35.013  15.714   8.266  1.00  0.00     0.161 HD
BRANCH  18  20
HETATM   20  C   UNK N   1      33.893  17.309   9.125  0.00  0.00     0.231 C 
BRANCH  20  21
HETATM   21  C   UNK N   1      34.591  18.184   8.136  0.00  0.00     0.158 C 
HETATM   22  O   UNK N   1      35.271  19.121   8.519  0.00  0.00    -0.649 OA
BRANCH  21  23
HETATM   23  O   UNK N   1      34.467  17.937   6.819  0.00  0.00    -0.775 OA
HETATM   24  H   UNK N   1      34.093  18.498   6.169  0.00  0.00     0.167 HD
ENDBRANCH  21  23
ENDBRANCH  20  21
ENDBRANCH  18  20
BRANCH  17  25
HETATM   25  O   UNK N   1      33.116  15.287  10.817  0.00  0.00    -0.348 OA
HETATM   26  H   UNK N   1      33.310  15.663  11.654  0.00  0.00     0.219 HD
ENDBRANCH  17  25
ENDBRANCH   1  17
BRANCH   1  27
HETATM   27  N   UNK N   1      33.490  12.576   9.858  0.00  0.00    -0.362 N 
HETATM   28  C   UNK N   1      33.125  11.619   9.064  0.00  0.00     0.111 C 
ATOM     29  HN  UNK N   1      32.991  12.616  10.746  1.00  0.00     0.162 HD
BRANCH  28  30
HETATM   30  C   UNK N   1      33.776  11.379   7.733  0.00  0.00     0.086 C 
BRANCH  30  31
HETATM   31  C   UNK N   1      33.368  12.313   6.587  0.00  0.00     0.043 C 
BRANCH  31  32
HETATM   32  C   UNK N   1      34.505  13.106   5.906  0.00  0.00     0.173 C 
BRANCH  32  33
HETATM   33  C   UNK N   1      34.436  14.612   6.060  0.00  0.00     0.163 C 
HETATM   34  O   UNK N   1      33.354  15.147   6.241  0.00  0.00    -0.648 OA
BRANCH  33  35
HETATM   35  O   UNK N   1      35.546  15.373   6.008  0.00  0.00    -0.775 OA
HETATM   36  H   UNK N   1      36.022  15.568   6.791  0.00  0.00     0.167 HD
ENDBRANCH  33  35
ENDBRANCH  32  33
BRANCH  32  37
HETATM   37  N   UNK N   1      35.793  12.624   6.371  0.00  0.00    -0.418 N 
HETATM   38  H   UNK N   1      36.439  12.632   7.161  0.00  0.00     0.150 HD
HETATM   39  H   UNK N   1      36.210  12.067   5.627  0.00  0.00     0.150 HD
ENDBRANCH  32  37
ENDBRANCH  31  32
ENDBRANCH  30  31
ENDBRANCH  28  30
BRANCH  28  40
HETATM   40  O   UNK N   1      32.189  10.758   9.497  0.00  0.00    -0.350 OA
HETATM   41  H   UNK N   1      31.307  10.825   9.809  0.00  0.00     0.219 HD
ENDBRANCH  28  40
ENDBRANCH   1  27
TORSDOF 20
ENDMDL
MODEL 6
REMARK VINA RESULT:      -5.9      5.227      9.674
REMARK  20 active torsions:
REMARK  status: ('A' for Active; 'I' for Inactive)
REMARK    1  A    between atoms: C_6  and  C_5 
REMARK    2  A    between atoms: C_11  and  C_5 
REMARK    3  A    between atoms: C_13  and  C_6 
REMARK    4  A    between atoms: C_14  and  C_7 
REMARK    5  A    between atoms: N_20  and  C_7 
REMARK    6  A    between atoms: C_12  and  C_8 
REMARK    7  A    between atoms: S_33  and  C_8 
REMARK    8  A    between atoms: N_24  and  C_10 
REMARK    9  A    between atoms: C_16  and  C_11 
REMARK   10  A    between atoms: C_11  and  N_19 
REMARK   11  A    between atoms: C_15  and  C_12 
REMARK   12  A    between atoms: C_12  and  N_22 
REMARK   13  A    between atoms: C_13  and  O_25 
REMARK   14  A    between atoms: O_27  and  C_14 
REMARK   15  A    between atoms: O_28  and  C_15 
REMARK   16  A    between atoms: O_30  and  C_16 
REMARK   17  A    between atoms: N_24  and  C_17 
REMARK   18  A    between atoms: C_17  and  O_31 
REMARK   19  A    between atoms: S_33  and  C_17 
REMARK   20  A    between atoms: O_32  and  N_24 
ROOT
HETATM    1  C   UNK N   1      36.635  14.003  10.891  0.00  0.00     0.167 C 
ENDROOT
BRANCH   1   2
HETATM    2  C   UNK N   1      36.517  13.266  12.229  0.00  0.00     0.111 C 
BRANCH   2   3
HETATM    3  S   UNK N   1      36.258  14.367  13.670  0.00  0.00    -0.112 SA
BRANCH   3   4
HETATM    4  C   UNK N   1      36.749  13.217  15.011  0.00  0.00     0.311 C 
BRANCH   4   5
HETATM    5  N   UNK N   1      35.612  12.505  15.593  0.00  0.00    -0.222 N 
BRANCH   5   6
HETATM    6  C   UNK N   1      35.688  11.824  16.852  0.00  0.00     0.060 A 
HETATM    7  C   UNK N   1      35.256  12.466  18.024  0.00  0.00     0.033 A 
HETATM    8  C   UNK N   1      35.385  11.839  19.268  0.00  0.00     0.020 A 
HETATM    9  C   UNK N   1      35.926  10.553  19.348  0.00  0.00     0.006 A 
HETATM   10  C   UNK N   1      36.325   9.889  18.188  0.00  0.00     0.020 A 
HETATM   11  I   UNK N   1      36.179   9.626  21.219  0.00  0.00    -0.045 I 
HETATM   12  C   UNK N   1      36.208  10.520  16.949  0.00  0.00     0.033 A 
ENDBRANCH   5   6
BRANCH   5  13
HETATM   13  O   UNK N   1      34.393  12.766  15.087  0.00  0.00    -0.284 OA
HETATM   14  H   UNK N   1      34.190  13.648  14.740  0.00  0.00     0.245 HD
ENDBRANCH   5  13
ENDBRANCH   4   5
BRANCH   4  15
HETATM   15  O   UNK N   1      37.712  12.340  14.509  0.00  0.00    -0.366 OA
HETATM   16  H   UNK N   1      38.655  12.534  14.392  0.00  0.00     0.213 HD
ENDBRANCH   4  15
ENDBRANCH   3   4
ENDBRANCH   2   3
ENDBRANCH   1   2
BRANCH   1  17
HETATM   17  C   UNK N   1      37.889  13.588  10.158  0.00  0.00     0.136 C 
HETATM   18  N   UNK N   1      37.910  13.527   8.871  0.00  0.00    -0.363 N 
ATOM     19  HN  UNK N   1      37.060  13.756   8.356  1.00  0.00     0.161 HD
BRANCH  18  20
HETATM   20  C   UNK N   1      39.088  13.148   8.128  0.00  0.00     0.231 C 
BRANCH  20  21
HETATM   21  C   UNK N   1      39.288  14.063   6.964  0.00  0.00     0.158 C 
HETATM   22  O   UNK N   1      38.466  14.099   6.064  0.00  0.00    -0.649 OA
BRANCH  21  23
HETATM   23  O   UNK N   1      40.379  14.849   6.910  0.00  0.00    -0.775 OA
HETATM   24  H   UNK N   1      40.928  15.008   6.167  0.00  0.00     0.167 HD
ENDBRANCH  21  23
ENDBRANCH  20  21
ENDBRANCH  18  20
BRANCH  17  25
HETATM   25  O   UNK N   1      39.006  13.321  10.869  0.00  0.00    -0.348 OA
HETATM   26  H   UNK N   1      39.655  13.940  11.143  0.00  0.00     0.219 HD
ENDBRANCH  17  25
ENDBRANCH   1  17
BRANCH   1  27
HETATM   27  N   UNK N   1      36.457  15.448  11.002  0.00  0.00    -0.362 N 
HETATM   28  C   UNK N   1      35.774  16.255  10.253  0.00  0.00     0.111 C 
ATOM     29  HN  UNK N   1      36.942  15.888  11.783  1.00  0.00     0.162 HD
BRANCH  28  30
HETATM   30  C   UNK N   1      34.961  15.782   9.082  0.00  0.00     0.086 C 
BRANCH  30  31
HETATM   31  C   UNK N   1      33.474  16.156   9.079  0.00  0.00     0.043 C 
BRANCH  31  32
HETATM   32  C   UNK N   1      33.115  17.546   8.509  0.00  0.00     0.173 C 
BRANCH  32  33
HETATM   33  C   UNK N   1      34.217  18.243   7.738  0.00  0.00     0.163 C 
HETATM   34  O   UNK N   1      34.372  17.990   6.553  0.00  0.00    -0.648 OA
BRANCH  33  35
HETATM   35  O   UNK N   1      35.027  19.141   8.329  0.00  0.00    -0.775 OA
HETATM   36  H   UNK N   1      35.809  19.427   7.899  0.00  0.00     0.167 HD
ENDBRANCH  33  35
ENDBRANCH  32  33
BRANCH  32  37
HETATM   37  N   UNK N   1      31.924  17.451   7.684  0.00  0.00    -0.418 N 
HETATM   38  H   UNK N   1      30.905  17.393   7.711  0.00  0.00     0.150 HD
HETATM   39  H   UNK N   1      32.216  17.437   6.708  0.00  0.00     0.150 HD
ENDBRANCH  32  37
ENDBRANCH  31  32
ENDBRANCH  30  31
ENDBRANCH  28  30
BRANCH  28  40
HETATM   40  O   UNK N   1      35.724  17.553  10.599  0.00  0.00    -0.350 OA
HETATM   41  H   UNK N   1      36.344  18.250  10.678  0.00  0.00     0.219 HD
ENDBRANCH  28  40
ENDBRANCH   1  27
TORSDOF 20
ENDMDL
MODEL 7
REMARK VINA RESULT:      -5.8      8.169     12.510
REMARK  20 active torsions:
REMARK  status: ('A' for Active; 'I' for Inactive)
REMARK    1  A    between atoms: C_6  and  C_5 
REMARK    2  A    between atoms: C_11  and  C_5 
REMARK    3  A    between atoms: C_13  and  C_6 
REMARK    4  A    between atoms: C_14  and  C_7 
REMARK    5  A    between atoms: N_20  and  C_7 
REMARK    6  A    between atoms: C_12  and  C_8 
REMARK    7  A    between atoms: S_33  and  C_8 
REMARK    8  A    between atoms: N_24  and  C_10 
REMARK    9  A    between atoms: C_16  and  C_11 
REMARK   10  A    between atoms: C_11  and  N_19 
REMARK   11  A    between atoms: C_15  and  C_12 
REMARK   12  A    between atoms: C_12  and  N_22 
REMARK   13  A    between atoms: C_13  and  O_25 
REMARK   14  A    between atoms: O_27  and  C_14 
REMARK   15  A    between atoms: O_28  and  C_15 
REMARK   16  A    between atoms: O_30  and  C_16 
REMARK   17  A    between atoms: N_24  and  C_17 
REMARK   18  A    between atoms: C_17  and  O_31 
REMARK   19  A    between atoms: S_33  and  C_17 
REMARK   20  A    between atoms: O_32  and  N_24 
ROOT
HETATM    1  C   UNK N   1      24.042  17.547   4.770  0.00  0.00     0.167 C 
ENDROOT
BRANCH   1   2
HETATM    2  C   UNK N   1      24.824  16.371   5.363  0.00  0.00     0.111 C 
BRANCH   2   3
HETATM    3  S   UNK N   1      26.619  16.405   4.999  0.00  0.00    -0.112 SA
BRANCH   3   4
HETATM    4  C   UNK N   1      27.269  16.134   6.693  0.00  0.00     0.311 C 
BRANCH   4   5
HETATM    5  N   UNK N   1      27.939  17.314   7.239  0.00  0.00    -0.222 N 
BRANCH   5   6
HETATM    6  C   UNK N   1      29.355  17.369   7.449  0.00  0.00     0.060 A 
HETATM    7  C   UNK N   1      29.871  18.034   8.574  0.00  0.00     0.033 A 
HETATM    8  C   UNK N   1      31.252  18.153   8.760  0.00  0.00     0.020 A 
HETATM    9  C   UNK N   1      32.132  17.588   7.832  0.00  0.00     0.006 A 
HETATM   10  C   UNK N   1      31.633  16.892   6.731  0.00  0.00     0.020 A 
HETATM   11  I   UNK N   1      34.209  17.812   8.070  0.00  0.00    -0.045 I 
HETATM   12  C   UNK N   1      30.255  16.785   6.539  0.00  0.00     0.033 A 
ENDBRANCH   5   6
BRANCH   5  13
HETATM   13  O   UNK N   1      27.252  18.470   7.244  0.00  0.00    -0.284 OA
HETATM   14  H   UNK N   1      26.378  18.513   7.662  0.00  0.00     0.245 HD
ENDBRANCH   5  13
ENDBRANCH   4   5
BRANCH   4  15
HETATM   15  O   UNK N   1      26.216  15.709   7.505  0.00  0.00    -0.366 OA
HETATM   16  H   UNK N   1      25.729  16.256   8.141  0.00  0.00     0.213 HD
ENDBRANCH   4  15
ENDBRANCH   3   4
ENDBRANCH   2   3
ENDBRANCH   1   2
BRANCH   1  17
HETATM   17  C   UNK N   1      24.982  18.591   4.214  0.00  0.00     0.136 C 
HETATM   18  N   UNK N   1      25.321  19.614   4.920  0.00  0.00    -0.363 N 
ATOM     19  HN  UNK N   1      24.935  19.711   5.859  1.00  0.00     0.161 HD
BRANCH  18  20
HETATM   20  C   UNK N   1      26.227  20.629   4.436  0.00  0.00     0.231 C 
BRANCH  20  21
HETATM   21  C   UNK N   1      27.552  20.515   5.115  0.00  0.00     0.158 C 
HETATM   22  O   UNK N   1      28.386  19.725   4.705  0.00  0.00    -0.649 OA
BRANCH  21  23
HETATM   23  O   UNK N   1      27.825  21.286   6.184  0.00  0.00    -0.775 OA
HETATM   24  H   UNK N   1      27.784  22.220   6.235  0.00  0.00     0.167 HD
ENDBRANCH  21  23
ENDBRANCH  20  21
ENDBRANCH  18  20
BRANCH  17  25
HETATM   25  O   UNK N   1      25.500  18.415   2.979  0.00  0.00    -0.348 OA
HETATM   26  H   UNK N   1      25.659  17.597   2.551  0.00  0.00     0.219 HD
ENDBRANCH  17  25
ENDBRANCH   1  17
BRANCH   1  27
HETATM   27  N   UNK N   1      23.017  18.078   5.664  0.00  0.00    -0.362 N 
HETATM   28  C   UNK N   1      21.756  18.277   5.446  0.00  0.00     0.111 C 
ATOM     29  HN  UNK N   1      23.341  18.330   6.596  1.00  0.00     0.162 HD
BRANCH  28  30
HETATM   30  C   UNK N   1      21.092  17.926   4.146  0.00  0.00     0.086 C 
BRANCH  30  31
HETATM   31  C   UNK N   1      21.421  18.815   2.941  0.00  0.00     0.043 C 
BRANCH  31  32
HETATM   32  C   UNK N   1      20.338  19.833   2.519  0.00  0.00     0.173 C 
BRANCH  32  33
HETATM   33  C   UNK N   1      20.588  20.550   1.208  0.00  0.00     0.163 C 
HETATM   34  O   UNK N   1      20.682  21.767   1.199  0.00  0.00    -0.648 OA
BRANCH  33  35
HETATM   35  O   UNK N   1      20.716  19.872   0.051  0.00  0.00    -0.775 OA
HETATM   36  H   UNK N   1      21.200  19.070   0.025  0.00  0.00     0.167 HD
ENDBRANCH  33  35
ENDBRANCH  32  33
BRANCH  32  37
HETATM   37  N   UNK N   1      19.038  19.187   2.484  0.00  0.00    -0.418 N 
HETATM   38  H   UNK N   1      18.032  19.360   2.486  0.00  0.00     0.150 HD
HETATM   39  H   UNK N   1      19.186  18.180   2.441  0.00  0.00     0.150 HD
ENDBRANCH  32  37
ENDBRANCH  31  32
ENDBRANCH  30  31
ENDBRANCH  28  30
BRANCH  28  40
HETATM   40  O   UNK N   1      21.001  18.733   6.461  0.00  0.00    -0.350 OA
HETATM   41  H   UNK N   1      20.581  19.543   6.673  0.00  0.00     0.219 HD
ENDBRANCH  28  40
ENDBRANCH   1  27
TORSDOF 20
ENDMDL
MODEL 8
REMARK VINA RESULT:      -5.8      2.138      3.254
REMARK  20 active torsions:
REMARK  status: ('A' for Active; 'I' for Inactive)
REMARK    1  A    between atoms: C_6  and  C_5 
REMARK    2  A    between atoms: C_11  and  C_5 
REMARK    3  A    between atoms: C_13  and  C_6 
REMARK    4  A    between atoms: C_14  and  C_7 
REMARK    5  A    between atoms: N_20  and  C_7 
REMARK    6  A    between atoms: C_12  and  C_8 
REMARK    7  A    between atoms: S_33  and  C_8 
REMARK    8  A    between atoms: N_24  and  C_10 
REMARK    9  A    between atoms: C_16  and  C_11 
REMARK   10  A    between atoms: C_11  and  N_19 
REMARK   11  A    between atoms: C_15  and  C_12 
REMARK   12  A    between atoms: C_12  and  N_22 
REMARK   13  A    between atoms: C_13  and  O_25 
REMARK   14  A    between atoms: O_27  and  C_14 
REMARK   15  A    between atoms: O_28  and  C_15 
REMARK   16  A    between atoms: O_30  and  C_16 
REMARK   17  A    between atoms: N_24  and  C_17 
REMARK   18  A    between atoms: C_17  and  O_31 
REMARK   19  A    between atoms: S_33  and  C_17 
REMARK   20  A    between atoms: O_32  and  N_24 
ROOT
HETATM    1  C   UNK N   1      34.896  13.754   9.851  0.00  0.00     0.167 C 
ENDROOT
BRANCH   1   2
HETATM    2  C   UNK N   1      34.469  12.845   8.695  0.00  0.00     0.111 C 
BRANCH   2   3
HETATM    3  S   UNK N   1      35.543  12.957   7.216  0.00  0.00    -0.112 SA
BRANCH   3   4
HETATM    4  C   UNK N   1      34.286  13.447   5.974  0.00  0.00     0.311 C 
BRANCH   4   5
HETATM    5  N   UNK N   1      34.235  14.893   5.758  0.00  0.00    -0.222 N 
BRANCH   5   6
HETATM    6  C   UNK N   1      33.003  15.607   5.596  0.00  0.00     0.060 A 
HETATM    7  C   UNK N   1      31.962  15.427   6.522  0.00  0.00     0.033 A 
HETATM    8  C   UNK N   1      30.731  16.067   6.341  0.00  0.00     0.020 A 
HETATM    9  C   UNK N   1      30.537  16.911   5.245  0.00  0.00     0.006 A 
HETATM   10  C   UNK N   1      31.575  17.128   4.338  0.00  0.00     0.020 A 
HETATM   11  I   UNK N   1      28.671  17.830   4.933  0.00  0.00    -0.045 I 
HETATM   12  C   UNK N   1      32.799  16.479   4.511  0.00  0.00     0.033 A 
ENDBRANCH   5   6
BRANCH   5  13
HETATM   13  O   UNK N   1      35.345  15.600   6.031  0.00  0.00    -0.284 OA
HETATM   14  H   UNK N   1      35.288  16.557   6.177  0.00  0.00     0.245 HD
ENDBRANCH   5  13
ENDBRANCH   4   5
BRANCH   4  15
HETATM   15  O   UNK N   1      34.541  12.751   4.792  0.00  0.00    -0.366 OA
HETATM   16  H   UNK N   1      34.120  11.922   4.516  0.00  0.00     0.213 HD
ENDBRANCH   4  15
ENDBRANCH   3   4
ENDBRANCH   2   3
ENDBRANCH   1   2
BRANCH   1  17
HETATM   17  C   UNK N   1      34.142  15.062   9.813  0.00  0.00     0.136 C 
HETATM   18  N   UNK N   1      34.578  16.054   9.115  0.00  0.00    -0.363 N 
ATOM     19  HN  UNK N   1      35.449  15.942   8.597  1.00  0.00     0.161 HD
BRANCH  18  20
HETATM   20  C   UNK N   1      33.884  17.318   9.039  0.00  0.00     0.231 C 
BRANCH  20  21
HETATM   21  C   UNK N   1      34.633  18.274   8.169  0.00  0.00     0.158 C 
HETATM   22  O   UNK N   1      35.315  19.153   8.669  0.00  0.00    -0.649 OA
BRANCH  21  23
HETATM   23  O   UNK N   1      34.554  18.163   6.830  0.00  0.00    -0.775 OA
HETATM   24  H   UNK N   1      33.855  18.450   6.277  0.00  0.00     0.167 HD
ENDBRANCH  21  23
ENDBRANCH  20  21
ENDBRANCH  18  20
BRANCH  17  25
HETATM   25  O   UNK N   1      32.976  15.165  10.486  0.00  0.00    -0.348 OA
HETATM   26  H   UNK N   1      32.226  15.667  10.232  0.00  0.00     0.219 HD
ENDBRANCH  17  25
ENDBRANCH   1  17
BRANCH   1  27
HETATM   27  N   UNK N   1      36.344  13.900   9.974  0.00  0.00    -0.362 N 
HETATM   28  C   UNK N   1      37.122  13.595  10.964  0.00  0.00     0.111 C 
ATOM     29  HN  UNK N   1      36.811  14.303   9.163  1.00  0.00     0.162 HD
BRANCH  28  30
HETATM   30  C   UNK N   1      36.618  12.953  12.224  0.00  0.00     0.086 C 
BRANCH  30  31
HETATM   31  C   UNK N   1      36.029  13.889  13.287  0.00  0.00     0.043 C 
BRANCH  31  32
HETATM   32  C   UNK N   1      36.486  13.653  14.743  0.00  0.00     0.173 C 
BRANCH  32  33
HETATM   33  C   UNK N   1      35.421  13.140  15.689  0.00  0.00     0.163 C 
HETATM   34  O   UNK N   1      35.721  12.874  16.843  0.00  0.00    -0.648 OA
BRANCH  33  35
HETATM   35  O   UNK N   1      34.145  12.977  15.288  0.00  0.00    -0.775 OA
HETATM   36  H   UNK N   1      33.713  13.653  14.804  0.00  0.00     0.167 HD
ENDBRANCH  33  35
ENDBRANCH  32  33
BRANCH  32  37
HETATM   37  N   UNK N   1      37.632  12.762  14.765  0.00  0.00    -0.418 N 
HETATM   38  H   UNK N   1      38.108  12.045  15.314  0.00  0.00     0.150 HD
HETATM   39  H   UNK N   1      38.161  12.905  13.905  0.00  0.00     0.150 HD
ENDBRANCH  32  37
ENDBRANCH  31  32
ENDBRANCH  30  31
ENDBRANCH  28  30
BRANCH  28  40
HETATM   40  O   UNK N   1      38.444  13.781  10.811  0.00  0.00    -0.350 OA
HETATM   41  H   UNK N   1      38.988  14.396  10.361  0.00  0.00     0.219 HD
ENDBRANCH  28  40
ENDBRANCH   1  27
TORSDOF 20
ENDMDL
MODEL 9
REMARK VINA RESULT:      -5.8      9.638     13.721
REMARK  20 active torsions:
REMARK  status: ('A' for Active; 'I' for Inactive)
REMARK    1  A    between atoms: C_6  and  C_5 
REMARK    2  A    between atoms: C_11  and  C_5 
REMARK    3  A    between atoms: C_13  and  C_6 
REMARK    4  A    between atoms: C_14  and  C_7 
REMARK    5  A    between atoms: N_20  and  C_7 
REMARK    6  A    between atoms: C_12  and  C_8 
REMARK    7  A    between atoms: S_33  and  C_8 
REMARK    8  A    between atoms: N_24  and  C_10 
REMARK    9  A    between atoms: C_16  and  C_11 
REMARK   10  A    between atoms: C_11  and  N_19 
REMARK   11  A    between atoms: C_15  and  C_12 
REMARK   12  A    between atoms: C_12  and  N_22 
REMARK   13  A    between atoms: C_13  and  O_25 
REMARK   14  A    between atoms: O_27  and  C_14 
REMARK   15  A    between atoms: O_28  and  C_15 
REMARK   16  A    between atoms: O_30  and  C_16 
REMARK   17  A    between atoms: N_24  and  C_17 
REMARK   18  A    between atoms: C_17  and  O_31 
REMARK   19  A    between atoms: S_33  and  C_17 
REMARK   20  A    between atoms: O_32  and  N_24 
ROOT
HETATM    1  C   UNK N   1      22.870  18.139   4.144  0.00  0.00     0.167 C 
ENDROOT
BRANCH   1   2
HETATM    2  C   UNK N   1      24.265  18.749   4.304  0.00  0.00     0.111 C 
BRANCH   2   3
HETATM    3  S   UNK N   1      25.620  17.702   3.653  0.00  0.00    -0.112 SA
BRANCH   3   4
HETATM    4  C   UNK N   1      26.984  18.280   4.734  0.00  0.00     0.311 C 
BRANCH   4   5
HETATM    5  N   UNK N   1      27.338  17.309   5.769  0.00  0.00    -0.222 N 
BRANCH   5   6
HETATM    6  C   UNK N   1      28.639  17.259   6.369  0.00  0.00     0.060 A 
HETATM    7  C   UNK N   1      28.895  17.979   7.547  0.00  0.00     0.033 A 
HETATM    8  C   UNK N   1      30.177  17.992   8.108  0.00  0.00     0.020 A 
HETATM    9  C   UNK N   1      31.209  17.265   7.509  0.00  0.00     0.006 A 
HETATM   10  C   UNK N   1      30.958  16.515   6.360  0.00  0.00     0.020 A 
HETATM   11  I   UNK N   1      33.152  17.326   8.311  0.00  0.00    -0.045 I 
HETATM   12  C   UNK N   1      29.683  16.513   5.793  0.00  0.00     0.033 A 
ENDBRANCH   5   6
BRANCH   5  13
HETATM   13  O   UNK N   1      26.331  16.666   6.387  0.00  0.00    -0.284 OA
HETATM   14  H   UNK N   1      26.219  15.711   6.267  0.00  0.00     0.245 HD
ENDBRANCH   5  13
ENDBRANCH   4   5
BRANCH   4  15
HETATM   15  O   UNK N   1      28.076  18.605   3.928  0.00  0.00    -0.366 OA
HETATM   16  H   UNK N   1      28.991  18.311   4.062  0.00  0.00     0.213 HD
ENDBRANCH   4  15
ENDBRANCH   3   4
ENDBRANCH   2   3
ENDBRANCH   1   2
BRANCH   1  17
HETATM   17  C   UNK N   1      21.836  19.215   3.912  0.00  0.00     0.136 C 
HETATM   18  N   UNK N   1      21.693  19.751   2.748  0.00  0.00    -0.363 N 
ATOM     19  HN  UNK N   1      22.299  19.441   1.989  1.00  0.00     0.161 HD
BRANCH  18  20
HETATM   20  C   UNK N   1      20.710  20.773   2.476  0.00  0.00     0.231 C 
BRANCH  20  21
HETATM   21  C   UNK N   1      20.728  21.144   1.030  0.00  0.00     0.158 C 
HETATM   22  O   UNK N   1      20.962  20.298   0.182  0.00  0.00    -0.649 OA
BRANCH  21  23
HETATM   23  O   UNK N   1      20.485  22.415   0.662  0.00  0.00    -0.775 OA
HETATM   24  H   UNK N   1      20.808  22.857  -0.098  0.00  0.00     0.167 HD
ENDBRANCH  21  23
ENDBRANCH  20  21
ENDBRANCH  18  20
BRANCH  17  25
HETATM   25  O   UNK N   1      21.029  19.580   4.931  0.00  0.00    -0.348 OA
HETATM   26  H   UNK N   1      20.443  20.311   4.947  0.00  0.00     0.219 HD
ENDBRANCH  17  25
ENDBRANCH   1  17
BRANCH   1  27
HETATM   27  N   UNK N   1      22.522  17.192   5.200  0.00  0.00    -0.362 N 
HETATM   28  C   UNK N   1      21.994  16.012   5.109  0.00  0.00     0.111 C 
ATOM     29  HN  UNK N   1      22.724  17.505   6.149  1.00  0.00     0.162 HD
BRANCH  28  30
HETATM   30  C   UNK N   1      21.669  15.369   3.792  0.00  0.00     0.086 C 
BRANCH  30  31
HETATM   31  C   UNK N   1      20.338  15.764   3.141  0.00  0.00     0.043 C 
BRANCH  31  32
HETATM   32  C   UNK N   1      20.268  15.670   1.601  0.00  0.00     0.173 C 
BRANCH  32  33
HETATM   33  C   UNK N   1      19.963  16.966   0.878  0.00  0.00     0.163 C 
HETATM   34  O   UNK N   1      20.346  17.116  -0.271  0.00  0.00    -0.648 OA
BRANCH  33  35
HETATM   35  O   UNK N   1      19.271  17.955   1.475  0.00  0.00    -0.775 OA
HETATM   36  H   UNK N   1      19.712  18.724   1.778  0.00  0.00     0.167 HD
ENDBRANCH  33  35
ENDBRANCH  32  33
BRANCH  32  37
HETATM   37  N   UNK N   1      21.498  15.098   1.083  0.00  0.00    -0.418 N 
HETATM   38  H   UNK N   1      22.239  15.225   0.393  0.00  0.00     0.150 HD
HETATM   39  H   UNK N   1      21.697  14.247   1.608  0.00  0.00     0.150 HD
ENDBRANCH  32  37
ENDBRANCH  31  32
ENDBRANCH  30  31
ENDBRANCH  28  30
BRANCH  28  40
HETATM   40  O   UNK N   1      21.818  15.307   6.240  0.00  0.00    -0.350 OA
HETATM   41  H   UNK N   1      21.165  14.722   6.571  0.00  0.00     0.219 HD
ENDBRANCH  28  40
ENDBRANCH   1  27
TORSDOF 20
ENDMDL
