MODEL 1
REMARK VINA RESULT:      -7.5      0.000      0.000
REMARK WARNING: 32 MAX_TORS EXCEEDED!!!
REMARK  34 active torsions:
REMARK  status: ('A' for Active; 'I' for Inactive)
REMARK    1  A    between atoms: C_5  and  C_4 
REMARK    2  A    between atoms: C_15  and  C_4 
REMARK    3  A    between atoms: N_29  and  C_5 
REMARK    4  A    between atoms: C_7  and  C_6 
REMARK    5  A    between atoms: N_27  and  C_6 
REMARK    6  A    between atoms: S_59  and  C_7 
REMARK    7  A    between atoms: C_14  and  C_8 
REMARK    8  A    between atoms: O_51  and  C_8 
REMARK    9  A    between atoms: C_13  and  C_9 
REMARK   10  A    between atoms: S_59  and  C_9 
REMARK   11  A    between atoms: C_25  and  C_10 
REMARK   12  A    between atoms: O_52  and  C_10 
REMARK   13  A    between atoms: C_24  and  C_13 
REMARK   14  A    between atoms: N_27  and  C_15 
REMARK   15  A    between atoms: O_38  and  C_15 
REMARK   16  A    between atoms: C_17  and  O_39 
REMARK   17  A    between atoms: C_18  and  O_54 
REMARK   18  A    between atoms: C_22  and  C_19 
REMARK   19  A    between atoms: C_25  and  C_19 
REMARK   20  A    between atoms: C_19  and  O_40 
REMARK   21  A    between atoms: N_26  and  C_20 
REMARK   22  A    between atoms: N_29  and  C_22 
REMARK   23  A    between atoms: O_41  and  C_22 
REMARK   24  A    between atoms: C_23  and  N_37 
REMARK   25  A    between atoms: O_43  and  C_24 
REMARK   26  A    between atoms: P_56  and  O_44 
REMARK   27  A    between atoms: P_56  and  O_45 
REMARK   28  A    between atoms: P_57  and  O_47 
REMARK   29  A    between atoms: P_58  and  O_49 
REMARK   30  A    between atoms: P_57  and  O_51 
REMARK   31  A    between atoms: P_58  and  O_52 
REMARK   32  A    between atoms: P_56  and  O_54 
REMARK   33  A    between atoms: P_57  and  O_55 
REMARK   34  A    between atoms: P_58  and  O_55 
ROOT
HETATM    1  O   UNK N   1      34.763  16.338   8.574  0.00  0.00    -0.195 OA
ENDROOT
BRANCH   1   2
HETATM    2  P   UNK N   1      34.410  15.911  10.270  0.00  0.00     0.401 P 
HETATM    3  O   UNK N   1      34.273  14.427   9.846  0.00  0.00    -0.631 OA
BRANCH   2   4
HETATM    4  O   UNK N   1      36.068  16.404  10.123  0.00  0.00    -0.307 OA
HETATM    5  H   UNK N   1      36.396  16.760   9.283  0.00  0.00     0.222 HD
ENDBRANCH   2   4
BRANCH   2   6
HETATM    6  O   UNK N   1      35.527  15.241  11.437  0.00  0.00    -0.294 OA
BRANCH   6   7
HETATM    7  C   UNK N   1      34.904  14.136  12.052  0.00  0.00     0.215 C 
BRANCH   7   8
HETATM    8  C   UNK N   1      35.771  13.498  13.134  0.00  0.00     0.180 C 
HETATM    9  C   UNK N   1      36.612  12.310  12.635  0.00  0.00     0.197 C 
HETATM   10  C   UNK N   1      36.898  11.693  13.964  0.00  0.00     0.199 C 
HETATM   11  C   UNK N   1      35.472  11.742  14.519  0.00  0.00     0.262 C 
HETATM   12  O   UNK N   1      34.985  13.038  14.225  0.00  0.00    -0.353 OA
BRANCH   9  13
HETATM   13  O   UNK N   1      37.783  12.682  11.936  0.00  0.00    -0.286 OA
BRANCH  13  14
HETATM   14  P   UNK N   1      37.688  12.116  10.273  0.00  0.00     0.391 P 
HETATM   15  O   UNK N   1      37.122  10.674  10.328  0.00  0.00    -0.632 OA
BRANCH  14  16
HETATM   16  O   UNK N   1      36.565  13.013   9.295  0.00  0.00    -0.307 OA
HETATM   17  H   UNK N   1      36.262  13.762   8.759  0.00  0.00     0.222 HD
ENDBRANCH  14  16
BRANCH  14  18
HETATM   18  O   UNK N   1      39.248  11.994   9.521  0.00  0.00    -0.307 OA
HETATM   19  H   UNK N   1      39.707  11.346   8.963  0.00  0.00     0.222 HD
ENDBRANCH  14  18
ENDBRANCH  13  14
ENDBRANCH   9  13
BRANCH  10  20
HETATM   20  O   UNK N   1      37.396  10.392  13.851  0.00  0.00    -0.388 OA
HETATM   21  H   UNK N   1      38.076   9.703  13.923  0.00  0.00     0.210 HD
ENDBRANCH  10  20
BRANCH  11  22
HETATM   22  N   UNK N   1      35.338  11.428  15.944  0.00  0.00    -0.297 N 
HETATM   23  C   UNK N   1      35.271  10.167  16.444  0.00  0.00     0.188 A 
HETATM   24  N   UNK N   1      35.209  10.169  17.804  0.00  0.00    -0.346 N 
HETATM   25  C   UNK N   1      35.239  11.471  18.134  0.00  0.00     0.122 A 
ATOM     26  HN  UNK N   1      35.152   9.365  18.429  1.00  0.00     0.167 HD
HETATM   27  C   UNK N   1      35.223  12.069  19.384  0.00  0.00     0.131 A 
HETATM   28  C   UNK N   1      35.310  12.228  17.023  0.00  0.00     0.142 A 
HETATM   29  N   UNK N   1      35.272  13.432  19.442  0.00  0.00    -0.337 N 
HETATM   30  C   UNK N   1      35.337  14.187  18.296  0.00  0.00     0.183 A 
ATOM     31  HN  UNK N   1      35.260  13.897  20.350  1.00  0.00     0.168 HD
HETATM   32  N   UNK N   1      35.363  13.581  17.070  0.00  0.00    -0.336 N 
ATOM     33  HN  UNK N   1      35.420  14.132  16.214  1.00  0.00     0.168 HD
BRANCH  27  34
HETATM   34  N   UNK N   1      35.172  11.299  20.563  0.00  0.00    -0.383 N 
HETATM   35  H   UNK N   1      35.883  10.646  20.760  0.00  0.00     0.157 HD
HETATM   36  H   UNK N   1      34.423  11.413  21.192  0.00  0.00     0.157 HD
ENDBRANCH  27  34
ENDBRANCH  11  22
ENDBRANCH   7   8
ENDBRANCH   6   7
ENDBRANCH   2   6
ENDBRANCH   1   2
BRANCH   1  37
HETATM   37  P   UNK N   1      34.250  17.952   8.051  0.00  0.00     0.401 P 
HETATM   38  O   UNK N   1      34.334  17.938   6.498  0.00  0.00    -0.631 OA
BRANCH  37  39
HETATM   39  O   UNK N   1      35.373  19.189   8.532  0.00  0.00    -0.307 OA
HETATM   40  H   UNK N   1      36.307  19.080   8.771  0.00  0.00     0.222 HD
ENDBRANCH  37  39
BRANCH  37  41
HETATM   41  O   UNK N   1      32.611  18.354   8.527  0.00  0.00    -0.296 OA
BRANCH  41  42
HETATM   42  C   UNK N   1      31.797  17.688   7.610  0.00  0.00     0.192 C 
BRANCH  42  43
HETATM   43  C   UNK N   1      30.386  17.349   8.114  0.00  0.00     0.008 C 
HETATM   44  C   UNK N   1      30.404  16.333   9.246  0.00  0.00     0.020 C 
HETATM   45  C   UNK N   1      29.674  16.696   6.938  0.00  0.00     0.020 C 
BRANCH  43  46
HETATM   46  C   UNK N   1      29.623  18.615   8.578  0.00  0.00     0.202 C 
BRANCH  46  47
HETATM   47  C   UNK N   1      28.133  18.437   8.529  0.00  0.00     0.141 C 
BRANCH  47  48
HETATM   48  N   UNK N   1      27.455  18.907   7.534  0.00  0.00    -0.372 N 
ATOM     49  HN  UNK N   1      26.679  18.344   7.182  1.00  0.00     0.161 HD
BRANCH  48  50
HETATM   50  C   UNK N   1      27.715  20.171   6.884  0.00  0.00     0.129 C 
BRANCH  50  51
HETATM   51  C   UNK N   1      26.763  20.434   5.712  0.00  0.00     0.103 C 
BRANCH  51  52
HETATM   52  C   UNK N   1      26.198  19.215   4.995  0.00  0.00     0.112 C 
BRANCH  52  53
HETATM   53  N   UNK N   1      25.002  19.155   4.495  0.00  0.00    -0.374 N 
ATOM     54  HN  UNK N   1      24.552  20.033   4.234  1.00  0.00     0.161 HD
BRANCH  53  55
HETATM   55  C   UNK N   1      24.261  17.930   4.281  0.00  0.00     0.131 C 
BRANCH  55  56
HETATM   56  C   UNK N   1      23.274  17.649   5.407  0.00  0.00     0.093 C 
BRANCH  56  57
HETATM   57  S   UNK N   1      21.592  18.289   5.089  0.00  0.00    -0.167 SA
BRANCH  57  58
HETATM   58  C   UNK N   1      21.840  18.107   3.285  0.00  0.00     0.088 C 
BRANCH  58  59
HETATM   59  C   UNK N   1      21.200  19.210   2.456  0.00  0.00     0.089 C 
HETATM   60  C   UNK N   1      19.739  19.338   2.856  0.00  0.00     0.022 C 
BRANCH  59  61
HETATM   61  C   UNK N   1      21.948  20.518   2.573  0.00  0.00     0.144 C 
HETATM   62  O   UNK N   1      23.169  20.542   2.553  0.00  0.00    -0.650 OA
BRANCH  61  63
HETATM   63  O   UNK N   1      21.264  21.673   2.694  0.00  0.00    -0.776 OA
HETATM   64  H   UNK N   1      20.652  22.097   3.263  0.00  0.00     0.167 HD
ENDBRANCH  61  63
ENDBRANCH  59  61
ENDBRANCH  58  59
ENDBRANCH  57  58
ENDBRANCH  56  57
ENDBRANCH  55  56
ENDBRANCH  53  55
ENDBRANCH  52  53
BRANCH  52  65
HETATM   65  O   UNK N   1      26.986  18.129   4.902  0.00  0.00    -0.350 OA
HETATM   66  H   UNK N   1      27.666  18.054   4.261  0.00  0.00     0.219 HD
ENDBRANCH  52  65
ENDBRANCH  51  52
ENDBRANCH  50  51
ENDBRANCH  48  50
ENDBRANCH  47  48
BRANCH  47  67
HETATM   67  O   UNK N   1      27.529  17.820   9.563  0.00  0.00    -0.348 OA
HETATM   68  H   UNK N   1      27.426  16.939   9.864  0.00  0.00     0.219 HD
ENDBRANCH  47  67
ENDBRANCH  46  47
BRANCH  46  69
HETATM   69  O   UNK N   1      30.003  18.960   9.879  0.00  0.00    -0.387 OA
HETATM   70  H   UNK N   1      30.270  19.869  10.082  0.00  0.00     0.210 HD
ENDBRANCH  46  69
ENDBRANCH  43  46
ENDBRANCH  42  43
ENDBRANCH  41  42
ENDBRANCH  37  41
ENDBRANCH   1  37
TORSDOF 34
ENDMDL
MODEL 2
REMARK VINA RESULT:      -7.2      4.927     14.947
REMARK WARNING: 32 MAX_TORS EXCEEDED!!!
REMARK  34 active torsions:
REMARK  status: ('A' for Active; 'I' for Inactive)
REMARK    1  A    between atoms: C_5  and  C_4 
REMARK    2  A    between atoms: C_15  and  C_4 
REMARK    3  A    between atoms: N_29  and  C_5 
REMARK    4  A    between atoms: C_7  and  C_6 
REMARK    5  A    between atoms: N_27  and  C_6 
REMARK    6  A    between atoms: S_59  and  C_7 
REMARK    7  A    between atoms: C_14  and  C_8 
REMARK    8  A    between atoms: O_51  and  C_8 
REMARK    9  A    between atoms: C_13  and  C_9 
REMARK   10  A    between atoms: S_59  and  C_9 
REMARK   11  A    between atoms: C_25  and  C_10 
REMARK   12  A    between atoms: O_52  and  C_10 
REMARK   13  A    between atoms: C_24  and  C_13 
REMARK   14  A    between atoms: N_27  and  C_15 
REMARK   15  A    between atoms: O_38  and  C_15 
REMARK   16  A    between atoms: C_17  and  O_39 
REMARK   17  A    between atoms: C_18  and  O_54 
REMARK   18  A    between atoms: C_22  and  C_19 
REMARK   19  A    between atoms: C_25  and  C_19 
REMARK   20  A    between atoms: C_19  and  O_40 
REMARK   21  A    between atoms: N_26  and  C_20 
REMARK   22  A    between atoms: N_29  and  C_22 
REMARK   23  A    between atoms: O_41  and  C_22 
REMARK   24  A    between atoms: C_23  and  N_37 
REMARK   25  A    between atoms: O_43  and  C_24 
REMARK   26  A    between atoms: P_56  and  O_44 
REMARK   27  A    between atoms: P_56  and  O_45 
REMARK   28  A    between atoms: P_57  and  O_47 
REMARK   29  A    between atoms: P_58  and  O_49 
REMARK   30  A    between atoms: P_57  and  O_51 
REMARK   31  A    between atoms: P_58  and  O_52 
REMARK   32  A    between atoms: P_56  and  O_54 
REMARK   33  A    between atoms: P_57  and  O_55 
REMARK   34  A    between atoms: P_58  and  O_55 
ROOT
HETATM    1  O   UNK N   1      28.093  19.057   4.878  0.00  0.00    -0.195 OA
ENDROOT
BRANCH   1   2
HETATM    2  P   UNK N   1      26.536  19.867   4.565  0.00  0.00     0.401 P 
HETATM    3  O   UNK N   1      26.276  18.876   3.403  0.00  0.00    -0.631 OA
BRANCH   2   4
HETATM    4  O   UNK N   1      26.461  19.019   6.078  0.00  0.00    -0.307 OA
HETATM    5  H   UNK N   1      25.813  18.309   6.204  0.00  0.00     0.222 HD
ENDBRANCH   2   4
BRANCH   2   6
HETATM    6  O   UNK N   1      24.952  19.331   5.079  0.00  0.00    -0.294 OA
BRANCH   6   7
HETATM    7  C   UNK N   1      24.222  18.964   3.930  0.00  0.00     0.215 C 
BRANCH   7   8
HETATM    8  C   UNK N   1      23.370  17.716   4.147  0.00  0.00     0.180 C 
HETATM    9  C   UNK N   1      21.857  17.974   4.053  0.00  0.00     0.197 C 
HETATM   10  C   UNK N   1      21.398  16.745   4.765  0.00  0.00     0.199 C 
HETATM   11  C   UNK N   1      22.353  16.834   5.957  0.00  0.00     0.262 C 
HETATM   12  O   UNK N   1      23.628  17.127   5.414  0.00  0.00    -0.353 OA
BRANCH   9  13
HETATM   13  O   UNK N   1      21.365  18.063   2.732  0.00  0.00    -0.286 OA
BRANCH  13  14
HETATM   14  P   UNK N   1      20.219  19.392   2.612  0.00  0.00     0.391 P 
HETATM   15  O   UNK N   1      18.806  18.775   2.776  0.00  0.00    -0.632 OA
BRANCH  14  16
HETATM   16  O   UNK N   1      20.363  20.555   3.897  0.00  0.00    -0.307 OA
HETATM   17  H   UNK N   1      20.744  20.941   4.701  0.00  0.00     0.222 HD
ENDBRANCH  14  16
BRANCH  14  18
HETATM   18  O   UNK N   1      20.237  20.149   1.050  0.00  0.00    -0.307 OA
HETATM   19  H   UNK N   1      19.982  21.012   0.688  0.00  0.00     0.222 HD
ENDBRANCH  14  18
ENDBRANCH  13  14
ENDBRANCH   9  13
BRANCH  10  20
HETATM   20  O   UNK N   1      20.052  16.813   5.135  0.00  0.00    -0.388 OA
HETATM   21  H   UNK N   1      19.213  17.266   5.315  0.00  0.00     0.210 HD
ENDBRANCH  10  20
BRANCH  11  22
HETATM   22  N   UNK N   1      22.397  15.652   6.822  0.00  0.00    -0.297 N 
HETATM   23  C   UNK N   1      23.399  14.736   6.811  0.00  0.00     0.188 A 
HETATM   24  N   UNK N   1      23.211  13.775   7.758  0.00  0.00    -0.346 N 
HETATM   25  C   UNK N   1      22.060  14.123   8.358  0.00  0.00     0.122 A 
ATOM     26  HN  UNK N   1      23.807  12.974   7.965  1.00  0.00     0.167 HD
HETATM   27  C   UNK N   1      21.391  13.520   9.410  0.00  0.00     0.131 A 
HETATM   28  C   UNK N   1      21.566  15.243   7.796  0.00  0.00     0.142 A 
HETATM   29  N   UNK N   1      20.227  14.090   9.842  0.00  0.00    -0.337 N 
HETATM   30  C   UNK N   1      19.737  15.229   9.250  0.00  0.00     0.183 A 
ATOM     31  HN  UNK N   1      19.715  13.664  10.613  1.00  0.00     0.168 HD
HETATM   32  N   UNK N   1      20.415  15.819   8.218  0.00  0.00    -0.336 N 
ATOM     33  HN  UNK N   1      20.063  16.669   7.779  1.00  0.00     0.168 HD
BRANCH  27  34
HETATM   34  N   UNK N   1      21.898  12.360  10.030  0.00  0.00    -0.383 N 
HETATM   35  H   UNK N   1      21.326  11.565  10.139  0.00  0.00     0.157 HD
HETATM   36  H   UNK N   1      22.827  12.343  10.355  0.00  0.00     0.157 HD
ENDBRANCH  27  34
ENDBRANCH  11  22
ENDBRANCH   7   8
ENDBRANCH   6   7
ENDBRANCH   2   6
ENDBRANCH   1   2
BRANCH   1  37
HETATM   37  P   UNK N   1      28.009  17.343   5.324  0.00  0.00     0.401 P 
HETATM   38  O   UNK N   1      29.082  16.628   4.454  0.00  0.00    -0.631 OA
BRANCH  37  39
HETATM   39  O   UNK N   1      26.507  16.611   4.845  0.00  0.00    -0.307 OA
HETATM   40  H   UNK N   1      25.622  17.008   4.863  0.00  0.00     0.222 HD
ENDBRANCH  37  39
BRANCH  37  41
HETATM   41  O   UNK N   1      28.357  17.044   7.016  0.00  0.00    -0.296 OA
BRANCH  41  42
HETATM   42  C   UNK N   1      29.488  17.814   7.292  0.00  0.00     0.192 C 
BRANCH  42  43
HETATM   43  C   UNK N   1      30.091  17.610   8.690  0.00  0.00     0.008 C 
HETATM   44  C   UNK N   1      29.043  17.227   9.723  0.00  0.00     0.020 C 
HETATM   45  C   UNK N   1      30.648  18.966   9.099  0.00  0.00     0.020 C 
BRANCH  43  46
HETATM   46  C   UNK N   1      31.212  16.541   8.681  0.00  0.00     0.202 C 
BRANCH  46  47
HETATM   47  C   UNK N   1      32.566  17.131   8.409  0.00  0.00     0.141 C 
BRANCH  47  48
HETATM   48  N   UNK N   1      33.403  17.310   9.378  0.00  0.00    -0.372 N 
ATOM     49  HN  UNK N   1      33.077  17.827  10.195  1.00  0.00     0.161 HD
BRANCH  48  50
HETATM   50  C   UNK N   1      34.767  16.833   9.386  0.00  0.00     0.129 C 
BRANCH  50  51
HETATM   51  C   UNK N   1      35.315  16.653  10.805  0.00  0.00     0.103 C 
BRANCH  51  52
HETATM   52  C   UNK N   1      35.015  15.331  11.499  0.00  0.00     0.112 C 
BRANCH  52  53
HETATM   53  N   UNK N   1      35.888  14.650  12.176  0.00  0.00    -0.374 N 
ATOM     54  HN  UNK N   1      36.458  15.154  12.857  1.00  0.00     0.161 HD
BRANCH  53  55
HETATM   55  C   UNK N   1      36.111  13.227  12.034  0.00  0.00     0.131 C 
BRANCH  55  56
HETATM   56  C   UNK N   1      36.279  12.533  13.381  0.00  0.00     0.093 C 
BRANCH  56  57
HETATM   57  S   UNK N   1      34.836  12.712  14.486  0.00  0.00    -0.167 SA
BRANCH  57  58
HETATM   58  C   UNK N   1      35.936  12.797  15.947  0.00  0.00     0.088 C 
BRANCH  58  59
HETATM   59  C   UNK N   1      35.390  13.641  17.088  0.00  0.00     0.089 C 
HETATM   60  C   UNK N   1      35.252  12.765  18.322  0.00  0.00     0.022 C 
BRANCH  59  61
HETATM   61  C   UNK N   1      36.233  14.869  17.342  0.00  0.00     0.144 C 
HETATM   62  O   UNK N   1      37.116  15.192  16.562  0.00  0.00    -0.650 OA
BRANCH  61  63
HETATM   63  O   UNK N   1      36.009  15.621  18.437  0.00  0.00    -0.776 OA
HETATM   64  H   UNK N   1      35.440  15.669  19.180  0.00  0.00     0.167 HD
ENDBRANCH  61  63
ENDBRANCH  59  61
ENDBRANCH  58  59
ENDBRANCH  57  58
ENDBRANCH  56  57
ENDBRANCH  55  56
ENDBRANCH  53  55
ENDBRANCH  52  53
BRANCH  52  65
HETATM   65  O   UNK N   1      33.772  14.833  11.375  0.00  0.00    -0.350 OA
HETATM   66  H   UNK N   1      33.244  14.608  12.116  0.00  0.00     0.219 HD
ENDBRANCH  52  65
ENDBRANCH  51  52
ENDBRANCH  50  51
ENDBRANCH  48  50
ENDBRANCH  47  48
BRANCH  47  67
HETATM   67  O   UNK N   1      32.858  17.503   7.148  0.00  0.00    -0.348 OA
HETATM   68  H   UNK N   1      32.445  18.002   6.473  0.00  0.00     0.219 HD
ENDBRANCH  47  67
ENDBRANCH  46  47
BRANCH  46  69
HETATM   69  O   UNK N   1      31.243  15.863   9.905  0.00  0.00    -0.387 OA
HETATM   70  H   UNK N   1      31.056  14.912   9.937  0.00  0.00     0.210 HD
ENDBRANCH  46  69
ENDBRANCH  43  46
ENDBRANCH  42  43
ENDBRANCH  41  42
ENDBRANCH  37  41
ENDBRANCH   1  37
TORSDOF 34
ENDMDL
MODEL 3
REMARK VINA RESULT:      -7.2      4.995     12.630
REMARK WARNING: 32 MAX_TORS EXCEEDED!!!
REMARK  34 active torsions:
REMARK  status: ('A' for Active; 'I' for Inactive)
REMARK    1  A    between atoms: C_5  and  C_4 
REMARK    2  A    between atoms: C_15  and  C_4 
REMARK    3  A    between atoms: N_29  and  C_5 
REMARK    4  A    between atoms: C_7  and  C_6 
REMARK    5  A    between atoms: N_27  and  C_6 
REMARK    6  A    between atoms: S_59  and  C_7 
REMARK    7  A    between atoms: C_14  and  C_8 
REMARK    8  A    between atoms: O_51  and  C_8 
REMARK    9  A    between atoms: C_13  and  C_9 
REMARK   10  A    between atoms: S_59  and  C_9 
REMARK   11  A    between atoms: C_25  and  C_10 
REMARK   12  A    between atoms: O_52  and  C_10 
REMARK   13  A    between atoms: C_24  and  C_13 
REMARK   14  A    between atoms: N_27  and  C_15 
REMARK   15  A    between atoms: O_38  and  C_15 
REMARK   16  A    between atoms: C_17  and  O_39 
REMARK   17  A    between atoms: C_18  and  O_54 
REMARK   18  A    between atoms: C_22  and  C_19 
REMARK   19  A    between atoms: C_25  and  C_19 
REMARK   20  A    between atoms: C_19  and  O_40 
REMARK   21  A    between atoms: N_26  and  C_20 
REMARK   22  A    between atoms: N_29  and  C_22 
REMARK   23  A    between atoms: O_41  and  C_22 
REMARK   24  A    between atoms: C_23  and  N_37 
REMARK   25  A    between atoms: O_43  and  C_24 
REMARK   26  A    between atoms: P_56  and  O_44 
REMARK   27  A    between atoms: P_56  and  O_45 
REMARK   28  A    between atoms: P_57  and  O_47 
REMARK   29  A    between atoms: P_58  and  O_49 
REMARK   30  A    between atoms: P_57  and  O_51 
REMARK   31  A    between atoms: P_58  and  O_52 
REMARK   32  A    between atoms: P_56  and  O_54 
REMARK   33  A    between atoms: P_57  and  O_55 
REMARK   34  A    between atoms: P_58  and  O_55 
ROOT
HETATM    1  O   UNK N   1      33.707  11.248   7.382  0.00  0.00    -0.195 OA
ENDROOT
BRANCH   1   2
HETATM    2  P   UNK N   1      33.741  12.654   6.285  0.00  0.00     0.401 P 
HETATM    3  O   UNK N   1      32.274  12.967   6.673  0.00  0.00    -0.631 OA
BRANCH   2   4
HETATM    4  O   UNK N   1      34.776  12.949   7.648  0.00  0.00    -0.307 OA
HETATM    5  H   UNK N   1      35.650  12.531   7.693  0.00  0.00     0.222 HD
ENDBRANCH   2   4
BRANCH   2   6
HETATM    6  O   UNK N   1      33.981  14.328   6.732  0.00  0.00    -0.294 OA
BRANCH   6   7
HETATM    7  C   UNK N   1      33.430  15.134   5.714  0.00  0.00     0.215 C 
BRANCH   7   8
HETATM    8  C   UNK N   1      32.689  16.350   6.263  0.00  0.00     0.180 C 
HETATM    9  C   UNK N   1      32.866  16.554   7.777  0.00  0.00     0.197 C 
HETATM   10  C   UNK N   1      31.691  17.447   7.999  0.00  0.00     0.199 C 
HETATM   11  C   UNK N   1      30.663  16.626   7.217  0.00  0.00     0.262 C 
HETATM   12  O   UNK N   1      31.294  16.269   6.001  0.00  0.00    -0.353 OA
BRANCH   9  13
HETATM   13  O   UNK N   1      34.092  17.156   8.141  0.00  0.00    -0.286 OA
BRANCH  13  14
HETATM   14  P   UNK N   1      34.788  16.304   9.514  0.00  0.00     0.391 P 
HETATM   15  O   UNK N   1      35.602  17.351  10.317  0.00  0.00    -0.632 OA
BRANCH  14  16
HETATM   16  O   UNK N   1      33.601  15.692  10.628  0.00  0.00    -0.307 OA
HETATM   17  H   UNK N   1      33.211  15.523  11.499  0.00  0.00     0.222 HD
ENDBRANCH  14  16
BRANCH  14  18
HETATM   18  O   UNK N   1      35.919  15.077   9.034  0.00  0.00    -0.307 OA
HETATM   19  H   UNK N   1      36.821  15.058   8.679  0.00  0.00     0.222 HD
ENDBRANCH  14  18
ENDBRANCH  13  14
ENDBRANCH   9  13
BRANCH  10  20
HETATM   20  O   UNK N   1      31.370  17.580   9.353  0.00  0.00    -0.388 OA
HETATM   21  H   UNK N   1      30.789  17.789  10.101  0.00  0.00     0.210 HD
ENDBRANCH  10  20
BRANCH  11  22
HETATM   22  N   UNK N   1      29.375  17.283   6.982  0.00  0.00    -0.297 N 
HETATM   23  C   UNK N   1      28.724  18.037   7.905  0.00  0.00     0.188 A 
HETATM   24  N   UNK N   1      27.580  18.575   7.398  0.00  0.00    -0.346 N 
HETATM   25  C   UNK N   1      27.541  18.131   6.130  0.00  0.00     0.122 A 
ATOM     26  HN  UNK N   1      26.907  19.177   7.872  1.00  0.00     0.167 HD
HETATM   27  C   UNK N   1      26.611  18.378   5.133  0.00  0.00     0.131 A 
HETATM   28  C   UNK N   1      28.611  17.353   5.879  0.00  0.00     0.142 A 
HETATM   29  N   UNK N   1      26.814  17.804   3.911  0.00  0.00    -0.337 N 
HETATM   30  C   UNK N   1      27.909  17.007   3.678  0.00  0.00     0.183 A 
ATOM     31  HN  UNK N   1      26.143  17.968   3.161  1.00  0.00     0.168 HD
HETATM   32  N   UNK N   1      28.824  16.781   4.670  0.00  0.00    -0.336 N 
ATOM     33  HN  UNK N   1      29.643  16.198   4.503  1.00  0.00     0.168 HD
BRANCH  27  34
HETATM   34  N   UNK N   1      25.495  19.207   5.363  0.00  0.00    -0.383 N 
HETATM   35  H   UNK N   1      25.096  19.263   6.262  0.00  0.00     0.157 HD
HETATM   36  H   UNK N   1      25.114  19.733   4.623  0.00  0.00     0.157 HD
ENDBRANCH  27  34
ENDBRANCH  11  22
ENDBRANCH   7   8
ENDBRANCH   6   7
ENDBRANCH   2   6
ENDBRANCH   1   2
BRANCH   1  37
HETATM   37  P   UNK N   1      33.313  11.587   9.077  0.00  0.00     0.401 P 
HETATM   38  O   UNK N   1      32.132  10.640   9.432  0.00  0.00    -0.631 OA
BRANCH  37  39
HETATM   39  O   UNK N   1      32.665  13.185   9.296  0.00  0.00    -0.307 OA
HETATM   40  H   UNK N   1      31.740  13.432   9.453  0.00  0.00     0.222 HD
ENDBRANCH  37  39
BRANCH  37  41
HETATM   41  O   UNK N   1      34.641  11.277  10.179  0.00  0.00    -0.296 OA
BRANCH  41  42
HETATM   42  C   UNK N   1      34.038  10.806  11.346  0.00  0.00     0.192 C 
BRANCH  42  43
HETATM   43  C   UNK N   1      34.814  11.087  12.641  0.00  0.00     0.008 C 
HETATM   44  C   UNK N   1      36.129  10.325  12.706  0.00  0.00     0.020 C 
HETATM   45  C   UNK N   1      33.937  10.563  13.769  0.00  0.00     0.020 C 
BRANCH  43  46
HETATM   46  C   UNK N   1      35.093  12.601  12.826  0.00  0.00     0.202 C 
BRANCH  46  47
HETATM   47  C   UNK N   1      36.504  12.971  12.476  0.00  0.00     0.141 C 
BRANCH  47  48
HETATM   48  N   UNK N   1      36.841  13.149  11.240  0.00  0.00    -0.372 N 
ATOM     49  HN  UNK N   1      36.127  13.498  10.600  1.00  0.00     0.161 HD
BRANCH  48  50
HETATM   50  C   UNK N   1      38.156  12.889  10.700  0.00  0.00     0.129 C 
BRANCH  50  51
HETATM   51  C   UNK N   1      38.209  11.593   9.885  0.00  0.00     0.103 C 
BRANCH  51  52
HETATM   52  C   UNK N   1      39.462  11.350   9.055  0.00  0.00     0.112 C 
BRANCH  52  53
HETATM   53  N   UNK N   1      40.095  12.277   8.404  0.00  0.00    -0.374 N 
ATOM     54  HN  UNK N   1      39.634  13.181   8.296  1.00  0.00     0.161 HD
BRANCH  53  55
HETATM   55  C   UNK N   1      41.410  12.120   7.818  0.00  0.00     0.131 C 
BRANCH  55  56
HETATM   56  C   UNK N   1      41.372  12.169   6.296  0.00  0.00     0.093 C 
BRANCH  56  57
HETATM   57  S   UNK N   1      40.869  13.792   5.624  0.00  0.00    -0.167 SA
BRANCH  57  58
HETATM   58  C   UNK N   1      39.572  12.996   4.608  0.00  0.00     0.088 C 
BRANCH  58  59
HETATM   59  C   UNK N   1      38.279  13.791   4.517  0.00  0.00     0.089 C 
HETATM   60  C   UNK N   1      37.446  13.240   3.371  0.00  0.00     0.022 C 
BRANCH  59  61
HETATM   61  C   UNK N   1      37.524  13.803   5.826  0.00  0.00     0.144 C 
HETATM   62  O   UNK N   1      37.566  12.842   6.580  0.00  0.00    -0.650 OA
BRANCH  61  63
HETATM   63  O   UNK N   1      36.801  14.886   6.173  0.00  0.00    -0.776 OA
HETATM   64  H   UNK N   1      36.209  15.180   6.838  0.00  0.00     0.167 HD
ENDBRANCH  61  63
ENDBRANCH  59  61
ENDBRANCH  58  59
ENDBRANCH  57  58
ENDBRANCH  56  57
ENDBRANCH  55  56
ENDBRANCH  53  55
ENDBRANCH  52  53
BRANCH  52  65
HETATM   65  O   UNK N   1      39.920  10.087   8.977  0.00  0.00    -0.350 OA
HETATM   66  H   UNK N   1      40.814   9.887   8.782  0.00  0.00     0.219 HD
ENDBRANCH  52  65
ENDBRANCH  51  52
ENDBRANCH  50  51
ENDBRANCH  48  50
ENDBRANCH  47  48
BRANCH  47  67
HETATM   67  O   UNK N   1      37.406  13.067  13.471  0.00  0.00    -0.348 OA
HETATM   68  H   UNK N   1      37.422  12.905  14.393  0.00  0.00     0.219 HD
ENDBRANCH  47  67
ENDBRANCH  46  47
BRANCH  46  69
HETATM   69  O   UNK N   1      34.210  13.353  12.044  0.00  0.00    -0.387 OA
HETATM   70  H   UNK N   1      33.379  12.961  11.738  0.00  0.00     0.210 HD
ENDBRANCH  46  69
ENDBRANCH  43  46
ENDBRANCH  42  43
ENDBRANCH  41  42
ENDBRANCH  37  41
ENDBRANCH   1  37
TORSDOF 34
ENDMDL
MODEL 4
REMARK VINA RESULT:      -7.1      7.414     10.182
REMARK WARNING: 32 MAX_TORS EXCEEDED!!!
REMARK  34 active torsions:
REMARK  status: ('A' for Active; 'I' for Inactive)
REMARK    1  A    between atoms: C_5  and  C_4 
REMARK    2  A    between atoms: C_15  and  C_4 
REMARK    3  A    between atoms: N_29  and  C_5 
REMARK    4  A    between atoms: C_7  and  C_6 
REMARK    5  A    between atoms: N_27  and  C_6 
REMARK    6  A    between atoms: S_59  and  C_7 
REMARK    7  A    between atoms: C_14  and  C_8 
REMARK    8  A    between atoms: O_51  and  C_8 
REMARK    9  A    between atoms: C_13  and  C_9 
REMARK   10  A    between atoms: S_59  and  C_9 
REMARK   11  A    between atoms: C_25  and  C_10 
REMARK   12  A    between atoms: O_52  and  C_10 
REMARK   13  A    between atoms: C_24  and  C_13 
REMARK   14  A    between atoms: N_27  and  C_15 
REMARK   15  A    between atoms: O_38  and  C_15 
REMARK   16  A    between atoms: C_17  and  O_39 
REMARK   17  A    between atoms: C_18  and  O_54 
REMARK   18  A    between atoms: C_22  and  C_19 
REMARK   19  A    between atoms: C_25  and  C_19 
REMARK   20  A    between atoms: C_19  and  O_40 
REMARK   21  A    between atoms: N_26  and  C_20 
REMARK   22  A    between atoms: N_29  and  C_22 
REMARK   23  A    between atoms: O_41  and  C_22 
REMARK   24  A    between atoms: C_23  and  N_37 
REMARK   25  A    between atoms: O_43  and  C_24 
REMARK   26  A    between atoms: P_56  and  O_44 
REMARK   27  A    between atoms: P_56  and  O_45 
REMARK   28  A    between atoms: P_57  and  O_47 
REMARK   29  A    between atoms: P_58  and  O_49 
REMARK   30  A    between atoms: P_57  and  O_51 
REMARK   31  A    between atoms: P_58  and  O_52 
REMARK   32  A    between atoms: P_56  and  O_54 
REMARK   33  A    between atoms: P_57  and  O_55 
REMARK   34  A    between atoms: P_58  and  O_55 
ROOT
HETATM    1  O   UNK N   1      25.070  19.443   5.273  0.00  0.00    -0.195 OA
ENDROOT
BRANCH   1   2
HETATM    2  P   UNK N   1      26.769  19.543   4.740  0.00  0.00     0.401 P 
HETATM    3  O   UNK N   1      26.966  20.771   5.665  0.00  0.00    -0.631 OA
BRANCH   2   4
HETATM    4  O   UNK N   1      26.542  18.119   5.707  0.00  0.00    -0.307 OA
HETATM    5  H   UNK N   1      27.240  17.829   6.314  0.00  0.00     0.222 HD
ENDBRANCH   2   4
BRANCH   2   6
HETATM    6  O   UNK N   1      28.175  18.953   5.597  0.00  0.00    -0.294 OA
BRANCH   6   7
HETATM    7  C   UNK N   1      29.026  18.329   4.662  0.00  0.00     0.215 C 
BRANCH   7   8
HETATM    8  C   UNK N   1      29.805  17.162   5.261  0.00  0.00     0.180 C 
HETATM    9  C   UNK N   1      29.903  17.203   6.795  0.00  0.00     0.197 C 
HETATM   10  C   UNK N   1      31.062  16.275   6.949  0.00  0.00     0.199 C 
HETATM   11  C   UNK N   1      31.960  16.894   5.876  0.00  0.00     0.262 C 
HETATM   12  O   UNK N   1      31.130  17.105   4.748  0.00  0.00    -0.353 OA
BRANCH   9  13
HETATM   13  O   UNK N   1      28.742  16.752   7.462  0.00  0.00    -0.286 OA
BRANCH  13  14
HETATM   14  P   UNK N   1      28.429  17.765   8.865  0.00  0.00     0.391 P 
HETATM   15  O   UNK N   1      27.566  16.921   9.838  0.00  0.00    -0.632 OA
BRANCH  14  16
HETATM   16  O   UNK N   1      29.862  18.175   9.762  0.00  0.00    -0.307 OA
HETATM   17  H   UNK N   1      30.588  18.023  10.385  0.00  0.00     0.222 HD
ENDBRANCH  14  16
BRANCH  14  18
HETATM   18  O   UNK N   1      27.485  19.169   8.476  0.00  0.00    -0.307 OA
HETATM   19  H   UNK N   1      27.523  20.116   8.682  0.00  0.00     0.222 HD
ENDBRANCH  14  18
ENDBRANCH  13  14
ENDBRANCH   9  13
BRANCH  10  20
HETATM   20  O   UNK N   1      31.622  16.328   8.229  0.00  0.00    -0.388 OA
HETATM   21  H   UNK N   1      32.254  16.632   8.898  0.00  0.00     0.210 HD
ENDBRANCH  10  20
BRANCH  11  22
HETATM   22  N   UNK N   1      33.154  16.120   5.527  0.00  0.00    -0.297 N 
HETATM   23  C   UNK N   1      34.311  16.143   6.238  0.00  0.00     0.188 A 
HETATM   24  N   UNK N   1      35.234  15.283   5.722  0.00  0.00    -0.346 N 
HETATM   25  C   UNK N   1      34.613  14.727   4.668  0.00  0.00     0.122 A 
ATOM     26  HN  UNK N   1      36.179  15.104   6.058  1.00  0.00     0.167 HD
HETATM   27  C   UNK N   1      35.065  13.764   3.780  0.00  0.00     0.131 A 
HETATM   28  C   UNK N   1      33.370  15.230   4.544  0.00  0.00     0.142 A 
HETATM   29  N   UNK N   1      34.219  13.359   2.788  0.00  0.00    -0.337 N 
HETATM   30  C   UNK N   1      32.957  13.891   2.675  0.00  0.00     0.183 A 
ATOM     31  HN  UNK N   1      34.528  12.653   2.120  1.00  0.00     0.168 HD
HETATM   32  N   UNK N   1      32.521  14.833   3.566  0.00  0.00    -0.336 N 
ATOM     33  HN  UNK N   1      31.583  15.227   3.495  1.00  0.00     0.168 HD
BRANCH  27  34
HETATM   34  N   UNK N   1      36.353  13.205   3.901  0.00  0.00    -0.383 N 
HETATM   35  H   UNK N   1      36.754  13.070   4.791  0.00  0.00     0.157 HD
HETATM   36  H   UNK N   1      36.854  12.949   3.094  0.00  0.00     0.157 HD
ENDBRANCH  27  34
ENDBRANCH  11  22
ENDBRANCH   7   8
ENDBRANCH   6   7
ENDBRANCH   2   6
ENDBRANCH   1   2
BRANCH   1  37
HETATM   37  P   UNK N   1      24.149  18.043   4.694  0.00  0.00     0.401 P 
HETATM   38  O   UNK N   1      22.851  18.624   4.065  0.00  0.00    -0.631 OA
BRANCH  37  39
HETATM   39  O   UNK N   1      23.585  17.041   5.998  0.00  0.00    -0.307 OA
HETATM   40  H   UNK N   1      22.672  16.929   6.306  0.00  0.00     0.222 HD
ENDBRANCH  37  39
BRANCH  37  41
HETATM   41  O   UNK N   1      24.996  17.102   3.482  0.00  0.00    -0.296 OA
BRANCH  41  42
HETATM   42  C   UNK N   1      24.974  15.792   3.963  0.00  0.00     0.192 C 
BRANCH  42  43
HETATM   43  C   UNK N   1      26.257  14.985   3.719  0.00  0.00     0.008 C 
HETATM   44  C   UNK N   1      27.141  15.610   2.651  0.00  0.00     0.020 C 
HETATM   45  C   UNK N   1      25.800  13.634   3.187  0.00  0.00     0.020 C 
BRANCH  43  46
HETATM   46  C   UNK N   1      27.079  14.806   5.020  0.00  0.00     0.202 C 
BRANCH  46  47
HETATM   47  C   UNK N   1      26.211  14.531   6.214  0.00  0.00     0.141 C 
BRANCH  47  48
HETATM   48  N   UNK N   1      25.790  13.330   6.447  0.00  0.00    -0.372 N 
ATOM     49  HN  UNK N   1      26.470  12.572   6.394  1.00  0.00     0.161 HD
BRANCH  48  50
HETATM   50  C   UNK N   1      24.426  12.987   6.777  0.00  0.00     0.129 C 
BRANCH  50  51
HETATM   51  C   UNK N   1      24.316  12.250   8.116  0.00  0.00     0.103 C 
BRANCH  51  52
HETATM   52  C   UNK N   1      24.398  13.097   9.379  0.00  0.00     0.112 C 
BRANCH  52  53
HETATM   53  N   UNK N   1      23.436  13.214  10.241  0.00  0.00    -0.374 N 
ATOM     54  HN  UNK N   1      23.511  13.954  10.940  1.00  0.00     0.161 HD
BRANCH  53  55
HETATM   55  C   UNK N   1      22.261  12.369  10.282  0.00  0.00     0.131 C 
BRANCH  55  56
HETATM   56  C   UNK N   1      21.001  13.113   9.859  0.00  0.00     0.093 C 
BRANCH  56  57
HETATM   57  S   UNK N   1      21.225  14.157   8.376  0.00  0.00    -0.167 SA
BRANCH  57  58
HETATM   58  C   UNK N   1      20.285  15.516   9.163  0.00  0.00     0.088 C 
BRANCH  58  59
HETATM   59  C   UNK N   1      20.064  16.721   8.262  0.00  0.00     0.089 C 
HETATM   60  C   UNK N   1      19.419  16.253   6.968  0.00  0.00     0.022 C 
BRANCH  59  61
HETATM   61  C   UNK N   1      19.265  17.805   8.947  0.00  0.00     0.144 C 
HETATM   62  O   UNK N   1      18.091  17.627   9.237  0.00  0.00    -0.650 OA
BRANCH  61  63
HETATM   63  O   UNK N   1      19.849  18.982   9.247  0.00  0.00    -0.776 OA
HETATM   64  H   UNK N   1      20.008  19.547   9.978  0.00  0.00     0.167 HD
ENDBRANCH  61  63
ENDBRANCH  59  61
ENDBRANCH  58  59
ENDBRANCH  57  58
ENDBRANCH  56  57
ENDBRANCH  55  56
ENDBRANCH  53  55
ENDBRANCH  52  53
BRANCH  52  65
HETATM   65  O   UNK N   1      25.535  13.784   9.593  0.00  0.00    -0.350 OA
HETATM   66  H   UNK N   1      25.540  14.701   9.785  0.00  0.00     0.219 HD
ENDBRANCH  52  65
ENDBRANCH  51  52
ENDBRANCH  50  51
ENDBRANCH  48  50
ENDBRANCH  47  48
BRANCH  47  67
HETATM   67  O   UNK N   1      25.854  15.566   6.997  0.00  0.00    -0.348 OA
HETATM   68  H   UNK N   1      26.194  16.414   7.201  0.00  0.00     0.219 HD
ENDBRANCH  47  67
ENDBRANCH  46  47
BRANCH  46  69
HETATM   69  O   UNK N   1      28.001  13.765   4.871  0.00  0.00    -0.387 OA
HETATM   70  H   UNK N   1      27.694  12.874   4.644  0.00  0.00     0.210 HD
ENDBRANCH  46  69
ENDBRANCH  43  46
ENDBRANCH  42  43
ENDBRANCH  41  42
ENDBRANCH  37  41
ENDBRANCH   1  37
TORSDOF 34
ENDMDL
MODEL 5
REMARK VINA RESULT:      -7.0     10.016     14.777
REMARK WARNING: 32 MAX_TORS EXCEEDED!!!
REMARK  34 active torsions:
REMARK  status: ('A' for Active; 'I' for Inactive)
REMARK    1  A    between atoms: C_5  and  C_4 
REMARK    2  A    between atoms: C_15  and  C_4 
REMARK    3  A    between atoms: N_29  and  C_5 
REMARK    4  A    between atoms: C_7  and  C_6 
REMARK    5  A    between atoms: N_27  and  C_6 
REMARK    6  A    between atoms: S_59  and  C_7 
REMARK    7  A    between atoms: C_14  and  C_8 
REMARK    8  A    between atoms: O_51  and  C_8 
REMARK    9  A    between atoms: C_13  and  C_9 
REMARK   10  A    between atoms: S_59  and  C_9 
REMARK   11  A    between atoms: C_25  and  C_10 
REMARK   12  A    between atoms: O_52  and  C_10 
REMARK   13  A    between atoms: C_24  and  C_13 
REMARK   14  A    between atoms: N_27  and  C_15 
REMARK   15  A    between atoms: O_38  and  C_15 
REMARK   16  A    between atoms: C_17  and  O_39 
REMARK   17  A    between atoms: C_18  and  O_54 
REMARK   18  A    between atoms: C_22  and  C_19 
REMARK   19  A    between atoms: C_25  and  C_19 
REMARK   20  A    between atoms: C_19  and  O_40 
REMARK   21  A    between atoms: N_26  and  C_20 
REMARK   22  A    between atoms: N_29  and  C_22 
REMARK   23  A    between atoms: O_41  and  C_22 
REMARK   24  A    between atoms: C_23  and  N_37 
REMARK   25  A    between atoms: O_43  and  C_24 
REMARK   26  A    between atoms: P_56  and  O_44 
REMARK   27  A    between atoms: P_56  and  O_45 
REMARK   28  A    between atoms: P_57  and  O_47 
REMARK   29  A    between atoms: P_58  and  O_49 
REMARK   30  A    between atoms: P_57  and  O_51 
REMARK   31  A    between atoms: P_58  and  O_52 
REMARK   32  A    between atoms: P_56  and  O_54 
REMARK   33  A    between atoms: P_57  and  O_55 
REMARK   34  A    between atoms: P_58  and  O_55 
ROOT
HETATM    1  O   UNK N   1      19.920  15.000   1.286  0.00  0.00    -0.195 OA
ENDROOT
BRANCH   1   2
HETATM    2  P   UNK N   1      20.243  16.138   2.620  0.00  0.00     0.401 P 
HETATM    3  O   UNK N   1      21.417  15.235   3.079  0.00  0.00    -0.631 OA
BRANCH   2   4
HETATM    4  O   UNK N   1      20.644  16.884   1.105  0.00  0.00    -0.307 OA
HETATM    5  H   UNK N   1      21.377  17.516   1.054  0.00  0.00     0.222 HD
ENDBRANCH   2   4
BRANCH   2   6
HETATM    6  O   UNK N   1      21.474  17.379   2.666  0.00  0.00    -0.294 OA
BRANCH   6   7
HETATM    7  C   UNK N   1      21.547  17.873   3.984  0.00  0.00     0.215 C 
BRANCH   7   8
HETATM    8  C   UNK N   1      22.692  18.863   4.181  0.00  0.00     0.180 C 
HETATM    9  C   UNK N   1      22.862  19.853   3.016  0.00  0.00     0.197 C 
HETATM   10  C   UNK N   1      24.263  20.275   3.313  0.00  0.00     0.199 C 
HETATM   11  C   UNK N   1      24.852  18.878   3.528  0.00  0.00     0.262 C 
HETATM   12  O   UNK N   1      23.933  18.192   4.358  0.00  0.00    -0.353 OA
BRANCH   9  13
HETATM   13  O   UNK N   1      21.947  20.930   3.033  0.00  0.00    -0.286 OA
BRANCH  13  14
HETATM   14  P   UNK N   1      20.939  20.878   1.593  0.00  0.00     0.391 P 
HETATM   15  O   UNK N   1      21.874  20.510   0.412  0.00  0.00    -0.632 OA
BRANCH  14  16
HETATM   16  O   UNK N   1      19.734  19.624   1.632  0.00  0.00    -0.307 OA
HETATM   17  H   UNK N   1      18.896  19.212   1.891  0.00  0.00     0.222 HD
ENDBRANCH  14  16
BRANCH  14  18
HETATM   18  O   UNK N   1      20.253  22.424   1.203  0.00  0.00    -0.307 OA
HETATM   19  H   UNK N   1      19.733  22.794   0.472  0.00  0.00     0.222 HD
ENDBRANCH  14  18
ENDBRANCH  13  14
ENDBRANCH   9  13
BRANCH  10  20
HETATM   20  O   UNK N   1      24.852  20.958   2.245  0.00  0.00    -0.388 OA
HETATM   21  H   UNK N   1      24.898  21.642   1.559  0.00  0.00     0.210 HD
ENDBRANCH  10  20
BRANCH  11  22
HETATM   22  N   UNK N   1      26.207  18.842   4.083  0.00  0.00    -0.297 N 
HETATM   23  C   UNK N   1      27.195  19.710   3.740  0.00  0.00     0.188 A 
HETATM   24  N   UNK N   1      28.333  19.483   4.453  0.00  0.00    -0.346 N 
HETATM   25  C   UNK N   1      28.022  18.446   5.249  0.00  0.00     0.122 A 
ATOM     26  HN  UNK N   1      29.218  19.984   4.395  1.00  0.00     0.167 HD
HETATM   27  C   UNK N   1      28.790  17.800   6.204  0.00  0.00     0.131 A 
HETATM   28  C   UNK N   1      26.752  18.056   5.026  0.00  0.00     0.142 A 
HETATM   29  N   UNK N   1      28.223  16.765   6.891  0.00  0.00    -0.337 N 
HETATM   30  C   UNK N   1      26.928  16.378   6.643  0.00  0.00     0.183 A 
ATOM     31  HN  UNK N   1      28.768  16.272   7.597  1.00  0.00     0.168 HD
HETATM   32  N   UNK N   1      26.178  17.033   5.704  0.00  0.00    -0.336 N 
ATOM     33  HN  UNK N   1      25.214  16.758   5.520  1.00  0.00     0.168 HD
BRANCH  27  34
HETATM   34  N   UNK N   1      30.114  18.203   6.473  0.00  0.00    -0.383 N 
HETATM   35  H   UNK N   1      30.758  18.311   5.735  0.00  0.00     0.157 HD
HETATM   36  H   UNK N   1      30.395  18.377   7.399  0.00  0.00     0.157 HD
ENDBRANCH  27  34
ENDBRANCH  11  22
ENDBRANCH   7   8
ENDBRANCH   6   7
ENDBRANCH   2   6
ENDBRANCH   1   2
BRANCH   1  37
HETATM   37  P   UNK N   1      19.151  13.466   1.733  0.00  0.00     0.401 P 
HETATM   38  O   UNK N   1      17.762  13.472   1.034  0.00  0.00    -0.631 OA
BRANCH  37  39
HETATM   39  O   UNK N   1      18.779  13.386   3.429  0.00  0.00    -0.307 OA
HETATM   40  H   UNK N   1      18.247  12.717   3.888  0.00  0.00     0.222 HD
ENDBRANCH  37  39
BRANCH  37  41
HETATM   41  O   UNK N   1      20.047  12.055   1.206  0.00  0.00    -0.296 OA
BRANCH  41  42
HETATM   42  C   UNK N   1      21.312  12.537   0.867  0.00  0.00     0.192 C 
BRANCH  42  43
HETATM   43  C   UNK N   1      22.443  11.500   0.924  0.00  0.00     0.008 C 
HETATM   44  C   UNK N   1      23.786  12.083   0.514  0.00  0.00     0.020 C 
HETATM   45  C   UNK N   1      22.082  10.440  -0.107  0.00  0.00     0.020 C 
BRANCH  43  46
HETATM   46  C   UNK N   1      22.571  10.866   2.333  0.00  0.00     0.202 C 
BRANCH  46  47
HETATM   47  C   UNK N   1      22.741  11.897   3.411  0.00  0.00     0.141 C 
BRANCH  47  48
HETATM   48  N   UNK N   1      23.924  12.209   3.830  0.00  0.00    -0.372 N 
ATOM     49  HN  UNK N   1      24.551  11.446   4.089  1.00  0.00     0.161 HD
BRANCH  48  50
HETATM   50  C   UNK N   1      24.423  13.559   3.959  0.00  0.00     0.129 C 
BRANCH  50  51
HETATM   51  C   UNK N   1      24.514  14.013   5.419  0.00  0.00     0.103 C 
BRANCH  51  52
HETATM   52  C   UNK N   1      23.350  14.832   5.961  0.00  0.00     0.112 C 
BRANCH  52  53
HETATM   53  N   UNK N   1      22.152  14.367   6.137  0.00  0.00    -0.374 N 
ATOM     54  HN  UNK N   1      21.876  13.547   5.594  1.00  0.00     0.161 HD
BRANCH  53  55
HETATM   55  C   UNK N   1      21.177  14.927   7.049  0.00  0.00     0.131 C 
BRANCH  55  56
HETATM   56  C   UNK N   1      20.662  13.896   8.046  0.00  0.00     0.093 C 
BRANCH  56  57
HETATM   57  S   UNK N   1      21.363  14.080   9.723  0.00  0.00    -0.167 SA
BRANCH  57  58
HETATM   58  C   UNK N   1      21.841  12.313   9.741  0.00  0.00     0.088 C 
BRANCH  58  59
HETATM   59  C   UNK N   1      23.325  12.073   9.973  0.00  0.00     0.089 C 
HETATM   60  C   UNK N   1      24.117  13.079   9.153  0.00  0.00     0.022 C 
BRANCH  59  61
HETATM   61  C   UNK N   1      23.686  12.111  11.439  0.00  0.00     0.144 C 
HETATM   62  O   UNK N   1      22.830  11.955  12.297  0.00  0.00    -0.650 OA
BRANCH  61  63
HETATM   63  O   UNK N   1      24.966  12.313  11.810  0.00  0.00    -0.776 OA
HETATM   64  H   UNK N   1      25.746  11.835  12.013  0.00  0.00     0.167 HD
ENDBRANCH  61  63
ENDBRANCH  59  61
ENDBRANCH  58  59
ENDBRANCH  57  58
ENDBRANCH  56  57
ENDBRANCH  55  56
ENDBRANCH  53  55
ENDBRANCH  52  53
BRANCH  52  65
HETATM   65  O   UNK N   1      23.583  16.125   6.249  0.00  0.00    -0.350 OA
HETATM   66  H   UNK N   1      22.895  16.725   6.462  0.00  0.00     0.219 HD
ENDBRANCH  52  65
ENDBRANCH  51  52
ENDBRANCH  50  51
ENDBRANCH  48  50
ENDBRANCH  47  48
BRANCH  47  67
HETATM   67  O   UNK N   1      21.636  12.445   3.951  0.00  0.00    -0.348 OA
HETATM   68  H   UNK N   1      21.410  13.255   4.362  0.00  0.00     0.219 HD
ENDBRANCH  47  67
ENDBRANCH  46  47
BRANCH  46  69
HETATM   69  O   UNK N   1      21.446  10.085   2.615  0.00  0.00    -0.387 OA
HETATM   70  H   UNK N   1      21.347   9.212   2.207  0.00  0.00     0.210 HD
ENDBRANCH  46  69
ENDBRANCH  43  46
ENDBRANCH  42  43
ENDBRANCH  41  42
ENDBRANCH  37  41
ENDBRANCH   1  37
TORSDOF 34
ENDMDL
MODEL 6
REMARK VINA RESULT:      -7.0      3.061      4.813
REMARK WARNING: 32 MAX_TORS EXCEEDED!!!
REMARK  34 active torsions:
REMARK  status: ('A' for Active; 'I' for Inactive)
REMARK    1  A    between atoms: C_5  and  C_4 
REMARK    2  A    between atoms: C_15  and  C_4 
REMARK    3  A    between atoms: N_29  and  C_5 
REMARK    4  A    between atoms: C_7  and  C_6 
REMARK    5  A    between atoms: N_27  and  C_6 
REMARK    6  A    between atoms: S_59  and  C_7 
REMARK    7  A    between atoms: C_14  and  C_8 
REMARK    8  A    between atoms: O_51  and  C_8 
REMARK    9  A    between atoms: C_13  and  C_9 
REMARK   10  A    between atoms: S_59  and  C_9 
REMARK   11  A    between atoms: C_25  and  C_10 
REMARK   12  A    between atoms: O_52  and  C_10 
REMARK   13  A    between atoms: C_24  and  C_13 
REMARK   14  A    between atoms: N_27  and  C_15 
REMARK   15  A    between atoms: O_38  and  C_15 
REMARK   16  A    between atoms: C_17  and  O_39 
REMARK   17  A    between atoms: C_18  and  O_54 
REMARK   18  A    between atoms: C_22  and  C_19 
REMARK   19  A    between atoms: C_25  and  C_19 
REMARK   20  A    between atoms: C_19  and  O_40 
REMARK   21  A    between atoms: N_26  and  C_20 
REMARK   22  A    between atoms: N_29  and  C_22 
REMARK   23  A    between atoms: O_41  and  C_22 
REMARK   24  A    between atoms: C_23  and  N_37 
REMARK   25  A    between atoms: O_43  and  C_24 
REMARK   26  A    between atoms: P_56  and  O_44 
REMARK   27  A    between atoms: P_56  and  O_45 
REMARK   28  A    between atoms: P_57  and  O_47 
REMARK   29  A    between atoms: P_58  and  O_49 
REMARK   30  A    between atoms: P_57  and  O_51 
REMARK   31  A    between atoms: P_58  and  O_52 
REMARK   32  A    between atoms: P_56  and  O_54 
REMARK   33  A    between atoms: P_57  and  O_55 
REMARK   34  A    between atoms: P_58  and  O_55 
ROOT
HETATM    1  O   UNK N   1      32.248  15.512   4.836  0.00  0.00    -0.195 OA
ENDROOT
BRANCH   1   2
HETATM    2  P   UNK N   1      32.985  14.193   5.783  0.00  0.00     0.401 P 
HETATM    3  O   UNK N   1      34.334  14.460   5.068  0.00  0.00    -0.631 OA
BRANCH   2   4
HETATM    4  O   UNK N   1      32.609  15.525   6.830  0.00  0.00    -0.307 OA
HETATM    5  H   UNK N   1      32.911  15.519   7.751  0.00  0.00     0.222 HD
ENDBRANCH   2   4
BRANCH   2   6
HETATM    6  O   UNK N   1      33.969  14.355   7.219  0.00  0.00    -0.294 OA
BRANCH   6   7
HETATM    7  C   UNK N   1      33.109  14.394   8.336  0.00  0.00     0.215 C 
BRANCH   7   8
HETATM    8  C   UNK N   1      33.859  14.586   9.651  0.00  0.00     0.180 C 
HETATM    9  C   UNK N   1      34.850  15.761   9.635  0.00  0.00     0.197 C 
HETATM   10  C   UNK N   1      35.679  15.343  10.804  0.00  0.00     0.199 C 
HETATM   11  C   UNK N   1      35.864  13.877  10.405  0.00  0.00     0.262 C 
HETATM   12  O   UNK N   1      34.585  13.417  10.009  0.00  0.00    -0.353 OA
BRANCH   9  13
HETATM   13  O   UNK N   1      34.250  17.028   9.810  0.00  0.00    -0.286 OA
BRANCH  13  14
HETATM   14  P   UNK N   1      34.395  17.966   8.328  0.00  0.00     0.391 P 
HETATM   15  O   UNK N   1      32.971  18.473   7.985  0.00  0.00    -0.632 OA
BRANCH  14  16
HETATM   16  O   UNK N   1      35.363  19.400   8.504  0.00  0.00    -0.307 OA
HETATM   17  H   UNK N   1      35.710  20.269   8.249  0.00  0.00     0.222 HD
ENDBRANCH  14  16
BRANCH  14  18
HETATM   18  O   UNK N   1      34.904  17.002   6.977  0.00  0.00    -0.307 OA
HETATM   19  H   UNK N   1      35.638  17.019   6.343  0.00  0.00     0.222 HD
ENDBRANCH  14  18
ENDBRANCH  13  14
ENDBRANCH   9  13
BRANCH  10  20
HETATM   20  O   UNK N   1      36.885  16.045  10.882  0.00  0.00    -0.388 OA
HETATM   21  H   UNK N   1      37.622  16.566  10.526  0.00  0.00     0.210 HD
ENDBRANCH  10  20
BRANCH  11  22
HETATM   22  N   UNK N   1      36.452  13.012  11.432  0.00  0.00    -0.297 N 
HETATM   23  C   UNK N   1      37.778  12.733  11.525  0.00  0.00     0.188 A 
HETATM   24  N   UNK N   1      38.051  11.952  12.607  0.00  0.00    -0.346 N 
HETATM   25  C   UNK N   1      36.853  11.754  13.183  0.00  0.00     0.122 A 
ATOM     26  HN  UNK N   1      38.958  11.598  12.911  1.00  0.00     0.167 HD
HETATM   27  C   UNK N   1      36.526  11.051  14.331  0.00  0.00     0.131 A 
HETATM   28  C   UNK N   1      35.892  12.383  12.478  0.00  0.00     0.142 A 
HETATM   29  N   UNK N   1      35.214  11.013  14.708  0.00  0.00    -0.337 N 
HETATM   30  C   UNK N   1      34.249  11.655  13.971  0.00  0.00     0.183 A 
ATOM     31  HN  UNK N   1      34.948  10.500  15.548  1.00  0.00     0.168 HD
HETATM   32  N   UNK N   1      34.589  12.354  12.845  0.00  0.00    -0.336 N 
ATOM     33  HN  UNK N   1      33.880  12.841  12.297  1.00  0.00     0.168 HD
BRANCH  27  34
HETATM   34  N   UNK N   1      37.515  10.404  15.098  0.00  0.00    -0.383 N 
HETATM   35  H   UNK N   1      37.275   9.647  15.681  0.00  0.00     0.157 HD
HETATM   36  H   UNK N   1      38.450  10.709  15.052  0.00  0.00     0.157 HD
ENDBRANCH  27  34
ENDBRANCH  11  22
ENDBRANCH   7   8
ENDBRANCH   6   7
ENDBRANCH   2   6
ENDBRANCH   1   2
BRANCH   1  37
HETATM   37  P   UNK N   1      30.527  15.820   5.130  0.00  0.00     0.401 P 
HETATM   38  O   UNK N   1      29.999  14.570   5.890  0.00  0.00    -0.631 OA
BRANCH  37  39
HETATM   39  O   UNK N   1      29.602  15.851   3.659  0.00  0.00    -0.307 OA
HETATM   40  H   UNK N   1      29.829  16.295   2.826  0.00  0.00     0.222 HD
ENDBRANCH  37  39
BRANCH  37  41
HETATM   41  O   UNK N   1      30.229  17.246   6.105  0.00  0.00    -0.296 OA
BRANCH  41  42
HETATM   42  C   UNK N   1      29.619  16.767   7.266  0.00  0.00     0.192 C 
BRANCH  42  43
HETATM   43  C   UNK N   1      28.253  17.390   7.590  0.00  0.00     0.008 C 
HETATM   44  C   UNK N   1      28.055  17.609   9.081  0.00  0.00     0.020 C 
HETATM   45  C   UNK N   1      27.218  16.367   7.146  0.00  0.00     0.020 C 
BRANCH  43  46
HETATM   46  C   UNK N   1      28.044  18.733   6.845  0.00  0.00     0.202 C 
BRANCH  46  47
HETATM   47  C   UNK N   1      27.249  18.572   5.582  0.00  0.00     0.141 C 
BRANCH  47  48
HETATM   48  N   UNK N   1      25.959  18.664   5.610  0.00  0.00    -0.372 N 
ATOM     49  HN  UNK N   1      25.467  18.182   6.361  1.00  0.00     0.161 HD
BRANCH  48  50
HETATM   50  C   UNK N   1      25.167  19.402   4.653  0.00  0.00     0.129 C 
BRANCH  50  51
HETATM   51  C   UNK N   1      24.538  18.495   3.591  0.00  0.00     0.103 C 
BRANCH  51  52
HETATM   52  C   UNK N   1      24.532  16.998   3.876  0.00  0.00     0.112 C 
BRANCH  52  53
HETATM   53  N   UNK N   1      23.511  16.352   4.348  0.00  0.00    -0.374 N 
ATOM     54  HN  UNK N   1      23.253  15.474   3.894  1.00  0.00     0.161 HD
BRANCH  53  55
HETATM   55  C   UNK N   1      22.710  16.786   5.473  0.00  0.00     0.131 C 
BRANCH  55  56
HETATM   56  C   UNK N   1      21.246  16.389   5.325  0.00  0.00     0.093 C 
BRANCH  56  57
HETATM   57  S   UNK N   1      20.344  17.359   4.066  0.00  0.00    -0.167 SA
BRANCH  57  58
HETATM   58  C   UNK N   1      20.247  15.894   2.974  0.00  0.00     0.088 C 
BRANCH  58  59
HETATM   59  C   UNK N   1      20.953  16.067   1.638  0.00  0.00     0.089 C 
HETATM   60  C   UNK N   1      21.663  14.769   1.288  0.00  0.00     0.022 C 
BRANCH  59  61
HETATM   61  C   UNK N   1      20.009  16.521   0.550  0.00  0.00     0.144 C 
HETATM   62  O   UNK N   1      20.358  17.356  -0.271  0.00  0.00    -0.650 OA
BRANCH  61  63
HETATM   63  O   UNK N   1      18.769  15.997   0.475  0.00  0.00    -0.776 OA
HETATM   64  H   UNK N   1      18.217  15.374   0.907  0.00  0.00     0.167 HD
ENDBRANCH  61  63
ENDBRANCH  59  61
ENDBRANCH  58  59
ENDBRANCH  57  58
ENDBRANCH  56  57
ENDBRANCH  55  56
ENDBRANCH  53  55
ENDBRANCH  52  53
BRANCH  52  65
HETATM   65  O   UNK N   1      25.670  16.319   3.647  0.00  0.00    -0.350 OA
HETATM   66  H   UNK N   1      25.674  15.451   3.292  0.00  0.00     0.219 HD
ENDBRANCH  52  65
ENDBRANCH  51  52
ENDBRANCH  50  51
ENDBRANCH  48  50
ENDBRANCH  47  48
BRANCH  47  67
HETATM   67  O   UNK N   1      27.910  18.287   4.444  0.00  0.00    -0.348 OA
HETATM   68  H   UNK N   1      28.803  18.256   4.165  0.00  0.00     0.219 HD
ENDBRANCH  47  67
ENDBRANCH  46  47
BRANCH  46  69
HETATM   69  O   UNK N   1      27.400  19.653   7.680  0.00  0.00    -0.387 OA
HETATM   70  H   UNK N   1      27.773  19.863   8.550  0.00  0.00     0.210 HD
ENDBRANCH  46  69
ENDBRANCH  43  46
ENDBRANCH  42  43
ENDBRANCH  41  42
ENDBRANCH  37  41
ENDBRANCH   1  37
TORSDOF 34
ENDMDL
MODEL 7
REMARK VINA RESULT:      -7.0      2.870      4.924
REMARK WARNING: 32 MAX_TORS EXCEEDED!!!
REMARK  34 active torsions:
REMARK  status: ('A' for Active; 'I' for Inactive)
REMARK    1  A    between atoms: C_5  and  C_4 
REMARK    2  A    between atoms: C_15  and  C_4 
REMARK    3  A    between atoms: N_29  and  C_5 
REMARK    4  A    between atoms: C_7  and  C_6 
REMARK    5  A    between atoms: N_27  and  C_6 
REMARK    6  A    between atoms: S_59  and  C_7 
REMARK    7  A    between atoms: C_14  and  C_8 
REMARK    8  A    between atoms: O_51  and  C_8 
REMARK    9  A    between atoms: C_13  and  C_9 
REMARK   10  A    between atoms: S_59  and  C_9 
REMARK   11  A    between atoms: C_25  and  C_10 
REMARK   12  A    between atoms: O_52  and  C_10 
REMARK   13  A    between atoms: C_24  and  C_13 
REMARK   14  A    between atoms: N_27  and  C_15 
REMARK   15  A    between atoms: O_38  and  C_15 
REMARK   16  A    between atoms: C_17  and  O_39 
REMARK   17  A    between atoms: C_18  and  O_54 
REMARK   18  A    between atoms: C_22  and  C_19 
REMARK   19  A    between atoms: C_25  and  C_19 
REMARK   20  A    between atoms: C_19  and  O_40 
REMARK   21  A    between atoms: N_26  and  C_20 
REMARK   22  A    between atoms: N_29  and  C_22 
REMARK   23  A    between atoms: O_41  and  C_22 
REMARK   24  A    between atoms: C_23  and  N_37 
REMARK   25  A    between atoms: O_43  and  C_24 
REMARK   26  A    between atoms: P_56  and  O_44 
REMARK   27  A    between atoms: P_56  and  O_45 
REMARK   28  A    between atoms: P_57  and  O_47 
REMARK   29  A    between atoms: P_58  and  O_49 
REMARK   30  A    between atoms: P_57  and  O_51 
REMARK   31  A    between atoms: P_58  and  O_52 
REMARK   32  A    between atoms: P_56  and  O_54 
REMARK   33  A    between atoms: P_57  and  O_55 
REMARK   34  A    between atoms: P_58  and  O_55 
ROOT
HETATM    1  O   UNK N   1      32.921  15.525   5.773  0.00  0.00    -0.195 OA
ENDROOT
BRANCH   1   2
HETATM    2  P   UNK N   1      32.928  13.902   6.511  0.00  0.00     0.401 P 
HETATM    3  O   UNK N   1      34.441  14.063   6.802  0.00  0.00    -0.631 OA
BRANCH   2   4
HETATM    4  O   UNK N   1      32.025  14.996   7.512  0.00  0.00    -0.307 OA
HETATM    5  H   UNK N   1      31.113  15.227   7.278  0.00  0.00     0.222 HD
ENDBRANCH   2   4
BRANCH   2   6
HETATM    6  O   UNK N   1      32.867  13.524   8.217  0.00  0.00    -0.294 OA
BRANCH   6   7
HETATM    7  C   UNK N   1      32.736  14.735   8.928  0.00  0.00     0.215 C 
BRANCH   7   8
HETATM    8  C   UNK N   1      33.749  14.866  10.062  0.00  0.00     0.180 C 
HETATM    9  C   UNK N   1      34.905  15.832   9.753  0.00  0.00     0.197 C 
HETATM   10  C   UNK N   1      35.861  15.341  10.789  0.00  0.00     0.199 C 
HETATM   11  C   UNK N   1      35.710  13.844  10.508  0.00  0.00     0.262 C 
HETATM   12  O   UNK N   1      34.319  13.607  10.395  0.00  0.00    -0.353 OA
BRANCH   9  13
HETATM   13  O   UNK N   1      34.577  17.197   9.909  0.00  0.00    -0.286 OA
BRANCH  13  14
HETATM   14  P   UNK N   1      34.233  17.910   8.338  0.00  0.00     0.391 P 
HETATM   15  O   UNK N   1      34.945  19.287   8.312  0.00  0.00    -0.632 OA
BRANCH  14  16
HETATM   16  O   UNK N   1      34.909  17.019   7.006  0.00  0.00    -0.307 OA
HETATM   17  H   UNK N   1      34.949  16.681   6.099  0.00  0.00     0.222 HD
ENDBRANCH  14  16
BRANCH  14  18
HETATM   18  O   UNK N   1      32.544  18.235   8.108  0.00  0.00    -0.307 OA
HETATM   19  H   UNK N   1      31.891  18.846   8.485  0.00  0.00     0.222 HD
ENDBRANCH  14  18
ENDBRANCH  13  14
ENDBRANCH   9  13
BRANCH  10  20
HETATM   20  O   UNK N   1      37.161  15.809  10.581  0.00  0.00    -0.388 OA
HETATM   21  H   UNK N   1      37.858  16.483  10.557  0.00  0.00     0.210 HD
ENDBRANCH  10  20
BRANCH  11  22
HETATM   22  N   UNK N   1      36.329  12.951  11.492  0.00  0.00    -0.297 N 
HETATM   23  C   UNK N   1      37.654  12.652  11.523  0.00  0.00     0.188 A 
HETATM   24  N   UNK N   1      37.962  11.846  12.577  0.00  0.00    -0.346 N 
HETATM   25  C   UNK N   1      36.787  11.653  13.199  0.00  0.00     0.122 A 
ATOM     26  HN  UNK N   1      38.875  11.474  12.834  1.00  0.00     0.167 HD
HETATM   27  C   UNK N   1      36.499  10.931  14.346  0.00  0.00     0.131 A 
HETATM   28  C   UNK N   1      35.806  12.308  12.549  0.00  0.00     0.142 A 
HETATM   29  N   UNK N   1      35.204  10.903  14.778  0.00  0.00    -0.337 N 
HETATM   30  C   UNK N   1      34.217  11.572  14.096  0.00  0.00     0.183 A 
ATOM     31  HN  UNK N   1      34.966  10.377  15.619  1.00  0.00     0.168 HD
HETATM   32  N   UNK N   1      34.519  12.289  12.970  0.00  0.00    -0.336 N 
ATOM     33  HN  UNK N   1      33.794  12.796  12.463  1.00  0.00     0.168 HD
BRANCH  27  34
HETATM   34  N   UNK N   1      37.511  10.256  15.058  0.00  0.00    -0.383 N 
HETATM   35  H   UNK N   1      38.116   9.634  14.590  0.00  0.00     0.157 HD
HETATM   36  H   UNK N   1      37.615  10.405  16.025  0.00  0.00     0.157 HD
ENDBRANCH  27  34
ENDBRANCH  11  22
ENDBRANCH   7   8
ENDBRANCH   6   7
ENDBRANCH   2   6
ENDBRANCH   1   2
BRANCH   1  37
HETATM   37  P   UNK N   1      31.347  16.131   5.226  0.00  0.00     0.401 P 
HETATM   38  O   UNK N   1      30.468  14.869   4.993  0.00  0.00    -0.631 OA
BRANCH  37  39
HETATM   39  O   UNK N   1      31.437  16.887   3.664  0.00  0.00    -0.307 OA
HETATM   40  H   UNK N   1      32.223  16.999   3.105  0.00  0.00     0.222 HD
ENDBRANCH  37  39
BRANCH  37  41
HETATM   41  O   UNK N   1      30.552  17.167   6.396  0.00  0.00    -0.296 OA
BRANCH  41  42
HETATM   42  C   UNK N   1      29.484  17.739   5.703  0.00  0.00     0.192 C 
BRANCH  42  43
HETATM   43  C   UNK N   1      28.209  17.956   6.531  0.00  0.00     0.008 C 
HETATM   44  C   UNK N   1      27.508  19.261   6.185  0.00  0.00     0.020 C 
HETATM   45  C   UNK N   1      28.671  18.066   7.977  0.00  0.00     0.020 C 
BRANCH  43  46
HETATM   46  C   UNK N   1      27.211  16.782   6.366  0.00  0.00     0.202 C 
BRANCH  46  47
HETATM   47  C   UNK N   1      26.208  17.030   5.277  0.00  0.00     0.141 C 
BRANCH  47  48
HETATM   48  N   UNK N   1      24.955  17.167   5.566  0.00  0.00    -0.372 N 
ATOM     49  HN  UNK N   1      24.620  18.106   5.783  1.00  0.00     0.161 HD
BRANCH  48  50
HETATM   50  C   UNK N   1      23.997  16.086   5.605  0.00  0.00     0.129 C 
BRANCH  50  51
HETATM   51  C   UNK N   1      22.617  16.545   6.088  0.00  0.00     0.103 C 
BRANCH  51  52
HETATM   52  C   UNK N   1      21.502  15.508   6.075  0.00  0.00     0.112 C 
BRANCH  52  53
HETATM   53  N   UNK N   1      20.394  15.639   5.412  0.00  0.00    -0.374 N 
ATOM     54  HN  UNK N   1      19.695  16.285   5.779  1.00  0.00     0.161 HD
BRANCH  53  55
HETATM   55  C   UNK N   1      20.080  14.932   4.188  0.00  0.00     0.131 C 
BRANCH  55  56
HETATM   56  C   UNK N   1      19.764  15.883   3.040  0.00  0.00     0.093 C 
BRANCH  56  57
HETATM   57  S   UNK N   1      21.164  16.958   2.567  0.00  0.00    -0.167 SA
BRANCH  57  58
HETATM   58  C   UNK N   1      20.016  18.342   2.229  0.00  0.00     0.088 C 
BRANCH  58  59
HETATM   59  C   UNK N   1      20.372  19.634   2.947  0.00  0.00     0.089 C 
HETATM   60  C   UNK N   1      21.083  19.292   4.246  0.00  0.00     0.022 C 
BRANCH  59  61
HETATM   61  C   UNK N   1      21.179  20.568   2.076  0.00  0.00     0.144 C 
HETATM   62  O   UNK N   1      21.237  20.399   0.867  0.00  0.00    -0.650 OA
BRANCH  61  63
HETATM   63  O   UNK N   1      21.839  21.602   2.632  0.00  0.00    -0.776 OA
HETATM   64  H   UNK N   1      21.766  22.214   3.339  0.00  0.00     0.167 HD
ENDBRANCH  61  63
ENDBRANCH  59  61
ENDBRANCH  58  59
ENDBRANCH  57  58
ENDBRANCH  56  57
ENDBRANCH  55  56
ENDBRANCH  53  55
ENDBRANCH  52  53
BRANCH  52  65
HETATM   65  O   UNK N   1      21.674  14.402   6.822  0.00  0.00    -0.350 OA
HETATM   66  H   UNK N   1      22.216  13.689   6.548  0.00  0.00     0.219 HD
ENDBRANCH  52  65
ENDBRANCH  51  52
ENDBRANCH  50  51
ENDBRANCH  48  50
ENDBRANCH  47  48
BRANCH  47  67
HETATM   67  O   UNK N   1      26.643  17.061   4.003  0.00  0.00    -0.348 OA
HETATM   68  H   UNK N   1      27.391  17.390   3.547  0.00  0.00     0.219 HD
ENDBRANCH  47  67
ENDBRANCH  46  47
BRANCH  46  69
HETATM   69  O   UNK N   1      27.901  15.596   6.096  0.00  0.00    -0.387 OA
HETATM   70  H   UNK N   1      28.562  15.265   6.724  0.00  0.00     0.210 HD
ENDBRANCH  46  69
ENDBRANCH  43  46
ENDBRANCH  42  43
ENDBRANCH  41  42
ENDBRANCH  37  41
ENDBRANCH   1  37
TORSDOF 34
ENDMDL
MODEL 8
REMARK VINA RESULT:      -7.0      2.964      4.566
REMARK WARNING: 32 MAX_TORS EXCEEDED!!!
REMARK  34 active torsions:
REMARK  status: ('A' for Active; 'I' for Inactive)
REMARK    1  A    between atoms: C_5  and  C_4 
REMARK    2  A    between atoms: C_15  and  C_4 
REMARK    3  A    between atoms: N_29  and  C_5 
REMARK    4  A    between atoms: C_7  and  C_6 
REMARK    5  A    between atoms: N_27  and  C_6 
REMARK    6  A    between atoms: S_59  and  C_7 
REMARK    7  A    between atoms: C_14  and  C_8 
REMARK    8  A    between atoms: O_51  and  C_8 
REMARK    9  A    between atoms: C_13  and  C_9 
REMARK   10  A    between atoms: S_59  and  C_9 
REMARK   11  A    between atoms: C_25  and  C_10 
REMARK   12  A    between atoms: O_52  and  C_10 
REMARK   13  A    between atoms: C_24  and  C_13 
REMARK   14  A    between atoms: N_27  and  C_15 
REMARK   15  A    between atoms: O_38  and  C_15 
REMARK   16  A    between atoms: C_17  and  O_39 
REMARK   17  A    between atoms: C_18  and  O_54 
REMARK   18  A    between atoms: C_22  and  C_19 
REMARK   19  A    between atoms: C_25  and  C_19 
REMARK   20  A    between atoms: C_19  and  O_40 
REMARK   21  A    between atoms: N_26  and  C_20 
REMARK   22  A    between atoms: N_29  and  C_22 
REMARK   23  A    between atoms: O_41  and  C_22 
REMARK   24  A    between atoms: C_23  and  N_37 
REMARK   25  A    between atoms: O_43  and  C_24 
REMARK   26  A    between atoms: P_56  and  O_44 
REMARK   27  A    between atoms: P_56  and  O_45 
REMARK   28  A    between atoms: P_57  and  O_47 
REMARK   29  A    between atoms: P_58  and  O_49 
REMARK   30  A    between atoms: P_57  and  O_51 
REMARK   31  A    between atoms: P_58  and  O_52 
REMARK   32  A    between atoms: P_56  and  O_54 
REMARK   33  A    between atoms: P_57  and  O_55 
REMARK   34  A    between atoms: P_58  and  O_55 
ROOT
HETATM    1  O   UNK N   1      35.078  16.351   8.179  0.00  0.00    -0.195 OA
ENDROOT
BRANCH   1   2
HETATM    2  P   UNK N   1      34.513  15.373   9.559  0.00  0.00     0.401 P 
HETATM    3  O   UNK N   1      35.712  14.415   9.345  0.00  0.00    -0.631 OA
BRANCH   2   4
HETATM    4  O   UNK N   1      35.091  16.908  10.127  0.00  0.00    -0.307 OA
HETATM    5  H   UNK N   1      34.524  17.465  10.682  0.00  0.00     0.222 HD
ENDBRANCH   2   4
BRANCH   2   6
HETATM    6  O   UNK N   1      35.126  15.415  11.196  0.00  0.00    -0.294 OA
BRANCH   6   7
HETATM    7  C   UNK N   1      34.738  14.221  11.838  0.00  0.00     0.215 C 
BRANCH   7   8
HETATM    8  C   UNK N   1      35.668  13.841  12.986  0.00  0.00     0.180 C 
HETATM    9  C   UNK N   1      36.558  12.622  12.687  0.00  0.00     0.197 C 
HETATM   10  C   UNK N   1      36.914  12.280  14.096  0.00  0.00     0.199 C 
HETATM   11  C   UNK N   1      35.504  12.366  14.686  0.00  0.00     0.262 C 
HETATM   12  O   UNK N   1      34.939  13.558  14.173  0.00  0.00    -0.353 OA
BRANCH   9  13
HETATM   13  O   UNK N   1      37.687  12.910  11.888  0.00  0.00    -0.286 OA
BRANCH  13  14
HETATM   14  P   UNK N   1      37.806  11.738  10.581  0.00  0.00     0.391 P 
HETATM   15  O   UNK N   1      38.036  10.357  11.246  0.00  0.00    -0.632 OA
BRANCH  14  16
HETATM   16  O   UNK N   1      36.339  11.567   9.663  0.00  0.00    -0.307 OA
HETATM   17  H   UNK N   1      35.787  11.588   8.866  0.00  0.00     0.222 HD
ENDBRANCH  14  16
BRANCH  14  18
HETATM   18  O   UNK N   1      39.180  12.017   9.559  0.00  0.00    -0.307 OA
HETATM   19  H   UNK N   1      39.958  11.510   9.278  0.00  0.00     0.222 HD
ENDBRANCH  14  18
ENDBRANCH  13  14
ENDBRANCH   9  13
BRANCH  10  20
HETATM   20  O   UNK N   1      37.479  11.007  14.211  0.00  0.00    -0.388 OA
HETATM   21  H   UNK N   1      37.538  10.055  14.038  0.00  0.00     0.210 HD
ENDBRANCH  10  20
BRANCH  11  22
HETATM   22  N   UNK N   1      35.427  12.320  16.148  0.00  0.00    -0.297 N 
HETATM   23  C   UNK N   1      35.098  13.383  16.928  0.00  0.00     0.188 A 
HETATM   24  N   UNK N   1      35.045  13.042  18.246  0.00  0.00    -0.346 N 
HETATM   25  C   UNK N   1      35.353  11.734  18.260  0.00  0.00     0.122 A 
ATOM     26  HN  UNK N   1      34.824  13.642  19.039  1.00  0.00     0.167 HD
HETATM   27  C   UNK N   1      35.432  10.854  19.327  0.00  0.00     0.131 A 
HETATM   28  C   UNK N   1      35.588  11.300  17.007  0.00  0.00     0.142 A 
HETATM   29  N   UNK N   1      35.760   9.555  19.064  0.00  0.00    -0.337 N 
HETATM   30  C   UNK N   1      36.003   9.134  17.779  0.00  0.00     0.183 A 
ATOM     31  HN  UNK N   1      35.827   8.888  19.833  1.00  0.00     0.168 HD
HETATM   32  N   UNK N   1      35.911  10.013  16.735  0.00  0.00    -0.336 N 
ATOM     33  HN  UNK N   1      36.081   9.707  15.777  1.00  0.00     0.168 HD
BRANCH  27  34
HETATM   34  N   UNK N   1      35.169  11.278  20.645  0.00  0.00    -0.383 N 
HETATM   35  H   UNK N   1      35.856  11.179  21.345  0.00  0.00     0.157 HD
HETATM   36  H   UNK N   1      34.296  11.674  20.869  0.00  0.00     0.157 HD
ENDBRANCH  27  34
ENDBRANCH  11  22
ENDBRANCH   7   8
ENDBRANCH   6   7
ENDBRANCH   2   6
ENDBRANCH   1   2
BRANCH   1  37
HETATM   37  P   UNK N   1      34.307  17.934   7.973  0.00  0.00     0.401 P 
HETATM   38  O   UNK N   1      34.178  18.144   6.438  0.00  0.00    -0.631 OA
BRANCH  37  39
HETATM   39  O   UNK N   1      35.328  19.238   8.502  0.00  0.00    -0.307 OA
HETATM   40  H   UNK N   1      35.183  20.189   8.382  0.00  0.00     0.222 HD
ENDBRANCH  37  39
BRANCH  37  41
HETATM   41  O   UNK N   1      32.713  18.034   8.696  0.00  0.00    -0.296 OA
BRANCH  41  42
HETATM   42  C   UNK N   1      31.843  17.552   7.717  0.00  0.00     0.192 C 
BRANCH  42  43
HETATM   43  C   UNK N   1      30.411  17.273   8.196  0.00  0.00     0.008 C 
HETATM   44  C   UNK N   1      30.376  16.428   9.459  0.00  0.00     0.020 C 
HETATM   45  C   UNK N   1      29.759  16.454   7.091  0.00  0.00     0.020 C 
BRANCH  43  46
HETATM   46  C   UNK N   1      29.621  18.585   8.438  0.00  0.00     0.202 C 
BRANCH  46  47
HETATM   47  C   UNK N   1      28.137  18.391   8.324  0.00  0.00     0.141 C 
BRANCH  47  48
HETATM   48  N   UNK N   1      27.546  18.555   7.186  0.00  0.00    -0.372 N 
ATOM     49  HN  UNK N   1      27.070  17.750   6.779  1.00  0.00     0.161 HD
BRANCH  48  50
HETATM   50  C   UNK N   1      27.511  19.797   6.448  0.00  0.00     0.129 C 
BRANCH  50  51
HETATM   51  C   UNK N   1      27.427  19.577   4.935  0.00  0.00     0.103 C 
BRANCH  51  52
HETATM   52  C   UNK N   1      28.278  18.457   4.352  0.00  0.00     0.112 C 
BRANCH  52  53
HETATM   53  N   UNK N   1      27.796  17.428   3.725  0.00  0.00    -0.374 N 
ATOM     54  HN  UNK N   1      26.781  17.342   3.663  1.00  0.00     0.161 HD
BRANCH  53  55
HETATM   55  C   UNK N   1      28.597  16.392   3.106  0.00  0.00     0.131 C 
BRANCH  55  56
HETATM   56  C   UNK N   1      28.061  14.997   3.402  0.00  0.00     0.093 C 
BRANCH  56  57
HETATM   57  S   UNK N   1      29.299  13.875   4.143  0.00  0.00    -0.167 SA
BRANCH  57  58
HETATM   58  C   UNK N   1      30.615  15.121   3.888  0.00  0.00     0.088 C 
BRANCH  58  59
HETATM   59  C   UNK N   1      32.026  14.563   3.984  0.00  0.00     0.089 C 
HETATM   60  C   UNK N   1      32.320  13.757   2.730  0.00  0.00     0.022 C 
BRANCH  59  61
HETATM   61  C   UNK N   1      33.051  15.645   4.229  0.00  0.00     0.144 C 
HETATM   62  O   UNK N   1      34.207  15.360   4.502  0.00  0.00    -0.650 OA
BRANCH  61  63
HETATM   63  O   UNK N   1      32.693  16.941   4.141  0.00  0.00    -0.776 OA
HETATM   64  H   UNK N   1      32.760  17.675   3.560  0.00  0.00     0.167 HD
ENDBRANCH  61  63
ENDBRANCH  59  61
ENDBRANCH  58  59
ENDBRANCH  57  58
ENDBRANCH  56  57
ENDBRANCH  55  56
ENDBRANCH  53  55
ENDBRANCH  52  53
BRANCH  52  65
HETATM   65  O   UNK N   1      29.610  18.534   4.525  0.00  0.00    -0.350 OA
HETATM   66  H   UNK N   1      30.220  18.242   3.876  0.00  0.00     0.219 HD
ENDBRANCH  52  65
ENDBRANCH  51  52
ENDBRANCH  50  51
ENDBRANCH  48  50
ENDBRANCH  47  48
BRANCH  47  67
HETATM   67  O   UNK N   1      27.445  18.088   9.439  0.00  0.00    -0.348 OA
HETATM   68  H   UNK N   1      26.851  18.530  10.012  0.00  0.00     0.219 HD
ENDBRANCH  47  67
ENDBRANCH  46  47
BRANCH  46  69
HETATM   69  O   UNK N   1      29.923  19.103   9.702  0.00  0.00    -0.387 OA
HETATM   70  H   UNK N   1      30.496  19.880   9.784  0.00  0.00     0.210 HD
ENDBRANCH  46  69
ENDBRANCH  43  46
ENDBRANCH  42  43
ENDBRANCH  41  42
ENDBRANCH  37  41
ENDBRANCH   1  37
TORSDOF 34
ENDMDL
MODEL 9
REMARK VINA RESULT:      -7.0      1.731      2.410
REMARK WARNING: 32 MAX_TORS EXCEEDED!!!
REMARK  34 active torsions:
REMARK  status: ('A' for Active; 'I' for Inactive)
REMARK    1  A    between atoms: C_5  and  C_4 
REMARK    2  A    between atoms: C_15  and  C_4 
REMARK    3  A    between atoms: N_29  and  C_5 
REMARK    4  A    between atoms: C_7  and  C_6 
REMARK    5  A    between atoms: N_27  and  C_6 
REMARK    6  A    between atoms: S_59  and  C_7 
REMARK    7  A    between atoms: C_14  and  C_8 
REMARK    8  A    between atoms: O_51  and  C_8 
REMARK    9  A    between atoms: C_13  and  C_9 
REMARK   10  A    between atoms: S_59  and  C_9 
REMARK   11  A    between atoms: C_25  and  C_10 
REMARK   12  A    between atoms: O_52  and  C_10 
REMARK   13  A    between atoms: C_24  and  C_13 
REMARK   14  A    between atoms: N_27  and  C_15 
REMARK   15  A    between atoms: O_38  and  C_15 
REMARK   16  A    between atoms: C_17  and  O_39 
REMARK   17  A    between atoms: C_18  and  O_54 
REMARK   18  A    between atoms: C_22  and  C_19 
REMARK   19  A    between atoms: C_25  and  C_19 
REMARK   20  A    between atoms: C_19  and  O_40 
REMARK   21  A    between atoms: N_26  and  C_20 
REMARK   22  A    between atoms: N_29  and  C_22 
REMARK   23  A    between atoms: O_41  and  C_22 
REMARK   24  A    between atoms: C_23  and  N_37 
REMARK   25  A    between atoms: O_43  and  C_24 
REMARK   26  A    between atoms: P_56  and  O_44 
REMARK   27  A    between atoms: P_56  and  O_45 
REMARK   28  A    between atoms: P_57  and  O_47 
REMARK   29  A    between atoms: P_58  and  O_49 
REMARK   30  A    between atoms: P_57  and  O_51 
REMARK   31  A    between atoms: P_58  and  O_52 
REMARK   32  A    between atoms: P_56  and  O_54 
REMARK   33  A    between atoms: P_57  and  O_55 
REMARK   34  A    between atoms: P_58  and  O_55 
ROOT
HETATM    1  O   UNK N   1      35.422  16.358   9.172  0.00  0.00    -0.195 OA
ENDROOT
BRANCH   1   2
HETATM    2  P   UNK N   1      35.180  16.242  10.935  0.00  0.00     0.401 P 
HETATM    3  O   UNK N   1      34.481  14.875  10.729  0.00  0.00    -0.631 OA
BRANCH   2   4
HETATM    4  O   UNK N   1      36.869  16.091  10.566  0.00  0.00    -0.307 OA
HETATM    5  H   UNK N   1      37.496  16.761  10.879  0.00  0.00     0.222 HD
ENDBRANCH   2   4
BRANCH   2   6
HETATM    6  O   UNK N   1      36.145  15.326  12.069  0.00  0.00    -0.294 OA
BRANCH   6   7
HETATM    7  C   UNK N   1      35.323  14.331  12.638  0.00  0.00     0.215 C 
BRANCH   7   8
HETATM    8  C   UNK N   1      36.085  13.407  13.585  0.00  0.00     0.180 C 
HETATM    9  C   UNK N   1      36.607  12.126  12.913  0.00  0.00     0.197 C 
HETATM   10  C   UNK N   1      36.822  11.322  14.153  0.00  0.00     0.199 C 
HETATM   11  C   UNK N   1      35.478  11.621  14.822  0.00  0.00     0.262 C 
HETATM   12  O   UNK N   1      35.278  13.016  14.688  0.00  0.00    -0.353 OA
BRANCH   9  13
HETATM   13  O   UNK N   1      37.789  12.306  12.161  0.00  0.00    -0.286 OA
BRANCH  13  14
HETATM   14  P   UNK N   1      37.461  12.017  10.457  0.00  0.00     0.391 P 
HETATM   15  O   UNK N   1      37.537  13.395   9.752  0.00  0.00    -0.632 OA
BRANCH  14  16
HETATM   16  O   UNK N   1      38.663  11.033   9.674  0.00  0.00    -0.307 OA
HETATM   17  H   UNK N   1      39.548  10.814   9.345  0.00  0.00     0.222 HD
ENDBRANCH  14  16
BRANCH  14  18
HETATM   18  O   UNK N   1      35.855  11.420  10.180  0.00  0.00    -0.307 OA
HETATM   19  H   UNK N   1      35.372  11.031   9.433  0.00  0.00     0.222 HD
ENDBRANCH  14  18
ENDBRANCH  13  14
ENDBRANCH   9  13
BRANCH  10  20
HETATM   20  O   UNK N   1      37.008   9.963  13.882  0.00  0.00    -0.388 OA
HETATM   21  H   UNK N   1      36.718   9.048  13.743  0.00  0.00     0.210 HD
ENDBRANCH  10  20
BRANCH  11  22
HETATM   22  N   UNK N   1      35.358  11.193  16.218  0.00  0.00    -0.297 N 
HETATM   23  C   UNK N   1      35.349   9.895  16.619  0.00  0.00     0.188 A 
HETATM   24  N   UNK N   1      35.287   9.790  17.976  0.00  0.00    -0.346 N 
HETATM   25  C   UNK N   1      35.256  11.063  18.405  0.00  0.00     0.122 A 
ATOM     26  HN  UNK N   1      35.267   8.939  18.538  1.00  0.00     0.167 HD
HETATM   27  C   UNK N   1      35.212  11.562  19.696  0.00  0.00     0.131 A 
HETATM   28  C   UNK N   1      35.292  11.906  17.355  0.00  0.00     0.142 A 
HETATM   29  N   UNK N   1      35.198  12.918  19.859  0.00  0.00    -0.337 N 
HETATM   30  C   UNK N   1      35.228  13.760  18.774  0.00  0.00     0.183 A 
ATOM     31  HN  UNK N   1      35.164  13.311  20.800  1.00  0.00     0.168 HD
HETATM   32  N   UNK N   1      35.282  13.252  17.505  0.00  0.00    -0.336 N 
ATOM     33  HN  UNK N   1      35.314  13.869  16.695  1.00  0.00     0.168 HD
BRANCH  27  34
HETATM   34  N   UNK N   1      35.196  10.702  20.813  0.00  0.00    -0.383 N 
HETATM   35  H   UNK N   1      34.711  10.960  21.631  0.00  0.00     0.157 HD
HETATM   36  H   UNK N   1      35.670   9.841  20.775  0.00  0.00     0.157 HD
ENDBRANCH  27  34
ENDBRANCH  11  22
ENDBRANCH   7   8
ENDBRANCH   6   7
ENDBRANCH   2   6
ENDBRANCH   1   2
BRANCH   1  37
HETATM   37  P   UNK N   1      34.554  17.665   8.347  0.00  0.00     0.401 P 
HETATM   38  O   UNK N   1      35.282  18.977   8.755  0.00  0.00    -0.631 OA
BRANCH  37  39
HETATM   39  O   UNK N   1      32.936  17.864   8.948  0.00  0.00    -0.307 OA
HETATM   40  H   UNK N   1      32.471  18.695   9.132  0.00  0.00     0.222 HD
ENDBRANCH  37  39
BRANCH  37  41
HETATM   41  O   UNK N   1      34.576  17.523   6.599  0.00  0.00    -0.296 OA
BRANCH  41  42
HETATM   42  C   UNK N   1      33.240  17.639   6.212  0.00  0.00     0.192 C 
BRANCH  42  43
HETATM   43  C   UNK N   1      32.777  16.626   5.155  0.00  0.00     0.008 C 
HETATM   44  C   UNK N   1      33.862  15.621   4.799  0.00  0.00     0.020 C 
HETATM   45  C   UNK N   1      32.491  17.439   3.902  0.00  0.00     0.020 C 
BRANCH  43  46
HETATM   46  C   UNK N   1      31.506  15.863   5.610  0.00  0.00     0.202 C 
BRANCH  46  47
HETATM   47  C   UNK N   1      30.602  16.709   6.459  0.00  0.00     0.141 C 
BRANCH  47  48
HETATM   48  N   UNK N   1      29.785  17.544   5.905  0.00  0.00    -0.372 N 
ATOM     49  HN  UNK N   1      30.137  18.109   5.133  1.00  0.00     0.161 HD
BRANCH  48  50
HETATM   50  C   UNK N   1      28.408  17.734   6.302  0.00  0.00     0.129 C 
BRANCH  50  51
HETATM   51  C   UNK N   1      28.183  19.073   7.011  0.00  0.00     0.103 C 
BRANCH  51  52
HETATM   52  C   UNK N   1      27.179  20.029   6.380  0.00  0.00     0.112 C 
BRANCH  52  53
HETATM   53  N   UNK N   1      26.036  19.661   5.887  0.00  0.00    -0.374 N 
ATOM     54  HN  UNK N   1      25.334  19.298   6.533  1.00  0.00     0.161 HD
BRANCH  53  55
HETATM   55  C   UNK N   1      25.686  19.729   4.484  0.00  0.00     0.131 C 
BRANCH  55  56
HETATM   56  C   UNK N   1      24.227  19.364   4.236  0.00  0.00     0.093 C 
BRANCH  56  57
HETATM   57  S   UNK N   1      23.445  20.328   2.895  0.00  0.00    -0.167 SA
BRANCH  57  58
HETATM   58  C   UNK N   1      22.115  19.080   2.743  0.00  0.00     0.088 C 
BRANCH  58  59
HETATM   59  C   UNK N   1      20.740  19.668   2.467  0.00  0.00     0.089 C 
HETATM   60  C   UNK N   1      20.321  20.513   3.659  0.00  0.00     0.022 C 
BRANCH  59  61
HETATM   61  C   UNK N   1      20.700  20.441   1.169  0.00  0.00     0.144 C 
HETATM   62  O   UNK N   1      20.696  21.663   1.170  0.00  0.00    -0.650 OA
BRANCH  61  63
HETATM   63  O   UNK N   1      20.675  19.780  -0.005  0.00  0.00    -0.776 OA
HETATM   64  H   UNK N   1      21.204  19.630  -0.765  0.00  0.00     0.167 HD
ENDBRANCH  61  63
ENDBRANCH  59  61
ENDBRANCH  58  59
ENDBRANCH  57  58
ENDBRANCH  56  57
ENDBRANCH  55  56
ENDBRANCH  53  55
ENDBRANCH  52  53
BRANCH  52  65
HETATM   65  O   UNK N   1      27.517  21.329   6.310  0.00  0.00    -0.350 OA
HETATM   66  H   UNK N   1      28.028  21.751   6.973  0.00  0.00     0.219 HD
ENDBRANCH  52  65
ENDBRANCH  51  52
ENDBRANCH  50  51
ENDBRANCH  48  50
ENDBRANCH  47  48
BRANCH  47  67
HETATM   67  O   UNK N   1      30.701  16.604   7.798  0.00  0.00    -0.348 OA
HETATM   68  H   UNK N   1      30.272  16.975   8.543  0.00  0.00     0.219 HD
ENDBRANCH  47  67
ENDBRANCH  46  47
BRANCH  46  69
HETATM   69  O   UNK N   1      30.795  15.403   4.497  0.00  0.00    -0.387 OA
HETATM   70  H   UNK N   1      30.508  16.026   3.812  0.00  0.00     0.210 HD
ENDBRANCH  46  69
ENDBRANCH  43  46
ENDBRANCH  42  43
ENDBRANCH  41  42
ENDBRANCH  37  41
ENDBRANCH   1  37
TORSDOF 34
ENDMDL
