MODEL 1
REMARK VINA RESULT:      -6.4      0.000      0.000
REMARK  32 active torsions:
REMARK  status: ('A' for Active; 'I' for Inactive)
REMARK    1  A    between atoms: C_5  and  C_3 
REMARK    2  A    between atoms: C_11  and  C_3 
REMARK    3  A    between atoms: C_6  and  C_4 
REMARK    4  A    between atoms: C_13  and  C_4 
REMARK    5  A    between atoms: N_26  and  C_5 
REMARK    6  A    between atoms: N_28  and  C_6 
REMARK    7  A    between atoms: C_12  and  C_7 
REMARK    8  A    between atoms: O_50  and  C_7 
REMARK    9  A    between atoms: C_23  and  C_8 
REMARK   10  A    between atoms: O_51  and  C_8 
REMARK   11  A    between atoms: C_22  and  C_11 
REMARK   12  A    between atoms: N_26  and  C_13 
REMARK   13  A    between atoms: O_37  and  C_13 
REMARK   14  A    between atoms: C_15  and  O_38 
REMARK   15  A    between atoms: C_16  and  O_53 
REMARK   16  A    between atoms: C_20  and  C_17 
REMARK   17  A    between atoms: C_23  and  C_17 
REMARK   18  A    between atoms: C_17  and  O_39 
REMARK   19  A    between atoms: N_25  and  C_18 
REMARK   20  A    between atoms: N_28  and  C_20 
REMARK   21  A    between atoms: O_40  and  C_20 
REMARK   22  A    between atoms: C_21  and  N_36 
REMARK   23  A    between atoms: O_42  and  C_22 
REMARK   24  A    between atoms: P_55  and  O_43 
REMARK   25  A    between atoms: P_55  and  O_44 
REMARK   26  A    between atoms: P_56  and  O_46 
REMARK   27  A    between atoms: P_57  and  O_48 
REMARK   28  A    between atoms: P_56  and  O_50 
REMARK   29  A    between atoms: P_57  and  O_51 
REMARK   30  A    between atoms: P_55  and  O_53 
REMARK   31  A    between atoms: P_56  and  O_54 
REMARK   32  A    between atoms: P_57  and  O_54 
ROOT
HETATM    1  O   UNK N   1      35.005  19.021   8.298  0.00  0.00    -0.631 OA
HETATM    2  P   UNK N   1      34.182  17.707   8.291  0.00  0.00     0.401 P 
ENDROOT
BRANCH   2   3
HETATM    3  O   UNK N   1      35.249  16.572   7.528  0.00  0.00    -0.307 OA
HETATM    4  H   UNK N   1      35.509  16.687   6.600  0.00  0.00     0.222 HD
ENDBRANCH   2   3
BRANCH   2   5
HETATM    5  O   UNK N   1      34.074  18.331   6.656  0.00  0.00    -0.294 OA
BRANCH   5   6
HETATM    6  C   UNK N   1      33.670  17.294   5.784  0.00  0.00     0.215 C 
BRANCH   6   7
HETATM    7  C   UNK N   1      32.373  16.609   6.203  0.00  0.00     0.180 C 
HETATM    8  C   UNK N   1      32.347  15.103   5.913  0.00  0.00     0.197 C 
HETATM    9  C   UNK N   1      30.870  14.904   6.073  0.00  0.00     0.199 C 
HETATM   10  C   UNK N   1      30.424  16.073   5.192  0.00  0.00     0.262 C 
HETATM   11  O   UNK N   1      31.238  17.176   5.559  0.00  0.00    -0.353 OA
BRANCH   8  12
HETATM   12  O   UNK N   1      33.115  14.291   6.787  0.00  0.00    -0.286 OA
BRANCH  12  13
HETATM   13  P   UNK N   1      33.918  13.039   5.841  0.00  0.00     0.391 P 
HETATM   14  O   UNK N   1      34.803  12.093   6.694  0.00  0.00    -0.632 OA
BRANCH  13  15
HETATM   15  O   UNK N   1      32.834  12.201   6.912  0.00  0.00    -0.307 OA
HETATM   16  H   UNK N   1      31.994  12.046   7.372  0.00  0.00     0.222 HD
ENDBRANCH  13  15
BRANCH  13  17
HETATM   17  O   UNK N   1      35.134  14.059   6.544  0.00  0.00    -0.307 OA
HETATM   18  H   UNK N   1      35.745  14.765   6.282  0.00  0.00     0.222 HD
ENDBRANCH  13  17
ENDBRANCH  12  13
ENDBRANCH   8  12
BRANCH   9  19
HETATM   19  O   UNK N   1      30.440  13.664   5.598  0.00  0.00    -0.388 OA
HETATM   20  H   UNK N   1      30.126  12.748   5.650  0.00  0.00     0.210 HD
ENDBRANCH   9  19
BRANCH  10  21
HETATM   21  N   UNK N   1      28.998  16.415   5.245  0.00  0.00    -0.297 N 
HETATM   22  C   UNK N   1      28.031  15.551   5.644  0.00  0.00     0.188 A 
HETATM   23  N   UNK N   1      26.802  16.139   5.650  0.00  0.00    -0.346 N 
HETATM   24  C   UNK N   1      27.035  17.395   5.240  0.00  0.00     0.122 A 
ATOM     25  HN  UNK N   1      25.908  15.719   5.907  1.00  0.00     0.167 HD
HETATM   26  C   UNK N   1      26.151  18.448   5.068  0.00  0.00     0.131 A 
HETATM   27  C   UNK N   1      28.350  17.567   4.991  0.00  0.00     0.142 A 
HETATM   28  N   UNK N   1      26.652  19.642   4.637  0.00  0.00    -0.337 N 
HETATM   29  C   UNK N   1      27.995  19.794   4.384  0.00  0.00     0.183 A 
ATOM     30  HN  UNK N   1      26.023  20.432   4.500  1.00  0.00     0.168 HD
HETATM   31  N   UNK N   1      28.858  18.746   4.568  0.00  0.00    -0.336 N 
ATOM     32  HN  UNK N   1      29.857  18.853   4.390  1.00  0.00     0.168 HD
BRANCH  26  33
HETATM   33  N   UNK N   1      24.775  18.299   5.338  0.00  0.00    -0.383 N 
HETATM   34  H   UNK N   1      24.474  17.649   6.015  0.00  0.00     0.157 HD
HETATM   35  H   UNK N   1      24.115  18.843   4.851  0.00  0.00     0.157 HD
ENDBRANCH  26  33
ENDBRANCH  10  21
ENDBRANCH   6   7
ENDBRANCH   5   6
ENDBRANCH   2   5
BRANCH   2  36
HETATM   36  O   UNK N   1      35.163  17.526   9.774  0.00  0.00    -0.195 OA
BRANCH  36  37
HETATM   37  P   UNK N   1      35.410  15.869  10.367  0.00  0.00     0.401 P 
HETATM   38  O   UNK N   1      35.011  15.620  11.849  0.00  0.00    -0.631 OA
BRANCH  37  39
HETATM   39  O   UNK N   1      37.091  16.022  10.679  0.00  0.00    -0.307 OA
HETATM   40  H   UNK N   1      37.737  16.743  10.733  0.00  0.00     0.222 HD
ENDBRANCH  37  39
BRANCH  37  41
HETATM   41  O   UNK N   1      35.603  14.481   9.333  0.00  0.00    -0.296 OA
BRANCH  41  42
HETATM   42  C   UNK N   1      36.810  13.844   9.628  0.00  0.00     0.192 C 
BRANCH  42  43
HETATM   43  C   UNK N   1      36.568  12.433  10.197  0.00  0.00     0.008 C 
HETATM   44  C   UNK N   1      37.123  12.319  11.619  0.00  0.00     0.020 C 
HETATM   45  C   UNK N   1      37.290  11.420   9.324  0.00  0.00     0.020 C 
BRANCH  43  46
HETATM   46  C   UNK N   1      35.050  12.162  10.277  0.00  0.00     0.202 C 
BRANCH  46  47
HETATM   47  C   UNK N   1      34.614  10.729  10.013  0.00  0.00     0.141 C 
BRANCH  47  48
HETATM   48  N   UNK N   1      34.485   9.871  10.973  0.00  0.00    -0.372 N 
ATOM     49  HN  UNK N   1      33.541   9.663  11.298  1.00  0.00     0.161 HD
BRANCH  48  50
HETATM   50  C   UNK N   1      35.588   9.184  11.623  0.00  0.00     0.129 C 
BRANCH  50  51
HETATM   51  C   UNK N   1      35.192   8.653  13.015  0.00  0.00     0.103 C 
BRANCH  51  52
HETATM   52  C   UNK N   1      34.793   9.707  14.014  0.00  0.00     0.112 C 
BRANCH  52  53
HETATM   53  N   UNK N   1      35.147   9.596  15.246  0.00  0.00    -0.374 N 
ATOM     54  HN  UNK N   1      35.706   8.788  15.518  1.00  0.00     0.161 HD
BRANCH  53  55
HETATM   55  C   UNK N   1      34.795  10.557  16.260  0.00  0.00     0.125 C 
BRANCH  55  56
HETATM   56  C   UNK N   1      35.977  11.495  16.471  0.00  0.00     0.068 C 
BRANCH  56  57
HETATM   57  C   UNK N   1      35.592  12.978  16.418  0.00  0.00     0.269 C 
HETATM   58  F   UNK N   1      34.252  13.126  16.726  0.00  0.00    -0.238 F 
BRANCH  57  59
HETATM   59  C   UNK N   1      35.867  13.497  15.041  0.00  0.00     0.175 C 
HETATM   60  O   UNK N   1      34.991  13.485  14.191  0.00  0.00    -0.648 OA
BRANCH  59  61
HETATM   61  O   UNK N   1      37.092  13.963  14.730  0.00  0.00    -0.774 OA
HETATM   62  H   UNK N   1      37.557  14.513  15.330  0.00  0.00     0.167 HD
ENDBRANCH  59  61
ENDBRANCH  57  59
ENDBRANCH  56  57
ENDBRANCH  55  56
ENDBRANCH  53  55
ENDBRANCH  52  53
BRANCH  52  63
HETATM   63  O   UNK N   1      34.071  10.768  13.599  0.00  0.00    -0.350 OA
HETATM   64  H   UNK N   1      33.929  11.662  13.843  0.00  0.00     0.219 HD
ENDBRANCH  52  63
ENDBRANCH  51  52
ENDBRANCH  50  51
ENDBRANCH  48  50
ENDBRANCH  47  48
BRANCH  47  65
HETATM   65  O   UNK N   1      34.342  10.330   8.755  0.00  0.00    -0.348 OA
HETATM   66  H   UNK N   1      33.840  10.456   7.974  0.00  0.00     0.219 HD
ENDBRANCH  47  65
ENDBRANCH  46  47
BRANCH  46  67
HETATM   67  O   UNK N   1      34.547  12.560  11.521  0.00  0.00    -0.387 OA
HETATM   68  H   UNK N   1      33.783  12.101  11.904  0.00  0.00     0.210 HD
ENDBRANCH  46  67
ENDBRANCH  43  46
ENDBRANCH  42  43
ENDBRANCH  41  42
ENDBRANCH  37  41
ENDBRANCH  36  37
ENDBRANCH   2  36
TORSDOF 32
ENDMDL
MODEL 2
REMARK VINA RESULT:      -6.3      3.842      7.165
REMARK  32 active torsions:
REMARK  status: ('A' for Active; 'I' for Inactive)
REMARK    1  A    between atoms: C_5  and  C_3 
REMARK    2  A    between atoms: C_11  and  C_3 
REMARK    3  A    between atoms: C_6  and  C_4 
REMARK    4  A    between atoms: C_13  and  C_4 
REMARK    5  A    between atoms: N_26  and  C_5 
REMARK    6  A    between atoms: N_28  and  C_6 
REMARK    7  A    between atoms: C_12  and  C_7 
REMARK    8  A    between atoms: O_50  and  C_7 
REMARK    9  A    between atoms: C_23  and  C_8 
REMARK   10  A    between atoms: O_51  and  C_8 
REMARK   11  A    between atoms: C_22  and  C_11 
REMARK   12  A    between atoms: N_26  and  C_13 
REMARK   13  A    between atoms: O_37  and  C_13 
REMARK   14  A    between atoms: C_15  and  O_38 
REMARK   15  A    between atoms: C_16  and  O_53 
REMARK   16  A    between atoms: C_20  and  C_17 
REMARK   17  A    between atoms: C_23  and  C_17 
REMARK   18  A    between atoms: C_17  and  O_39 
REMARK   19  A    between atoms: N_25  and  C_18 
REMARK   20  A    between atoms: N_28  and  C_20 
REMARK   21  A    between atoms: O_40  and  C_20 
REMARK   22  A    between atoms: C_21  and  N_36 
REMARK   23  A    between atoms: O_42  and  C_22 
REMARK   24  A    between atoms: P_55  and  O_43 
REMARK   25  A    between atoms: P_55  and  O_44 
REMARK   26  A    between atoms: P_56  and  O_46 
REMARK   27  A    between atoms: P_57  and  O_48 
REMARK   28  A    between atoms: P_56  and  O_50 
REMARK   29  A    between atoms: P_57  and  O_51 
REMARK   30  A    between atoms: P_55  and  O_53 
REMARK   31  A    between atoms: P_56  and  O_54 
REMARK   32  A    between atoms: P_57  and  O_54 
ROOT
HETATM    1  O   UNK N   1      31.736  11.174   5.328  0.00  0.00    -0.631 OA
HETATM    2  P   UNK N   1      32.576  12.478   5.363  0.00  0.00     0.401 P 
ENDROOT
BRANCH   2   3
HETATM    3  O   UNK N   1      31.502  13.624   6.099  0.00  0.00    -0.307 OA
HETATM    4  H   UNK N   1      31.599  13.859   7.035  0.00  0.00     0.222 HD
ENDBRANCH   2   3
BRANCH   2   5
HETATM    5  O   UNK N   1      31.468  12.674   4.018  0.00  0.00    -0.294 OA
BRANCH   5   6
HETATM    6  C   UNK N   1      30.162  12.893   4.514  0.00  0.00     0.215 C 
BRANCH   6   7
HETATM    7  C   UNK N   1      29.325  13.829   3.648  0.00  0.00     0.180 C 
HETATM    8  C   UNK N   1      29.770  15.295   3.714  0.00  0.00     0.197 C 
HETATM    9  C   UNK N   1      28.538  15.895   3.106  0.00  0.00     0.199 C 
HETATM   10  C   UNK N   1      27.517  15.147   3.967  0.00  0.00     0.262 C 
HETATM   11  O   UNK N   1      27.948  13.795   4.003  0.00  0.00    -0.353 OA
BRANCH   8  12
HETATM   12  O   UNK N   1      30.954  15.616   3.001  0.00  0.00    -0.286 OA
BRANCH  12  13
HETATM   13  P   UNK N   1      31.867  16.808   3.923  0.00  0.00     0.391 P 
HETATM   14  O   UNK N   1      32.704  16.191   5.074  0.00  0.00    -0.632 OA
BRANCH  13  15
HETATM   15  O   UNK N   1      33.053  15.787   3.162  0.00  0.00    -0.307 OA
HETATM   16  H   UNK N   1      33.672  15.042   3.111  0.00  0.00     0.222 HD
ENDBRANCH  13  15
BRANCH  13  17
HETATM   17  O   UNK N   1      30.711  16.067   4.982  0.00  0.00    -0.307 OA
HETATM   18  H   UNK N   1      30.617  15.273   5.532  0.00  0.00     0.222 HD
ENDBRANCH  13  17
ENDBRANCH  12  13
ENDBRANCH   8  12
BRANCH   9  19
HETATM   19  O   UNK N   1      28.479  17.281   3.265  0.00  0.00    -0.388 OA
HETATM   20  H   UNK N   1      28.464  18.125   3.742  0.00  0.00     0.210 HD
ENDBRANCH   9  19
BRANCH  10  21
HETATM   21  N   UNK N   1      26.115  15.254   3.547  0.00  0.00    -0.297 N 
HETATM   22  C   UNK N   1      25.283  16.248   3.951  0.00  0.00     0.188 A 
HETATM   23  N   UNK N   1      24.054  16.140   3.373  0.00  0.00    -0.346 N 
HETATM   24  C   UNK N   1      24.148  15.048   2.600  0.00  0.00     0.122 A 
ATOM     25  HN  UNK N   1      23.246  16.751   3.499  1.00  0.00     0.167 HD
HETATM   26  C   UNK N   1      23.201  14.467   1.769  0.00  0.00     0.131 A 
HETATM   27  C   UNK N   1      25.380  14.509   2.702  0.00  0.00     0.142 A 
HETATM   28  N   UNK N   1      23.557  13.344   1.080  0.00  0.00    -0.337 N 
HETATM   29  C   UNK N   1      24.817  12.808   1.204  0.00  0.00     0.183 A 
ATOM     30  HN  UNK N   1      22.878  12.896   0.465  1.00  0.00     0.168 HD
HETATM   31  N   UNK N   1      25.744  13.399   2.021  0.00  0.00    -0.336 N 
ATOM     32  HN  UNK N   1      26.684  13.012   2.112  1.00  0.00     0.168 HD
BRANCH  26  33
HETATM   33  N   UNK N   1      21.913  15.021   1.631  0.00  0.00    -0.383 N 
HETATM   34  H   UNK N   1      21.790  15.998   1.672  0.00  0.00     0.157 HD
HETATM   35  H   UNK N   1      21.135  14.433   1.494  0.00  0.00     0.157 HD
ENDBRANCH  26  33
ENDBRANCH  10  21
ENDBRANCH   6   7
ENDBRANCH   5   6
ENDBRANCH   2   5
BRANCH   2  36
HETATM   36  O   UNK N   1      32.863  11.805   6.993  0.00  0.00    -0.195 OA
BRANCH  36  37
HETATM   37  P   UNK N   1      33.454  12.937   8.229  0.00  0.00     0.401 P 
HETATM   38  O   UNK N   1      32.360  13.771   8.953  0.00  0.00    -0.631 OA
BRANCH  37  39
HETATM   39  O   UNK N   1      33.914  14.186   7.145  0.00  0.00    -0.307 OA
HETATM   40  H   UNK N   1      33.586  14.553   6.310  0.00  0.00     0.222 HD
ENDBRANCH  37  39
BRANCH  37  41
HETATM   41  O   UNK N   1      35.024  12.836   8.974  0.00  0.00    -0.296 OA
BRANCH  41  42
HETATM   42  C   UNK N   1      34.893  12.969  10.358  0.00  0.00     0.192 C 
BRANCH  42  43
HETATM   43  C   UNK N   1      35.735  14.146  10.884  0.00  0.00     0.008 C 
HETATM   44  C   UNK N   1      36.757  14.594   9.835  0.00  0.00     0.020 C 
HETATM   45  C   UNK N   1      36.494  13.695  12.121  0.00  0.00     0.020 C 
BRANCH  43  46
HETATM   46  C   UNK N   1      34.814  15.353  11.168  0.00  0.00     0.202 C 
BRANCH  46  47
HETATM   47  C   UNK N   1      34.865  16.483  10.151  0.00  0.00     0.141 C 
BRANCH  47  48
HETATM   48  N   UNK N   1      34.124  16.474   9.090  0.00  0.00    -0.372 N 
ATOM     49  HN  UNK N   1      33.611  15.619   8.879  1.00  0.00     0.161 HD
BRANCH  48  50
HETATM   50  C   UNK N   1      33.971  17.595   8.178  0.00  0.00     0.129 C 
BRANCH  50  51
HETATM   51  C   UNK N   1      32.536  18.157   8.196  0.00  0.00     0.103 C 
BRANCH  51  52
HETATM   52  C   UNK N   1      31.452  17.138   8.432  0.00  0.00     0.112 C 
BRANCH  52  53
HETATM   53  N   UNK N   1      30.578  17.327   9.358  0.00  0.00    -0.374 N 
ATOM     54  HN  UNK N   1      30.364  16.553   9.986  1.00  0.00     0.161 HD
BRANCH  53  55
HETATM   55  C   UNK N   1      29.890  18.578   9.554  0.00  0.00     0.125 C 
BRANCH  55  56
HETATM   56  C   UNK N   1      28.485  18.455   8.981  0.00  0.00     0.068 C 
BRANCH  56  57
HETATM   57  C   UNK N   1      28.297  19.218   7.665  0.00  0.00     0.269 C 
HETATM   58  F   UNK N   1      27.199  20.053   7.759  0.00  0.00    -0.238 F 
BRANCH  57  59
HETATM   59  C   UNK N   1      28.100  18.228   6.559  0.00  0.00     0.175 C 
HETATM   60  O   UNK N   1      28.768  17.207   6.519  0.00  0.00    -0.648 OA
BRANCH  59  61
HETATM   61  O   UNK N   1      27.193  18.471   5.592  0.00  0.00    -0.774 OA
HETATM   62  H   UNK N   1      26.278  18.485   5.793  0.00  0.00     0.167 HD
ENDBRANCH  59  61
ENDBRANCH  57  59
ENDBRANCH  56  57
ENDBRANCH  55  56
ENDBRANCH  53  55
ENDBRANCH  52  53
BRANCH  52  63
HETATM   63  O   UNK N   1      31.403  16.035   7.657  0.00  0.00    -0.350 OA
HETATM   64  H   UNK N   1      31.585  15.118   7.725  0.00  0.00     0.219 HD
ENDBRANCH  52  63
ENDBRANCH  51  52
ENDBRANCH  50  51
ENDBRANCH  48  50
ENDBRANCH  47  48
BRANCH  47  65
HETATM   65  O   UNK N   1      35.688  17.531  10.351  0.00  0.00    -0.348 OA
HETATM   66  H   UNK N   1      36.100  18.111  10.961  0.00  0.00     0.219 HD
ENDBRANCH  47  65
ENDBRANCH  46  47
BRANCH  46  67
HETATM   67  O   UNK N   1      33.486  14.933  11.304  0.00  0.00    -0.387 OA
HETATM   68  H   UNK N   1      32.886  14.972  10.543  0.00  0.00     0.210 HD
ENDBRANCH  46  67
ENDBRANCH  43  46
ENDBRANCH  42  43
ENDBRANCH  41  42
ENDBRANCH  37  41
ENDBRANCH  36  37
ENDBRANCH   2  36
TORSDOF 32
ENDMDL
MODEL 3
REMARK VINA RESULT:      -6.3      3.977     12.098
REMARK  32 active torsions:
REMARK  status: ('A' for Active; 'I' for Inactive)
REMARK    1  A    between atoms: C_5  and  C_3 
REMARK    2  A    between atoms: C_11  and  C_3 
REMARK    3  A    between atoms: C_6  and  C_4 
REMARK    4  A    between atoms: C_13  and  C_4 
REMARK    5  A    between atoms: N_26  and  C_5 
REMARK    6  A    between atoms: N_28  and  C_6 
REMARK    7  A    between atoms: C_12  and  C_7 
REMARK    8  A    between atoms: O_50  and  C_7 
REMARK    9  A    between atoms: C_23  and  C_8 
REMARK   10  A    between atoms: O_51  and  C_8 
REMARK   11  A    between atoms: C_22  and  C_11 
REMARK   12  A    between atoms: N_26  and  C_13 
REMARK   13  A    between atoms: O_37  and  C_13 
REMARK   14  A    between atoms: C_15  and  O_38 
REMARK   15  A    between atoms: C_16  and  O_53 
REMARK   16  A    between atoms: C_20  and  C_17 
REMARK   17  A    between atoms: C_23  and  C_17 
REMARK   18  A    between atoms: C_17  and  O_39 
REMARK   19  A    between atoms: N_25  and  C_18 
REMARK   20  A    between atoms: N_28  and  C_20 
REMARK   21  A    between atoms: O_40  and  C_20 
REMARK   22  A    between atoms: C_21  and  N_36 
REMARK   23  A    between atoms: O_42  and  C_22 
REMARK   24  A    between atoms: P_55  and  O_43 
REMARK   25  A    between atoms: P_55  and  O_44 
REMARK   26  A    between atoms: P_56  and  O_46 
REMARK   27  A    between atoms: P_57  and  O_48 
REMARK   28  A    between atoms: P_56  and  O_50 
REMARK   29  A    between atoms: P_57  and  O_51 
REMARK   30  A    between atoms: P_55  and  O_53 
REMARK   31  A    between atoms: P_56  and  O_54 
REMARK   32  A    between atoms: P_57  and  O_54 
ROOT
HETATM    1  O   UNK N   1      35.289  17.187  10.829  0.00  0.00    -0.631 OA
HETATM    2  P   UNK N   1      34.977  15.838  10.128  0.00  0.00     0.401 P 
ENDROOT
BRANCH   2   3
HETATM    3  O   UNK N   1      33.578  15.262  10.977  0.00  0.00    -0.307 OA
HETATM    4  H   UNK N   1      33.643  14.499  11.573  0.00  0.00     0.222 HD
ENDBRANCH   2   3
BRANCH   2   5
HETATM    5  O   UNK N   1      35.765  15.408  11.634  0.00  0.00    -0.294 OA
BRANCH   5   6
HETATM    6  C   UNK N   1      35.026  14.386  12.275  0.00  0.00     0.215 C 
BRANCH   6   7
HETATM    7  C   UNK N   1      35.830  13.603  13.308  0.00  0.00     0.180 C 
HETATM    8  C   UNK N   1      36.575  12.395  12.725  0.00  0.00     0.197 C 
HETATM    9  C   UNK N   1      36.875  11.712  14.025  0.00  0.00     0.199 C 
HETATM   10  C   UNK N   1      35.465  11.795  14.614  0.00  0.00     0.262 C 
HETATM   11  O   UNK N   1      35.011  13.116  14.365  0.00  0.00    -0.353 OA
BRANCH   8  12
HETATM   12  O   UNK N   1      37.740  12.691  11.971  0.00  0.00    -0.286 OA
BRANCH  12  13
HETATM   13  P   UNK N   1      37.409  12.382  10.268  0.00  0.00     0.391 P 
HETATM   14  O   UNK N   1      38.690  12.233   9.407  0.00  0.00    -0.632 OA
BRANCH  13  15
HETATM   15  O   UNK N   1      38.222  10.962  10.858  0.00  0.00    -0.307 OA
HETATM   16  H   UNK N   1      38.804  10.461  11.450  0.00  0.00     0.222 HD
ENDBRANCH  13  15
BRANCH  13  17
HETATM   17  O   UNK N   1      38.229  13.905  10.399  0.00  0.00    -0.307 OA
HETATM   18  H   UNK N   1      38.022  14.847  10.503  0.00  0.00     0.222 HD
ENDBRANCH  13  17
ENDBRANCH  12  13
ENDBRANCH   8  12
BRANCH   9  19
HETATM   19  O   UNK N   1      37.321  10.400  13.853  0.00  0.00    -0.388 OA
HETATM   20  H   UNK N   1      37.264   9.432  13.839  0.00  0.00     0.210 HD
ENDBRANCH   9  19
BRANCH  10  21
HETATM   21  N   UNK N   1      35.333  11.439  16.031  0.00  0.00    -0.297 N 
HETATM   22  C   UNK N   1      35.273  10.161  16.484  0.00  0.00     0.188 A 
HETATM   23  N   UNK N   1      35.206  10.112  17.844  0.00  0.00    -0.346 N 
HETATM   24  C   UNK N   1      35.224  11.399  18.222  0.00  0.00     0.122 A 
ATOM     25  HN  UNK N   1      35.154   9.285  18.439  1.00  0.00     0.167 HD
HETATM   26  C   UNK N   1      35.191  11.948  19.494  0.00  0.00     0.131 A 
HETATM   27  C   UNK N   1      35.297  12.201  17.140  0.00  0.00     0.142 A 
HETATM   28  N   UNK N   1      35.223  13.308  19.606  0.00  0.00    -0.337 N 
HETATM   29  C   UNK N   1      35.291  14.107  18.489  0.00  0.00     0.183 A 
ATOM     30  HN  UNK N   1      35.196  13.738  20.530  1.00  0.00     0.168 HD
HETATM   31  N   UNK N   1      35.333  13.549  17.239  0.00  0.00    -0.336 N 
ATOM     32  HN  UNK N   1      35.392  14.135  16.406  1.00  0.00     0.168 HD
BRANCH  26  33
HETATM   33  N   UNK N   1      35.133  11.131  20.641  0.00  0.00    -0.383 N 
HETATM   34  H   UNK N   1      35.807  11.233  21.353  0.00  0.00     0.157 HD
HETATM   35  H   UNK N   1      34.419  10.459  20.732  0.00  0.00     0.157 HD
ENDBRANCH  26  33
ENDBRANCH  10  21
ENDBRANCH   6   7
ENDBRANCH   5   6
ENDBRANCH   2   5
BRANCH   2  36
HETATM   36  O   UNK N   1      33.899  16.969   9.261  0.00  0.00    -0.195 OA
BRANCH  36  37
HETATM   37  P   UNK N   1      33.869  16.838   7.489  0.00  0.00     0.401 P 
HETATM   38  O   UNK N   1      35.050  16.053   6.853  0.00  0.00    -0.631 OA
BRANCH  37  39
HETATM   39  O   UNK N   1      34.521  18.393   7.167  0.00  0.00    -0.307 OA
HETATM   40  H   UNK N   1      34.590  19.240   7.633  0.00  0.00     0.222 HD
ENDBRANCH  37  39
BRANCH  37  41
HETATM   41  O   UNK N   1      32.448  17.097   6.515  0.00  0.00    -0.296 OA
BRANCH  41  42
HETATM   42  C   UNK N   1      32.829  17.393   5.205  0.00  0.00     0.192 C 
BRANCH  42  43
HETATM   43  C   UNK N   1      32.138  16.451   4.200  0.00  0.00     0.008 C 
HETATM   44  C   UNK N   1      32.243  14.995   4.661  0.00  0.00     0.020 C 
HETATM   45  C   UNK N   1      32.830  16.573   2.853  0.00  0.00     0.020 C 
BRANCH  43  46
HETATM   46  C   UNK N   1      30.634  16.797   4.121  0.00  0.00     0.202 C 
BRANCH  46  47
HETATM   47  C   UNK N   1      29.721  16.011   5.049  0.00  0.00     0.141 C 
BRANCH  47  48
HETATM   48  N   UNK N   1      29.646  16.278   6.313  0.00  0.00    -0.372 N 
ATOM     49  HN  UNK N   1      30.471  16.097   6.884  1.00  0.00     0.161 HD
BRANCH  48  50
HETATM   50  C   UNK N   1      28.472  16.817   6.978  0.00  0.00     0.129 C 
BRANCH  50  51
HETATM   51  C   UNK N   1      28.683  18.279   7.419  0.00  0.00     0.103 C 
BRANCH  51  52
HETATM   52  C   UNK N   1      27.850  19.297   6.687  0.00  0.00     0.112 C 
BRANCH  52  53
HETATM   53  N   UNK N   1      27.977  19.441   5.415  0.00  0.00    -0.374 N 
ATOM     54  HN  UNK N   1      28.718  18.924   4.941  1.00  0.00     0.161 HD
BRANCH  53  55
HETATM   55  C   UNK N   1      27.124  20.293   4.626  0.00  0.00     0.125 C 
BRANCH  55  56
HETATM   56  C   UNK N   1      25.945  19.470   4.122  0.00  0.00     0.068 C 
BRANCH  56  57
HETATM   57  C   UNK N   1      25.304  20.041   2.853  0.00  0.00     0.269 C 
HETATM   58  F   UNK N   1      25.954  21.203   2.481  0.00  0.00    -0.238 F 
BRANCH  57  59
HETATM   59  C   UNK N   1      23.860  20.322   3.129  0.00  0.00     0.175 C 
HETATM   60  O   UNK N   1      23.365  21.389   2.803  0.00  0.00    -0.648 OA
BRANCH  59  61
HETATM   61  O   UNK N   1      23.103  19.399   3.756  0.00  0.00    -0.774 OA
HETATM   62  H   UNK N   1      23.472  18.859   4.427  0.00  0.00     0.167 HD
ENDBRANCH  59  61
ENDBRANCH  57  59
ENDBRANCH  56  57
ENDBRANCH  55  56
ENDBRANCH  53  55
ENDBRANCH  52  53
BRANCH  52  63
HETATM   63  O   UNK N   1      26.965  20.045   7.378  0.00  0.00    -0.350 OA
HETATM   64  H   UNK N   1      26.040  20.089   7.520  0.00  0.00     0.219 HD
ENDBRANCH  52  63
ENDBRANCH  51  52
ENDBRANCH  50  51
ENDBRANCH  48  50
ENDBRANCH  47  48
BRANCH  47  65
HETATM   65  O   UNK N   1      28.957  15.016   4.556  0.00  0.00    -0.348 OA
HETATM   66  H   UNK N   1      28.501  14.213   4.715  0.00  0.00     0.219 HD
ENDBRANCH  47  65
ENDBRANCH  46  47
BRANCH  46  67
HETATM   67  O   UNK N   1      30.434  18.163   4.348  0.00  0.00    -0.387 OA
HETATM   68  H   UNK N   1      31.103  18.678   4.826  0.00  0.00     0.210 HD
ENDBRANCH  46  67
ENDBRANCH  43  46
ENDBRANCH  42  43
ENDBRANCH  41  42
ENDBRANCH  37  41
ENDBRANCH  36  37
ENDBRANCH   2  36
TORSDOF 32
ENDMDL
MODEL 4
REMARK VINA RESULT:      -6.3      6.964     12.397
REMARK  32 active torsions:
REMARK  status: ('A' for Active; 'I' for Inactive)
REMARK    1  A    between atoms: C_5  and  C_3 
REMARK    2  A    between atoms: C_11  and  C_3 
REMARK    3  A    between atoms: C_6  and  C_4 
REMARK    4  A    between atoms: C_13  and  C_4 
REMARK    5  A    between atoms: N_26  and  C_5 
REMARK    6  A    between atoms: N_28  and  C_6 
REMARK    7  A    between atoms: C_12  and  C_7 
REMARK    8  A    between atoms: O_50  and  C_7 
REMARK    9  A    between atoms: C_23  and  C_8 
REMARK   10  A    between atoms: O_51  and  C_8 
REMARK   11  A    between atoms: C_22  and  C_11 
REMARK   12  A    between atoms: N_26  and  C_13 
REMARK   13  A    between atoms: O_37  and  C_13 
REMARK   14  A    between atoms: C_15  and  O_38 
REMARK   15  A    between atoms: C_16  and  O_53 
REMARK   16  A    between atoms: C_20  and  C_17 
REMARK   17  A    between atoms: C_23  and  C_17 
REMARK   18  A    between atoms: C_17  and  O_39 
REMARK   19  A    between atoms: N_25  and  C_18 
REMARK   20  A    between atoms: N_28  and  C_20 
REMARK   21  A    between atoms: O_40  and  C_20 
REMARK   22  A    between atoms: C_21  and  N_36 
REMARK   23  A    between atoms: O_42  and  C_22 
REMARK   24  A    between atoms: P_55  and  O_43 
REMARK   25  A    between atoms: P_55  and  O_44 
REMARK   26  A    between atoms: P_56  and  O_46 
REMARK   27  A    between atoms: P_57  and  O_48 
REMARK   28  A    between atoms: P_56  and  O_50 
REMARK   29  A    between atoms: P_57  and  O_51 
REMARK   30  A    between atoms: P_55  and  O_53 
REMARK   31  A    between atoms: P_56  and  O_54 
REMARK   32  A    between atoms: P_57  and  O_54 
ROOT
HETATM    1  O   UNK N   1      25.407  15.382   1.320  0.00  0.00    -0.631 OA
HETATM    2  P   UNK N   1      26.075  14.485   2.395  0.00  0.00     0.401 P 
ENDROOT
BRANCH   2   3
HETATM    3  O   UNK N   1      25.172  14.846   3.832  0.00  0.00    -0.307 OA
HETATM    4  H   UNK N   1      24.218  14.677   3.870  0.00  0.00     0.222 HD
ENDBRANCH   2   3
BRANCH   2   5
HETATM    5  O   UNK N   1      26.702  16.097   2.680  0.00  0.00    -0.294 OA
BRANCH   5   6
HETATM    6  C   UNK N   1      28.005  16.005   3.222  0.00  0.00     0.215 C 
BRANCH   6   7
HETATM    7  C   UNK N   1      28.101  16.463   4.674  0.00  0.00     0.180 C 
HETATM    8  C   UNK N   1      27.585  17.889   4.907  0.00  0.00     0.197 C 
HETATM    9  C   UNK N   1      28.191  18.090   6.263  0.00  0.00     0.199 C 
HETATM   10  C   UNK N   1      29.602  17.609   5.915  0.00  0.00     0.262 C 
HETATM   11  O   UNK N   1      29.437  16.419   5.160  0.00  0.00    -0.353 OA
BRANCH   8  12
HETATM   12  O   UNK N   1      26.175  18.046   4.899  0.00  0.00    -0.286 OA
BRANCH  12  13
HETATM   13  P   UNK N   1      25.748  19.284   3.720  0.00  0.00     0.391 P 
HETATM   14  O   UNK N   1      24.280  19.771   3.841  0.00  0.00    -0.632 OA
BRANCH  13  15
HETATM   15  O   UNK N   1      25.621  20.049   5.278  0.00  0.00    -0.307 OA
HETATM   16  H   UNK N   1      25.225  20.632   5.943  0.00  0.00     0.222 HD
ENDBRANCH  13  15
BRANCH  13  17
HETATM   17  O   UNK N   1      24.773  17.881   3.418  0.00  0.00    -0.307 OA
HETATM   18  H   UNK N   1      23.908  17.518   3.663  0.00  0.00     0.222 HD
ENDBRANCH  13  17
ENDBRANCH  12  13
ENDBRANCH   8  12
BRANCH   9  19
HETATM   19  O   UNK N   1      28.152  19.423   6.677  0.00  0.00    -0.388 OA
HETATM   20  H   UNK N   1      28.258  20.384   6.604  0.00  0.00     0.210 HD
ENDBRANCH   9  19
BRANCH  10  21
HETATM   21  N   UNK N   1      30.514  17.408   7.046  0.00  0.00    -0.297 N 
HETATM   22  C   UNK N   1      30.104  17.312   8.336  0.00  0.00     0.188 A 
HETATM   23  N   UNK N   1      31.147  17.074   9.179  0.00  0.00    -0.346 N 
HETATM   24  C   UNK N   1      32.218  17.027   8.374  0.00  0.00     0.122 A 
ATOM     25  HN  UNK N   1      31.119  16.958  10.193  1.00  0.00     0.167 HD
HETATM   26  C   UNK N   1      33.550  16.800   8.684  0.00  0.00     0.131 A 
HETATM   27  C   UNK N   1      31.847  17.230   7.093  0.00  0.00     0.142 A 
HETATM   28  N   UNK N   1      34.456  16.801   7.663  0.00  0.00    -0.337 N 
HETATM   29  C   UNK N   1      34.056  17.017   6.365  0.00  0.00     0.183 A 
ATOM     30  HN  UNK N   1      35.442  16.640   7.865  1.00  0.00     0.168 HD
HETATM   31  N   UNK N   1      32.735  17.229   6.072  0.00  0.00    -0.336 N 
ATOM     32  HN  UNK N   1      32.429  17.381   5.111  1.00  0.00     0.168 HD
BRANCH  26  33
HETATM   33  N   UNK N   1      33.961  16.568  10.012  0.00  0.00    -0.383 N 
HETATM   34  H   UNK N   1      34.727  17.062  10.385  0.00  0.00     0.157 HD
HETATM   35  H   UNK N   1      33.482  15.911  10.569  0.00  0.00     0.157 HD
ENDBRANCH  26  33
ENDBRANCH  10  21
ENDBRANCH   6   7
ENDBRANCH   5   6
ENDBRANCH   2   5
BRANCH   2  36
HETATM   36  O   UNK N   1      24.697  13.476   1.868  0.00  0.00    -0.195 OA
BRANCH  36  37
HETATM   37  P   UNK N   1      23.072  14.078   2.262  0.00  0.00     0.401 P 
HETATM   38  O   UNK N   1      21.972  12.991   2.415  0.00  0.00    -0.631 OA
BRANCH  37  39
HETATM   39  O   UNK N   1      22.636  14.523   0.664  0.00  0.00    -0.307 OA
HETATM   40  H   UNK N   1      21.998  15.122   0.246  0.00  0.00     0.222 HD
ENDBRANCH  37  39
BRANCH  37  41
HETATM   41  O   UNK N   1      22.751  15.658   2.922  0.00  0.00    -0.296 OA
BRANCH  41  42
HETATM   42  C   UNK N   1      21.784  15.555   3.924  0.00  0.00     0.192 C 
BRANCH  42  43
HETATM   43  C   UNK N   1      20.652  16.578   3.709  0.00  0.00     0.008 C 
HETATM   44  C   UNK N   1      19.374  16.131   4.424  0.00  0.00     0.020 C 
HETATM   45  C   UNK N   1      20.354  16.677   2.223  0.00  0.00     0.020 C 
BRANCH  43  46
HETATM   46  C   UNK N   1      21.063  17.937   4.318  0.00  0.00     0.202 C 
BRANCH  46  47
HETATM   47  C   UNK N   1      21.777  17.877   5.660  0.00  0.00     0.141 C 
BRANCH  47  48
HETATM   48  N   UNK N   1      21.152  17.560   6.747  0.00  0.00    -0.372 N 
ATOM     49  HN  UNK N   1      20.431  18.199   7.082  1.00  0.00     0.161 HD
BRANCH  48  50
HETATM   50  C   UNK N   1      21.403  16.360   7.527  0.00  0.00     0.129 C 
BRANCH  50  51
HETATM   51  C   UNK N   1      20.220  16.022   8.455  0.00  0.00     0.103 C 
BRANCH  51  52
HETATM   52  C   UNK N   1      20.321  14.697   9.165  0.00  0.00     0.112 C 
BRANCH  52  53
HETATM   53  N   UNK N   1      21.409  14.013   9.105  0.00  0.00    -0.374 N 
ATOM     54  HN  UNK N   1      22.287  14.481   9.329  1.00  0.00     0.161 HD
BRANCH  53  55
HETATM   55  C   UNK N   1      21.450  12.620   8.739  0.00  0.00     0.125 C 
BRANCH  55  56
HETATM   56  C   UNK N   1      22.897  12.147   8.787  0.00  0.00     0.068 C 
BRANCH  56  57
HETATM   57  C   UNK N   1      23.733  12.855   9.858  0.00  0.00     0.269 C 
HETATM   58  F   UNK N   1      25.013  13.075   9.385  0.00  0.00    -0.238 F 
BRANCH  57  59
HETATM   59  C   UNK N   1      23.775  11.994  11.082  0.00  0.00     0.175 C 
HETATM   60  O   UNK N   1      24.726  12.051  11.845  0.00  0.00    -0.648 OA
BRANCH  59  61
HETATM   61  O   UNK N   1      22.766  11.137  11.337  0.00  0.00    -0.774 OA
HETATM   62  H   UNK N   1      22.865  10.467  11.985  0.00  0.00     0.167 HD
ENDBRANCH  59  61
ENDBRANCH  57  59
ENDBRANCH  56  57
ENDBRANCH  55  56
ENDBRANCH  53  55
ENDBRANCH  52  53
BRANCH  52  63
HETATM   63  O   UNK N   1      19.263  14.244   9.869  0.00  0.00    -0.350 OA
HETATM   64  H   UNK N   1      19.083  13.627  10.551  0.00  0.00     0.219 HD
ENDBRANCH  52  63
ENDBRANCH  51  52
ENDBRANCH  50  51
ENDBRANCH  48  50
ENDBRANCH  47  48
BRANCH  47  65
HETATM   65  O   UNK N   1      23.095  18.147   5.731  0.00  0.00    -0.348 OA
HETATM   66  H   UNK N   1      23.909  18.016   6.177  0.00  0.00     0.219 HD
ENDBRANCH  47  65
ENDBRANCH  46  47
BRANCH  46  67
HETATM   67  O   UNK N   1      21.860  18.654   3.419  0.00  0.00    -0.387 OA
HETATM   68  H   UNK N   1      22.445  18.181   2.806  0.00  0.00     0.210 HD
ENDBRANCH  46  67
ENDBRANCH  43  46
ENDBRANCH  42  43
ENDBRANCH  41  42
ENDBRANCH  37  41
ENDBRANCH  36  37
ENDBRANCH   2  36
TORSDOF 32
ENDMDL
MODEL 5
REMARK VINA RESULT:      -6.2      2.611      4.586
REMARK  32 active torsions:
REMARK  status: ('A' for Active; 'I' for Inactive)
REMARK    1  A    between atoms: C_5  and  C_3 
REMARK    2  A    between atoms: C_11  and  C_3 
REMARK    3  A    between atoms: C_6  and  C_4 
REMARK    4  A    between atoms: C_13  and  C_4 
REMARK    5  A    between atoms: N_26  and  C_5 
REMARK    6  A    between atoms: N_28  and  C_6 
REMARK    7  A    between atoms: C_12  and  C_7 
REMARK    8  A    between atoms: O_50  and  C_7 
REMARK    9  A    between atoms: C_23  and  C_8 
REMARK   10  A    between atoms: O_51  and  C_8 
REMARK   11  A    between atoms: C_22  and  C_11 
REMARK   12  A    between atoms: N_26  and  C_13 
REMARK   13  A    between atoms: O_37  and  C_13 
REMARK   14  A    between atoms: C_15  and  O_38 
REMARK   15  A    between atoms: C_16  and  O_53 
REMARK   16  A    between atoms: C_20  and  C_17 
REMARK   17  A    between atoms: C_23  and  C_17 
REMARK   18  A    between atoms: C_17  and  O_39 
REMARK   19  A    between atoms: N_25  and  C_18 
REMARK   20  A    between atoms: N_28  and  C_20 
REMARK   21  A    between atoms: O_40  and  C_20 
REMARK   22  A    between atoms: C_21  and  N_36 
REMARK   23  A    between atoms: O_42  and  C_22 
REMARK   24  A    between atoms: P_55  and  O_43 
REMARK   25  A    between atoms: P_55  and  O_44 
REMARK   26  A    between atoms: P_56  and  O_46 
REMARK   27  A    between atoms: P_57  and  O_48 
REMARK   28  A    between atoms: P_56  and  O_50 
REMARK   29  A    between atoms: P_57  and  O_51 
REMARK   30  A    between atoms: P_55  and  O_53 
REMARK   31  A    between atoms: P_56  and  O_54 
REMARK   32  A    between atoms: P_57  and  O_54 
ROOT
HETATM    1  O   UNK N   1      33.682  15.241   7.530  0.00  0.00    -0.631 OA
HETATM    2  P   UNK N   1      33.366  16.498   8.384  0.00  0.00     0.401 P 
ENDROOT
BRANCH   2   3
HETATM    3  O   UNK N   1      32.822  15.830   9.890  0.00  0.00    -0.307 OA
HETATM    4  H   UNK N   1      32.904  14.879  10.066  0.00  0.00     0.222 HD
ENDBRANCH   2   3
BRANCH   2   5
HETATM    5  O   UNK N   1      31.809  15.902   7.840  0.00  0.00    -0.294 OA
BRANCH   5   6
HETATM    6  C   UNK N   1      31.010  16.990   7.421  0.00  0.00     0.215 C 
BRANCH   6   7
HETATM    7  C   UNK N   1      29.988  16.625   6.349  0.00  0.00     0.180 C 
HETATM    8  C   UNK N   1      30.513  16.780   4.916  0.00  0.00     0.197 C 
HETATM    9  C   UNK N   1      29.186  16.731   4.222  0.00  0.00     0.199 C 
HETATM   10  C   UNK N   1      28.467  17.749   5.111  0.00  0.00     0.262 C 
HETATM   11  O   UNK N   1      28.807  17.413   6.447  0.00  0.00    -0.353 OA
BRANCH   8  12
HETATM   12  O   UNK N   1      31.410  15.774   4.473  0.00  0.00    -0.286 OA
BRANCH  12  13
HETATM   13  P   UNK N   1      32.956  16.522   4.081  0.00  0.00     0.391 P 
HETATM   14  O   UNK N   1      33.798  15.705   3.067  0.00  0.00    -0.632 OA
BRANCH  13  15
HETATM   15  O   UNK N   1      32.045  16.509   2.598  0.00  0.00    -0.307 OA
HETATM   16  H   UNK N   1      31.847  16.763   1.684  0.00  0.00     0.222 HD
ENDBRANCH  13  15
BRANCH  13  17
HETATM   17  O   UNK N   1      33.266  15.005   4.862  0.00  0.00    -0.307 OA
HETATM   18  H   UNK N   1      33.060  14.063   4.751  0.00  0.00     0.222 HD
ENDBRANCH  13  17
ENDBRANCH  12  13
ENDBRANCH   8  12
BRANCH   9  19
HETATM   19  O   UNK N   1      29.263  17.129   2.885  0.00  0.00    -0.388 OA
HETATM   20  H   UNK N   1      29.027  17.624   2.086  0.00  0.00     0.210 HD
ENDBRANCH   9  19
BRANCH  10  21
HETATM   21  N   UNK N   1      27.015  17.851   4.934  0.00  0.00    -0.297 N 
HETATM   22  C   UNK N   1      26.123  17.016   5.528  0.00  0.00     0.188 A 
HETATM   23  N   UNK N   1      24.839  17.364   5.238  0.00  0.00    -0.346 N 
HETATM   24  C   UNK N   1      24.959  18.439   4.444  0.00  0.00     0.122 A 
ATOM     25  HN  UNK N   1      23.981  16.910   5.553  1.00  0.00     0.167 HD
HETATM   26  C   UNK N   1      23.975  19.219   3.857  0.00  0.00     0.131 A 
HETATM   27  C   UNK N   1      26.261  18.735   4.254  0.00  0.00     0.142 A 
HETATM   28  N   UNK N   1      24.370  20.273   3.085  0.00  0.00    -0.337 N 
HETATM   29  C   UNK N   1      25.703  20.553   2.899  0.00  0.00     0.183 A 
ATOM     30  HN  UNK N   1      23.667  20.861   2.638  1.00  0.00     0.168 HD
HETATM   31  N   UNK N   1      26.664  19.778   3.495  0.00  0.00    -0.336 N 
ATOM     32  HN  UNK N   1      27.655  19.984   3.369  1.00  0.00     0.168 HD
BRANCH  26  33
HETATM   33  N   UNK N   1      22.608  18.942   4.054  0.00  0.00    -0.383 N 
HETATM   34  H   UNK N   1      22.210  18.125   3.672  0.00  0.00     0.157 HD
HETATM   35  H   UNK N   1      22.049  19.563   4.575  0.00  0.00     0.157 HD
ENDBRANCH  26  33
ENDBRANCH  10  21
ENDBRANCH   6   7
ENDBRANCH   5   6
ENDBRANCH   2   5
BRANCH   2  36
HETATM   36  O   UNK N   1      35.034  16.109   8.893  0.00  0.00    -0.195 OA
BRANCH  36  37
HETATM   37  P   UNK N   1      35.307  15.910  10.638  0.00  0.00     0.401 P 
HETATM   38  O   UNK N   1      35.223  17.212  11.483  0.00  0.00    -0.631 OA
BRANCH  37  39
HETATM   39  O   UNK N   1      37.021  15.877  10.565  0.00  0.00    -0.307 OA
HETATM   40  H   UNK N   1      37.758  16.120  11.146  0.00  0.00     0.222 HD
ENDBRANCH  37  39
BRANCH  37  41
HETATM   41  O   UNK N   1      35.190  14.388  11.477  0.00  0.00    -0.296 OA
BRANCH  41  42
HETATM   42  C   UNK N   1      36.459  13.993  11.905  0.00  0.00     0.192 C 
BRANCH  42  43
HETATM   43  C   UNK N   1      36.429  12.567  12.486  0.00  0.00     0.008 C 
HETATM   44  C   UNK N   1      36.839  12.574  13.962  0.00  0.00     0.020 C 
HETATM   45  C   UNK N   1      37.420  11.704  11.724  0.00  0.00     0.020 C 
BRANCH  43  46
HETATM   46  C   UNK N   1      34.990  12.011  12.415  0.00  0.00     0.202 C 
BRANCH  46  47
HETATM   47  C   UNK N   1      34.866  10.504  12.249  0.00  0.00     0.141 C 
BRANCH  47  48
HETATM   48  N   UNK N   1      34.545   9.971  11.115  0.00  0.00    -0.372 N 
ATOM     49  HN  UNK N   1      35.230   9.361  10.668  1.00  0.00     0.161 HD
BRANCH  48  50
HETATM   50  C   UNK N   1      33.280  10.177  10.431  0.00  0.00     0.129 C 
BRANCH  50  51
HETATM   51  C   UNK N   1      33.478  10.802   9.036  0.00  0.00     0.103 C 
BRANCH  51  52
HETATM   52  C   UNK N   1      33.537  12.306   9.009  0.00  0.00     0.112 C 
BRANCH  52  53
HETATM   53  N   UNK N   1      34.663  12.905   8.838  0.00  0.00    -0.374 N 
ATOM     54  HN  UNK N   1      34.711  13.907   9.022  1.00  0.00     0.161 HD
BRANCH  53  55
HETATM   55  C   UNK N   1      35.860  12.231   8.403  0.00  0.00     0.125 C 
BRANCH  55  56
HETATM   56  C   UNK N   1      36.944  13.274   8.158  0.00  0.00     0.068 C 
BRANCH  56  57
HETATM   57  C   UNK N   1      37.421  13.324   6.703  0.00  0.00     0.269 C 
HETATM   58  F   UNK N   1      38.593  14.052   6.619  0.00  0.00    -0.238 F 
BRANCH  57  59
HETATM   59  C   UNK N   1      36.354  13.962   5.869  0.00  0.00     0.175 C 
HETATM   60  O   UNK N   1      35.761  13.312   5.023  0.00  0.00    -0.648 OA
BRANCH  59  61
HETATM   61  O   UNK N   1      36.058  15.266   6.038  0.00  0.00    -0.774 OA
HETATM   62  H   UNK N   1      36.467  15.918   5.504  0.00  0.00     0.167 HD
ENDBRANCH  59  61
ENDBRANCH  57  59
ENDBRANCH  56  57
ENDBRANCH  55  56
ENDBRANCH  53  55
ENDBRANCH  52  53
BRANCH  52  63
HETATM   63  O   UNK N   1      32.399  13.014   9.156  0.00  0.00    -0.350 OA
HETATM   64  H   UNK N   1      31.791  13.489   8.623  0.00  0.00     0.219 HD
ENDBRANCH  52  63
ENDBRANCH  51  52
ENDBRANCH  50  51
ENDBRANCH  48  50
ENDBRANCH  47  48
BRANCH  47  65
HETATM   65  O   UNK N   1      35.104   9.691  13.297  0.00  0.00    -0.348 OA
HETATM   66  H   UNK N   1      34.764   9.244  14.048  0.00  0.00     0.219 HD
ENDBRANCH  47  65
ENDBRANCH  46  47
BRANCH  46  67
HETATM   67  O   UNK N   1      34.261  12.397  13.546  0.00  0.00    -0.387 OA
HETATM   68  H   UNK N   1      33.640  13.141  13.491  0.00  0.00     0.210 HD
ENDBRANCH  46  67
ENDBRANCH  43  46
ENDBRANCH  42  43
ENDBRANCH  41  42
ENDBRANCH  37  41
ENDBRANCH  36  37
ENDBRANCH   2  36
TORSDOF 32
ENDMDL
MODEL 6
REMARK VINA RESULT:      -6.2      6.661     11.302
REMARK  32 active torsions:
REMARK  status: ('A' for Active; 'I' for Inactive)
REMARK    1  A    between atoms: C_5  and  C_3 
REMARK    2  A    between atoms: C_11  and  C_3 
REMARK    3  A    between atoms: C_6  and  C_4 
REMARK    4  A    between atoms: C_13  and  C_4 
REMARK    5  A    between atoms: N_26  and  C_5 
REMARK    6  A    between atoms: N_28  and  C_6 
REMARK    7  A    between atoms: C_12  and  C_7 
REMARK    8  A    between atoms: O_50  and  C_7 
REMARK    9  A    between atoms: C_23  and  C_8 
REMARK   10  A    between atoms: O_51  and  C_8 
REMARK   11  A    between atoms: C_22  and  C_11 
REMARK   12  A    between atoms: N_26  and  C_13 
REMARK   13  A    between atoms: O_37  and  C_13 
REMARK   14  A    between atoms: C_15  and  O_38 
REMARK   15  A    between atoms: C_16  and  O_53 
REMARK   16  A    between atoms: C_20  and  C_17 
REMARK   17  A    between atoms: C_23  and  C_17 
REMARK   18  A    between atoms: C_17  and  O_39 
REMARK   19  A    between atoms: N_25  and  C_18 
REMARK   20  A    between atoms: N_28  and  C_20 
REMARK   21  A    between atoms: O_40  and  C_20 
REMARK   22  A    between atoms: C_21  and  N_36 
REMARK   23  A    between atoms: O_42  and  C_22 
REMARK   24  A    between atoms: P_55  and  O_43 
REMARK   25  A    between atoms: P_55  and  O_44 
REMARK   26  A    between atoms: P_56  and  O_46 
REMARK   27  A    between atoms: P_57  and  O_48 
REMARK   28  A    between atoms: P_56  and  O_50 
REMARK   29  A    between atoms: P_57  and  O_51 
REMARK   30  A    between atoms: P_55  and  O_53 
REMARK   31  A    between atoms: P_56  and  O_54 
REMARK   32  A    between atoms: P_57  and  O_54 
ROOT
HETATM    1  O   UNK N   1      26.350  16.320   5.451  0.00  0.00    -0.631 OA
HETATM    2  P   UNK N   1      26.191  15.492   4.149  0.00  0.00     0.401 P 
ENDROOT
BRANCH   2   3
HETATM    3  O   UNK N   1      25.642  16.666   2.995  0.00  0.00    -0.307 OA
HETATM    4  H   UNK N   1      25.587  16.442   2.053  0.00  0.00     0.222 HD
ENDBRANCH   2   3
BRANCH   2   5
HETATM    5  O   UNK N   1      24.564  15.703   4.768  0.00  0.00    -0.294 OA
BRANCH   5   6
HETATM    6  C   UNK N   1      23.748  14.640   4.315  0.00  0.00     0.215 C 
BRANCH   6   7
HETATM    7  C   UNK N   1      22.609  14.292   5.268  0.00  0.00     0.180 C 
HETATM    8  C   UNK N   1      21.524  15.373   5.356  0.00  0.00     0.197 C 
HETATM    9  C   UNK N   1      20.860  14.874   6.603  0.00  0.00     0.199 C 
HETATM   10  C   UNK N   1      22.130  14.698   7.439  0.00  0.00     0.262 C 
HETATM   11  O   UNK N   1      23.072  14.058   6.592  0.00  0.00    -0.353 OA
BRANCH   8  12
HETATM   12  O   UNK N   1      20.640  15.455   4.250  0.00  0.00    -0.286 OA
BRANCH  12  13
HETATM   13  P   UNK N   1      20.561  17.130   3.707  0.00  0.00     0.391 P 
HETATM   14  O   UNK N   1      19.641  17.338   2.477  0.00  0.00    -0.632 OA
BRANCH  13  15
HETATM   15  O   UNK N   1      18.953  16.727   4.235  0.00  0.00    -0.307 OA
HETATM   16  H   UNK N   1      18.262  16.535   4.888  0.00  0.00     0.222 HD
ENDBRANCH  13  15
BRANCH  13  17
HETATM   17  O   UNK N   1      21.267  16.177   2.441  0.00  0.00    -0.307 OA
HETATM   18  H   UNK N   1      21.189  16.051   1.483  0.00  0.00     0.222 HD
ENDBRANCH  13  17
ENDBRANCH  12  13
ENDBRANCH   8  12
BRANCH   9  19
HETATM   19  O   UNK N   1      19.970  15.802   7.147  0.00  0.00    -0.388 OA
HETATM   20  H   UNK N   1      19.204  16.115   7.653  0.00  0.00     0.210 HD
ENDBRANCH   9  19
BRANCH  10  21
HETATM   21  N   UNK N   1      21.975  13.981   8.709  0.00  0.00    -0.297 N 
HETATM   22  C   UNK N   1      20.773  13.729   9.289  0.00  0.00     0.188 A 
HETATM   23  N   UNK N   1      20.910  13.003  10.433  0.00  0.00    -0.346 N 
HETATM   24  C   UNK N   1      22.233  12.814  10.549  0.00  0.00     0.122 A 
ATOM     25  HN  UNK N   1      20.173  12.677  11.060  1.00  0.00     0.167 HD
HETATM   26  C   UNK N   1      22.948  12.130  11.520  0.00  0.00     0.131 A 
HETATM   27  C   UNK N   1      22.879  13.401   9.520  0.00  0.00     0.142 A 
HETATM   28  N   UNK N   1      24.307  12.084  11.401  0.00  0.00    -0.337 N 
HETATM   29  C   UNK N   1      24.945  12.696  10.347  0.00  0.00     0.183 A 
ATOM     30  HN  UNK N   1      24.857  11.591  12.103  1.00  0.00     0.168 HD
HETATM   31  N   UNK N   1      24.224  13.359   9.390  0.00  0.00    -0.336 N 
ATOM     32  HN  UNK N   1      24.689  13.808   8.601  1.00  0.00     0.168 HD
BRANCH  26  33
HETATM   33  N   UNK N   1      22.296  11.493  12.594  0.00  0.00    -0.383 N 
HETATM   34  H   UNK N   1      22.590  10.600  12.890  0.00  0.00     0.157 HD
HETATM   35  H   UNK N   1      21.547  11.940  13.051  0.00  0.00     0.157 HD
ENDBRANCH  26  33
ENDBRANCH  10  21
ENDBRANCH   6   7
ENDBRANCH   5   6
ENDBRANCH   2   5
BRANCH   2  36
HETATM   36  O   UNK N   1      27.831  16.176   3.960  0.00  0.00    -0.195 OA
BRANCH  36  37
HETATM   37  P   UNK N   1      29.180  15.182   4.554  0.00  0.00     0.401 P 
HETATM   38  O   UNK N   1      28.820  13.717   4.929  0.00  0.00    -0.631 OA
BRANCH  37  39
HETATM   39  O   UNK N   1      29.159  15.769   6.166  0.00  0.00    -0.307 OA
HETATM   40  H   UNK N   1      29.331  16.611   6.614  0.00  0.00     0.222 HD
ENDBRANCH  37  39
BRANCH  37  41
HETATM   41  O   UNK N   1      30.860  15.568   4.304  0.00  0.00    -0.296 OA
BRANCH  41  42
HETATM   42  C   UNK N   1      31.252  16.553   5.213  0.00  0.00     0.192 C 
BRANCH  42  43
HETATM   43  C   UNK N   1      32.651  16.254   5.785  0.00  0.00     0.008 C 
HETATM   44  C   UNK N   1      33.466  17.543   5.926  0.00  0.00     0.020 C 
HETATM   45  C   UNK N   1      33.387  15.331   4.829  0.00  0.00     0.020 C 
BRANCH  43  46
HETATM   46  C   UNK N   1      32.511  15.647   7.198  0.00  0.00     0.202 C 
BRANCH  46  47
HETATM   47  C   UNK N   1      31.992  16.585   8.278  0.00  0.00     0.141 C 
BRANCH  47  48
HETATM   48  N   UNK N   1      30.727  16.807   8.432  0.00  0.00    -0.372 N 
ATOM     49  HN  UNK N   1      30.104  16.000   8.457  1.00  0.00     0.161 HD
BRANCH  48  50
HETATM   50  C   UNK N   1      30.128  18.123   8.572  0.00  0.00     0.129 C 
BRANCH  50  51
HETATM   51  C   UNK N   1      28.588  18.055   8.588  0.00  0.00     0.103 C 
BRANCH  51  52
HETATM   52  C   UNK N   1      27.900  18.864   7.520  0.00  0.00     0.112 C 
BRANCH  52  53
HETATM   53  N   UNK N   1      28.084  18.585   6.278  0.00  0.00    -0.374 N 
ATOM     54  HN  UNK N   1      28.044  17.607   5.991  1.00  0.00     0.161 HD
BRANCH  53  55
HETATM   55  C   UNK N   1      28.342  19.583   5.272  0.00  0.00     0.125 C 
BRANCH  55  56
HETATM   56  C   UNK N   1      27.308  19.436   4.164  0.00  0.00     0.068 C 
BRANCH  56  57
HETATM   57  C   UNK N   1      26.364  20.638   4.050  0.00  0.00     0.269 C 
HETATM   58  F   UNK N   1      25.900  20.990   5.303  0.00  0.00    -0.238 F 
BRANCH  57  59
HETATM   59  C   UNK N   1      25.219  20.267   3.159  0.00  0.00     0.175 C 
HETATM   60  O   UNK N   1      25.037  20.860   2.109  0.00  0.00    -0.648 OA
BRANCH  59  61
HETATM   61  O   UNK N   1      24.372  19.285   3.527  0.00  0.00    -0.774 OA
HETATM   62  H   UNK N   1      24.676  18.565   4.043  0.00  0.00     0.167 HD
ENDBRANCH  59  61
ENDBRANCH  57  59
ENDBRANCH  56  57
ENDBRANCH  55  56
ENDBRANCH  53  55
ENDBRANCH  52  53
BRANCH  52  63
HETATM   63  O   UNK N   1      27.083  19.874   7.883  0.00  0.00    -0.350 OA
HETATM   64  H   UNK N   1      27.139  20.788   8.084  0.00  0.00     0.219 HD
ENDBRANCH  52  63
ENDBRANCH  51  52
ENDBRANCH  50  51
ENDBRANCH  48  50
ENDBRANCH  47  48
BRANCH  47  65
HETATM   65  O   UNK N   1      32.858  17.198   9.108  0.00  0.00    -0.348 OA
HETATM   66  H   UNK N   1      33.012  17.883   9.728  0.00  0.00     0.219 HD
ENDBRANCH  47  65
ENDBRANCH  46  47
BRANCH  46  67
HETATM   67  O   UNK N   1      31.695  14.511   7.163  0.00  0.00    -0.387 OA
HETATM   68  H   UNK N   1      31.228  14.224   7.964  0.00  0.00     0.210 HD
ENDBRANCH  46  67
ENDBRANCH  43  46
ENDBRANCH  42  43
ENDBRANCH  41  42
ENDBRANCH  37  41
ENDBRANCH  36  37
ENDBRANCH   2  36
TORSDOF 32
ENDMDL
MODEL 7
REMARK VINA RESULT:      -6.2      2.644      4.515
REMARK  32 active torsions:
REMARK  status: ('A' for Active; 'I' for Inactive)
REMARK    1  A    between atoms: C_5  and  C_3 
REMARK    2  A    between atoms: C_11  and  C_3 
REMARK    3  A    between atoms: C_6  and  C_4 
REMARK    4  A    between atoms: C_13  and  C_4 
REMARK    5  A    between atoms: N_26  and  C_5 
REMARK    6  A    between atoms: N_28  and  C_6 
REMARK    7  A    between atoms: C_12  and  C_7 
REMARK    8  A    between atoms: O_50  and  C_7 
REMARK    9  A    between atoms: C_23  and  C_8 
REMARK   10  A    between atoms: O_51  and  C_8 
REMARK   11  A    between atoms: C_22  and  C_11 
REMARK   12  A    between atoms: N_26  and  C_13 
REMARK   13  A    between atoms: O_37  and  C_13 
REMARK   14  A    between atoms: C_15  and  O_38 
REMARK   15  A    between atoms: C_16  and  O_53 
REMARK   16  A    between atoms: C_20  and  C_17 
REMARK   17  A    between atoms: C_23  and  C_17 
REMARK   18  A    between atoms: C_17  and  O_39 
REMARK   19  A    between atoms: N_25  and  C_18 
REMARK   20  A    between atoms: N_28  and  C_20 
REMARK   21  A    between atoms: O_40  and  C_20 
REMARK   22  A    between atoms: C_21  and  N_36 
REMARK   23  A    between atoms: O_42  and  C_22 
REMARK   24  A    between atoms: P_55  and  O_43 
REMARK   25  A    between atoms: P_55  and  O_44 
REMARK   26  A    between atoms: P_56  and  O_46 
REMARK   27  A    between atoms: P_57  and  O_48 
REMARK   28  A    between atoms: P_56  and  O_50 
REMARK   29  A    between atoms: P_57  and  O_51 
REMARK   30  A    between atoms: P_55  and  O_53 
REMARK   31  A    between atoms: P_56  and  O_54 
REMARK   32  A    between atoms: P_57  and  O_54 
ROOT
HETATM    1  O   UNK N   1      35.181  18.929   8.446  0.00  0.00    -0.631 OA
HETATM    2  P   UNK N   1      34.336  17.627   8.441  0.00  0.00     0.401 P 
ENDROOT
BRANCH   2   3
HETATM    3  O   UNK N   1      35.372  16.483   7.649  0.00  0.00    -0.307 OA
HETATM    4  H   UNK N   1      36.334  16.525   7.768  0.00  0.00     0.222 HD
ENDBRANCH   2   3
BRANCH   2   5
HETATM    5  O   UNK N   1      34.211  18.269   6.814  0.00  0.00    -0.294 OA
BRANCH   5   6
HETATM    6  C   UNK N   1      33.696  17.272   5.954  0.00  0.00     0.215 C 
BRANCH   6   7
HETATM    7  C   UNK N   1      32.330  16.740   6.379  0.00  0.00     0.180 C 
HETATM    8  C   UNK N   1      32.090  15.275   5.993  0.00  0.00     0.197 C 
HETATM    9  C   UNK N   1      30.605  15.267   6.199  0.00  0.00     0.199 C 
HETATM   10  C   UNK N   1      30.296  16.544   5.414  0.00  0.00     0.262 C 
HETATM   11  O   UNK N   1      31.265  17.499   5.820  0.00  0.00    -0.353 OA
BRANCH   8  12
HETATM   12  O   UNK N   1      32.766  14.308   6.781  0.00  0.00    -0.286 OA
BRANCH  12  13
HETATM   13  P   UNK N   1      33.646  13.219   5.712  0.00  0.00     0.391 P 
HETATM   14  O   UNK N   1      34.266  12.001   6.445  0.00  0.00    -0.632 OA
BRANCH  13  15
HETATM   15  O   UNK N   1      32.307  12.296   6.330  0.00  0.00    -0.307 OA
HETATM   16  H   UNK N   1      31.472  12.165   6.805  0.00  0.00     0.222 HD
ENDBRANCH  13  15
BRANCH  13  17
HETATM   17  O   UNK N   1      34.768  13.893   6.849  0.00  0.00    -0.307 OA
HETATM   18  H   UNK N   1      35.034  14.758   7.199  0.00  0.00     0.222 HD
ENDBRANCH  13  17
ENDBRANCH  12  13
ENDBRANCH   8  12
BRANCH   9  19
HETATM   19  O   UNK N   1      29.994  14.132   5.661  0.00  0.00    -0.388 OA
HETATM   20  H   UNK N   1      29.282  13.495   5.496  0.00  0.00     0.210 HD
ENDBRANCH   9  19
BRANCH  10  21
HETATM   21  N   UNK N   1      28.933  17.070   5.546  0.00  0.00    -0.297 N 
HETATM   22  C   UNK N   1      28.535  17.885   6.557  0.00  0.00     0.188 A 
HETATM   23  N   UNK N   1      27.236  18.269   6.411  0.00  0.00    -0.346 N 
HETATM   24  C   UNK N   1      26.839  17.667   5.280  0.00  0.00     0.122 A 
ATOM     25  HN  UNK N   1      26.691  18.876   7.023  1.00  0.00     0.167 HD
HETATM   26  C   UNK N   1      25.612  17.712   4.637  0.00  0.00     0.131 A 
HETATM   27  C   UNK N   1      27.850  16.943   4.757  0.00  0.00     0.142 A 
HETATM   28  N   UNK N   1      25.467  17.000   3.482  0.00  0.00    -0.337 N 
HETATM   29  C   UNK N   1      26.509  16.264   2.970  0.00  0.00     0.183 A 
ATOM     30  HN  UNK N   1      24.573  17.014   2.991  1.00  0.00     0.168 HD
HETATM   31  N   UNK N   1      27.720  16.238   3.612  0.00  0.00    -0.336 N 
ATOM     32  HN  UNK N   1      28.500  15.701   3.234  1.00  0.00     0.168 HD
BRANCH  26  33
HETATM   33  N   UNK N   1      24.545  18.475   5.153  0.00  0.00    -0.383 N 
HETATM   34  H   UNK N   1      24.117  18.213   6.001  0.00  0.00     0.157 HD
HETATM   35  H   UNK N   1      24.227  19.271   4.667  0.00  0.00     0.157 HD
ENDBRANCH  26  33
ENDBRANCH  10  21
ENDBRANCH   6   7
ENDBRANCH   5   6
ENDBRANCH   2   5
BRANCH   2  36
HETATM   36  O   UNK N   1      35.340  17.417   9.905  0.00  0.00    -0.195 OA
BRANCH  36  37
HETATM   37  P   UNK N   1      35.479  15.764  10.542  0.00  0.00     0.401 P 
HETATM   38  O   UNK N   1      35.795  14.663   9.490  0.00  0.00    -0.631 OA
BRANCH  37  39
HETATM   39  O   UNK N   1      33.796  15.438  10.612  0.00  0.00    -0.307 OA
HETATM   40  H   UNK N   1      33.074  15.310   9.978  0.00  0.00     0.222 HD
ENDBRANCH  37  39
BRANCH  37  41
HETATM   41  O   UNK N   1      35.749  15.384  12.220  0.00  0.00    -0.296 OA
BRANCH  41  42
HETATM   42  C   UNK N   1      35.250  14.110  12.496  0.00  0.00     0.192 C 
BRANCH  42  43
HETATM   43  C   UNK N   1      35.928  13.506  13.740  0.00  0.00     0.008 C 
HETATM   44  C   UNK N   1      34.883  12.966  14.720  0.00  0.00     0.020 C 
HETATM   45  C   UNK N   1      36.721  14.593  14.445  0.00  0.00     0.020 C 
BRANCH  43  46
HETATM   46  C   UNK N   1      36.814  12.314  13.317  0.00  0.00     0.202 C 
BRANCH  46  47
HETATM   47  C   UNK N   1      37.266  12.302  11.864  0.00  0.00     0.141 C 
BRANCH  47  48
HETATM   48  N   UNK N   1      36.980  11.320  11.072  0.00  0.00    -0.372 N 
ATOM     49  HN  UNK N   1      37.467  10.436  11.219  1.00  0.00     0.161 HD
BRANCH  48  50
HETATM   50  C   UNK N   1      36.013  11.383   9.989  0.00  0.00     0.129 C 
BRANCH  50  51
HETATM   51  C   UNK N   1      34.572  11.169  10.493  0.00  0.00     0.103 C 
BRANCH  51  52
HETATM   52  C   UNK N   1      33.490  11.630   9.553  0.00  0.00     0.112 C 
BRANCH  52  53
HETATM   53  N   UNK N   1      32.721  10.770   8.982  0.00  0.00    -0.374 N 
ATOM     54  HN  UNK N   1      31.842  11.097   8.582  1.00  0.00     0.161 HD
BRANCH  53  55
HETATM   55  C   UNK N   1      33.042   9.369   8.875  0.00  0.00     0.125 C 
BRANCH  55  56
HETATM   56  C   UNK N   1      31.935   8.565   9.544  0.00  0.00     0.068 C 
BRANCH  56  57
HETATM   57  C   UNK N   1      31.332   7.488   8.635  0.00  0.00     0.269 C 
HETATM   58  F   UNK N   1      30.947   8.050   7.433  0.00  0.00    -0.238 F 
BRANCH  57  59
HETATM   59  C   UNK N   1      30.150   6.883   9.326  0.00  0.00     0.175 C 
HETATM   60  O   UNK N   1      29.942   5.682   9.256  0.00  0.00    -0.648 OA
BRANCH  59  61
HETATM   61  O   UNK N   1      29.298   7.668  10.015  0.00  0.00    -0.774 OA
HETATM   62  H   UNK N   1      28.694   7.292  10.625  0.00  0.00     0.167 HD
ENDBRANCH  59  61
ENDBRANCH  57  59
ENDBRANCH  56  57
ENDBRANCH  55  56
ENDBRANCH  53  55
ENDBRANCH  52  53
BRANCH  52  63
HETATM   63  O   UNK N   1      33.330  12.950   9.327  0.00  0.00    -0.350 OA
HETATM   64  H   UNK N   1      32.722  13.523   8.904  0.00  0.00     0.219 HD
ENDBRANCH  52  63
ENDBRANCH  51  52
ENDBRANCH  50  51
ENDBRANCH  48  50
ENDBRANCH  47  48
BRANCH  47  65
HETATM   65  O   UNK N   1      37.973  13.339  11.372  0.00  0.00    -0.348 OA
HETATM   66  H   UNK N   1      38.727  13.631  10.900  0.00  0.00     0.219 HD
ENDBRANCH  47  65
ENDBRANCH  46  47
BRANCH  46  67
HETATM   67  O   UNK N   1      37.945  12.230  14.137  0.00  0.00    -0.387 OA
HETATM   68  H   UNK N   1      38.282  11.363  14.411  0.00  0.00     0.210 HD
ENDBRANCH  46  67
ENDBRANCH  43  46
ENDBRANCH  42  43
ENDBRANCH  41  42
ENDBRANCH  37  41
ENDBRANCH  36  37
ENDBRANCH   2  36
TORSDOF 32
ENDMDL
MODEL 8
REMARK VINA RESULT:      -6.1      7.345     12.197
REMARK  32 active torsions:
REMARK  status: ('A' for Active; 'I' for Inactive)
REMARK    1  A    between atoms: C_5  and  C_3 
REMARK    2  A    between atoms: C_11  and  C_3 
REMARK    3  A    between atoms: C_6  and  C_4 
REMARK    4  A    between atoms: C_13  and  C_4 
REMARK    5  A    between atoms: N_26  and  C_5 
REMARK    6  A    between atoms: N_28  and  C_6 
REMARK    7  A    between atoms: C_12  and  C_7 
REMARK    8  A    between atoms: O_50  and  C_7 
REMARK    9  A    between atoms: C_23  and  C_8 
REMARK   10  A    between atoms: O_51  and  C_8 
REMARK   11  A    between atoms: C_22  and  C_11 
REMARK   12  A    between atoms: N_26  and  C_13 
REMARK   13  A    between atoms: O_37  and  C_13 
REMARK   14  A    between atoms: C_15  and  O_38 
REMARK   15  A    between atoms: C_16  and  O_53 
REMARK   16  A    between atoms: C_20  and  C_17 
REMARK   17  A    between atoms: C_23  and  C_17 
REMARK   18  A    between atoms: C_17  and  O_39 
REMARK   19  A    between atoms: N_25  and  C_18 
REMARK   20  A    between atoms: N_28  and  C_20 
REMARK   21  A    between atoms: O_40  and  C_20 
REMARK   22  A    between atoms: C_21  and  N_36 
REMARK   23  A    between atoms: O_42  and  C_22 
REMARK   24  A    between atoms: P_55  and  O_43 
REMARK   25  A    between atoms: P_55  and  O_44 
REMARK   26  A    between atoms: P_56  and  O_46 
REMARK   27  A    between atoms: P_57  and  O_48 
REMARK   28  A    between atoms: P_56  and  O_50 
REMARK   29  A    between atoms: P_57  and  O_51 
REMARK   30  A    between atoms: P_55  and  O_53 
REMARK   31  A    between atoms: P_56  and  O_54 
REMARK   32  A    between atoms: P_57  and  O_54 
ROOT
HETATM    1  O   UNK N   1      21.109  17.854   3.138  0.00  0.00    -0.631 OA
HETATM    2  P   UNK N   1      20.002  17.559   2.092  0.00  0.00     0.401 P 
ENDROOT
BRANCH   2   3
HETATM    3  O   UNK N   1      18.651  18.481   2.671  0.00  0.00    -0.307 OA
HETATM    4  H   UNK N   1      17.796  18.052   2.834  0.00  0.00     0.222 HD
ENDBRANCH   2   3
BRANCH   2   5
HETATM    5  O   UNK N   1      19.604  16.566   3.481  0.00  0.00    -0.294 OA
BRANCH   5   6
HETATM    6  C   UNK N   1      20.624  16.689   4.453  0.00  0.00     0.215 C 
BRANCH   6   7
HETATM    7  C   UNK N   1      21.187  15.352   4.926  0.00  0.00     0.180 C 
HETATM    8  C   UNK N   1      21.212  15.196   6.451  0.00  0.00     0.197 C 
HETATM    9  C   UNK N   1      22.143  14.023   6.507  0.00  0.00     0.199 C 
HETATM   10  C   UNK N   1      23.213  14.583   5.566  0.00  0.00     0.262 C 
HETATM   11  O   UNK N   1      22.515  15.139   4.463  0.00  0.00    -0.353 OA
BRANCH   8  12
HETATM   12  O   UNK N   1      19.960  14.943   7.069  0.00  0.00    -0.286 OA
BRANCH  12  13
HETATM   13  P   UNK N   1      19.876  15.852   8.576  0.00  0.00     0.391 P 
HETATM   14  O   UNK N   1      18.567  15.608   9.371  0.00  0.00    -0.632 OA
BRANCH  13  15
HETATM   15  O   UNK N   1      19.896  14.174   9.035  0.00  0.00    -0.307 OA
HETATM   16  H   UNK N   1      19.907  13.217   8.878  0.00  0.00     0.222 HD
ENDBRANCH  13  15
BRANCH  13  17
HETATM   17  O   UNK N   1      18.600  16.398   7.536  0.00  0.00    -0.307 OA
HETATM   18  H   UNK N   1      18.094  17.205   7.350  0.00  0.00     0.222 HD
ENDBRANCH  13  17
ENDBRANCH  12  13
ENDBRANCH   8  12
BRANCH   9  19
HETATM   19  O   UNK N   1      22.620  13.775   7.795  0.00  0.00    -0.388 OA
HETATM   20  H   UNK N   1      22.798  13.954   8.731  0.00  0.00     0.210 HD
ENDBRANCH   9  19
BRANCH  10  21
HETATM   21  N   UNK N   1      24.248  13.639   5.129  0.00  0.00    -0.297 N 
HETATM   22  C   UNK N   1      24.495  12.455   5.744  0.00  0.00     0.188 A 
HETATM   23  N   UNK N   1      25.469  11.750   5.105  0.00  0.00    -0.346 N 
HETATM   24  C   UNK N   1      25.822  12.534   4.075  0.00  0.00     0.122 A 
ATOM     25  HN  UNK N   1      25.846  10.835   5.353  1.00  0.00     0.167 HD
HETATM   26  C   UNK N   1      26.762  12.318   3.079  0.00  0.00     0.131 A 
HETATM   27  C   UNK N   1      25.096  13.671   4.085  0.00  0.00     0.142 A 
HETATM   28  N   UNK N   1      26.928  13.288   2.133  0.00  0.00    -0.337 N 
HETATM   29  C   UNK N   1      26.181  14.442   2.166  0.00  0.00     0.183 A 
ATOM     30  HN  UNK N   1      27.615  13.155   1.392  1.00  0.00     0.168 HD
HETATM   31  N   UNK N   1      25.249  14.636   3.151  0.00  0.00    -0.336 N 
ATOM     32  HN  UNK N   1      24.685  15.486   3.178  1.00  0.00     0.168 HD
BRANCH  26  33
HETATM   33  N   UNK N   1      27.520  11.131   3.036  0.00  0.00    -0.383 N 
HETATM   34  H   UNK N   1      27.288  10.421   2.393  0.00  0.00     0.157 HD
HETATM   35  H   UNK N   1      28.283  11.010   3.648  0.00  0.00     0.157 HD
ENDBRANCH  26  33
ENDBRANCH  10  21
ENDBRANCH   6   7
ENDBRANCH   5   6
ENDBRANCH   2   5
BRANCH   2  36
HETATM   36  O   UNK N   1      20.695  19.089   1.483  0.00  0.00    -0.195 OA
BRANCH  36  37
HETATM   37  P   UNK N   1      21.342  20.210   2.700  0.00  0.00     0.401 P 
HETATM   38  O   UNK N   1      20.382  20.554   3.874  0.00  0.00    -0.631 OA
BRANCH  37  39
HETATM   39  O   UNK N   1      21.039  21.651   1.820  0.00  0.00    -0.307 OA
HETATM   40  H   UNK N   1      21.513  22.198   1.174  0.00  0.00     0.222 HD
ENDBRANCH  37  39
BRANCH  37  41
HETATM   41  O   UNK N   1      23.038  20.549   2.912  0.00  0.00    -0.296 OA
BRANCH  41  42
HETATM   42  C   UNK N   1      23.592  19.619   3.794  0.00  0.00     0.192 C 
BRANCH  42  43
HETATM   43  C   UNK N   1      25.131  19.674   3.763  0.00  0.00     0.008 C 
HETATM   44  C   UNK N   1      25.681  20.220   5.083  0.00  0.00     0.020 C 
HETATM   45  C   UNK N   1      25.568  20.607   2.646  0.00  0.00     0.020 C 
BRANCH  43  46
HETATM   46  C   UNK N   1      25.694  18.247   3.589  0.00  0.00     0.202 C 
BRANCH  46  47
HETATM   47  C   UNK N   1      27.099  18.016   4.127  0.00  0.00     0.141 C 
BRANCH  47  48
HETATM   48  N   UNK N   1      27.356  17.063   4.963  0.00  0.00    -0.372 N 
ATOM     49  HN  UNK N   1      27.673  16.172   4.582  1.00  0.00     0.161 HD
BRANCH  48  50
HETATM   50  C   UNK N   1      27.227  17.170   6.407  0.00  0.00     0.129 C 
BRANCH  50  51
HETATM   51  C   UNK N   1      28.321  18.069   7.015  0.00  0.00     0.103 C 
BRANCH  51  52
HETATM   52  C   UNK N   1      28.585  17.853   8.482  0.00  0.00     0.112 C 
BRANCH  52  53
HETATM   53  N   UNK N   1      29.751  17.485   8.882  0.00  0.00    -0.374 N 
ATOM     54  HN  UNK N   1      29.811  16.769   9.606  1.00  0.00     0.161 HD
BRANCH  53  55
HETATM   55  C   UNK N   1      30.977  18.030   8.357  0.00  0.00     0.125 C 
BRANCH  55  56
HETATM   56  C   UNK N   1      31.665  16.962   7.517  0.00  0.00     0.068 C 
BRANCH  56  57
HETATM   57  C   UNK N   1      33.121  16.713   7.924  0.00  0.00     0.269 C 
HETATM   58  F   UNK N   1      33.237  16.757   9.301  0.00  0.00    -0.238 F 
BRANCH  57  59
HETATM   59  C   UNK N   1      33.982  17.766   7.299  0.00  0.00     0.175 C 
HETATM   60  O   UNK N   1      34.486  18.640   7.986  0.00  0.00    -0.648 OA
BRANCH  59  61
HETATM   61  O   UNK N   1      34.189  17.762   5.967  0.00  0.00    -0.774 OA
HETATM   62  H   UNK N   1      34.000  18.524   5.455  0.00  0.00     0.167 HD
ENDBRANCH  59  61
ENDBRANCH  57  59
ENDBRANCH  56  57
ENDBRANCH  55  56
ENDBRANCH  53  55
ENDBRANCH  52  53
BRANCH  52  63
HETATM   63  O   UNK N   1      27.589  18.060   9.369  0.00  0.00    -0.350 OA
HETATM   64  H   UNK N   1      27.467  18.080  10.298  0.00  0.00     0.219 HD
ENDBRANCH  52  63
ENDBRANCH  51  52
ENDBRANCH  50  51
ENDBRANCH  48  50
ENDBRANCH  47  48
BRANCH  47  65
HETATM   65  O   UNK N   1      28.111  18.808   3.723  0.00  0.00    -0.348 OA
HETATM   66  H   UNK N   1      28.880  19.292   3.954  0.00  0.00     0.219 HD
ENDBRANCH  47  65
ENDBRANCH  46  47
BRANCH  46  67
HETATM   67  O   UNK N   1      24.834  17.308   4.169  0.00  0.00    -0.387 OA
HETATM   68  H   UNK N   1      25.092  16.373   4.210  0.00  0.00     0.210 HD
ENDBRANCH  46  67
ENDBRANCH  43  46
ENDBRANCH  42  43
ENDBRANCH  41  42
ENDBRANCH  37  41
ENDBRANCH  36  37
ENDBRANCH   2  36
TORSDOF 32
ENDMDL
MODEL 9
REMARK VINA RESULT:      -6.1      2.966     10.816
REMARK  32 active torsions:
REMARK  status: ('A' for Active; 'I' for Inactive)
REMARK    1  A    between atoms: C_5  and  C_3 
REMARK    2  A    between atoms: C_11  and  C_3 
REMARK    3  A    between atoms: C_6  and  C_4 
REMARK    4  A    between atoms: C_13  and  C_4 
REMARK    5  A    between atoms: N_26  and  C_5 
REMARK    6  A    between atoms: N_28  and  C_6 
REMARK    7  A    between atoms: C_12  and  C_7 
REMARK    8  A    between atoms: O_50  and  C_7 
REMARK    9  A    between atoms: C_23  and  C_8 
REMARK   10  A    between atoms: O_51  and  C_8 
REMARK   11  A    between atoms: C_22  and  C_11 
REMARK   12  A    between atoms: N_26  and  C_13 
REMARK   13  A    between atoms: O_37  and  C_13 
REMARK   14  A    between atoms: C_15  and  O_38 
REMARK   15  A    between atoms: C_16  and  O_53 
REMARK   16  A    between atoms: C_20  and  C_17 
REMARK   17  A    between atoms: C_23  and  C_17 
REMARK   18  A    between atoms: C_17  and  O_39 
REMARK   19  A    between atoms: N_25  and  C_18 
REMARK   20  A    between atoms: N_28  and  C_20 
REMARK   21  A    between atoms: O_40  and  C_20 
REMARK   22  A    between atoms: C_21  and  N_36 
REMARK   23  A    between atoms: O_42  and  C_22 
REMARK   24  A    between atoms: P_55  and  O_43 
REMARK   25  A    between atoms: P_55  and  O_44 
REMARK   26  A    between atoms: P_56  and  O_46 
REMARK   27  A    between atoms: P_57  and  O_48 
REMARK   28  A    between atoms: P_56  and  O_50 
REMARK   29  A    between atoms: P_57  and  O_51 
REMARK   30  A    between atoms: P_55  and  O_53 
REMARK   31  A    between atoms: P_56  and  O_54 
REMARK   32  A    between atoms: P_57  and  O_54 
ROOT
HETATM    1  O   UNK N   1      34.231  15.311  11.202  0.00  0.00    -0.631 OA
HETATM    2  P   UNK N   1      35.432  16.096  10.612  0.00  0.00     0.401 P 
ENDROOT
BRANCH   2   3
HETATM    3  O   UNK N   1      35.737  15.288   9.107  0.00  0.00    -0.307 OA
HETATM    4  H   UNK N   1      35.436  14.376   8.968  0.00  0.00     0.222 HD
ENDBRANCH   2   3
BRANCH   2   5
HETATM    5  O   UNK N   1      36.118  14.619  11.262  0.00  0.00    -0.294 OA
BRANCH   5   6
HETATM    6  C   UNK N   1      36.045  14.649  12.673  0.00  0.00     0.215 C 
BRANCH   6   7
HETATM    7  C   UNK N   1      36.132  13.271  13.322  0.00  0.00     0.180 C 
HETATM    8  C   UNK N   1      35.299  12.198  12.609  0.00  0.00     0.197 C 
HETATM    9  C   UNK N   1      35.321  11.179  13.708  0.00  0.00     0.199 C 
HETATM   10  C   UNK N   1      34.926  12.121  14.849  0.00  0.00     0.262 C 
HETATM   11  O   UNK N   1      35.708  13.293  14.680  0.00  0.00    -0.353 OA
BRANCH   8  12
HETATM   12  O   UNK N   1      35.831  11.710  11.388  0.00  0.00    -0.286 OA
BRANCH  12  13
HETATM   13  P   UNK N   1      34.536  11.622  10.197  0.00  0.00     0.391 P 
HETATM   14  O   UNK N   1      34.938  10.872   8.901  0.00  0.00    -0.632 OA
BRANCH  13  15
HETATM   15  O   UNK N   1      34.857   9.979  10.672  0.00  0.00    -0.307 OA
HETATM   16  H   UNK N   1      34.652   9.037  10.782  0.00  0.00     0.222 HD
ENDBRANCH  13  15
BRANCH  13  17
HETATM   17  O   UNK N   1      35.839  12.545   9.520  0.00  0.00    -0.307 OA
HETATM   18  H   UNK N   1      36.171  13.456   9.514  0.00  0.00     0.222 HD
ENDBRANCH  13  17
ENDBRANCH  12  13
ENDBRANCH   8  12
BRANCH   9  19
HETATM   19  O   UNK N   1      34.401  10.149  13.505  0.00  0.00    -0.388 OA
HETATM   20  H   UNK N   1      33.588   9.637  13.640  0.00  0.00     0.210 HD
ENDBRANCH   9  19
BRANCH  10  21
HETATM   21  N   UNK N   1      35.053  11.580  16.207  0.00  0.00    -0.297 N 
HETATM   22  C   UNK N   1      35.180  10.257  16.481  0.00  0.00     0.188 A 
HETATM   23  N   UNK N   1      35.333  10.033  17.816  0.00  0.00    -0.346 N 
HETATM   24  C   UNK N   1      35.295  11.257  18.363  0.00  0.00     0.122 A 
ATOM     25  HN  UNK N   1      35.450   9.137  18.292  1.00  0.00     0.167 HD
HETATM   26  C   UNK N   1      35.413  11.638  19.691  0.00  0.00     0.131 A 
HETATM   27  C   UNK N   1      35.123  12.190  17.404  0.00  0.00     0.142 A 
HETATM   28  N   UNK N   1      35.341  12.969  19.985  0.00  0.00    -0.337 N 
HETATM   29  C   UNK N   1      35.159  13.902  18.992  0.00  0.00     0.183 A 
ATOM     30  HN  UNK N   1      35.422  13.275  20.954  1.00  0.00     0.168 HD
HETATM   31  N   UNK N   1      35.054  13.511  17.683  0.00  0.00    -0.336 N 
ATOM     32  HN  UNK N   1      34.927  14.199  16.940  1.00  0.00     0.168 HD
BRANCH  26  33
HETATM   33  N   UNK N   1      35.611  10.684  20.709  0.00  0.00    -0.383 N 
HETATM   34  H   UNK N   1      36.520  10.365  20.916  0.00  0.00     0.157 HD
HETATM   35  H   UNK N   1      34.841  10.335  21.214  0.00  0.00     0.157 HD
ENDBRANCH  26  33
ENDBRANCH  10  21
ENDBRANCH   6   7
ENDBRANCH   5   6
ENDBRANCH   2   5
BRANCH   2  36
HETATM   36  O   UNK N   1      34.040  16.891   9.823  0.00  0.00    -0.195 OA
BRANCH  36  37
HETATM   37  P   UNK N   1      34.354  17.677   8.260  0.00  0.00     0.401 P 
HETATM   38  O   UNK N   1      35.014  19.083   8.336  0.00  0.00    -0.631 OA
BRANCH  37  39
HETATM   39  O   UNK N   1      32.760  18.263   8.013  0.00  0.00    -0.307 OA
HETATM   40  H   UNK N   1      32.288  18.758   7.325  0.00  0.00     0.222 HD
ENDBRANCH  37  39
BRANCH  37  41
HETATM   41  O   UNK N   1      34.413  16.833   6.737  0.00  0.00    -0.296 OA
BRANCH  41  42
HETATM   42  C   UNK N   1      33.739  17.577   5.766  0.00  0.00     0.192 C 
BRANCH  42  43
HETATM   43  C   UNK N   1      32.834  16.674   4.906  0.00  0.00     0.008 C 
HETATM   44  C   UNK N   1      33.320  15.223   4.945  0.00  0.00     0.020 C 
HETATM   45  C   UNK N   1      32.888  17.153   3.465  0.00  0.00     0.020 C 
BRANCH  43  46
HETATM   46  C   UNK N   1      31.399  16.689   5.476  0.00  0.00     0.202 C 
BRANCH  46  47
HETATM   47  C   UNK N   1      30.295  16.278   4.513  0.00  0.00     0.141 C 
BRANCH  47  48
HETATM   48  N   UNK N   1      29.571  17.156   3.898  0.00  0.00    -0.372 N 
ATOM     49  HN  UNK N   1      30.029  18.009   3.580  1.00  0.00     0.161 HD
BRANCH  48  50
HETATM   50  C   UNK N   1      28.150  17.014   3.626  0.00  0.00     0.129 C 
BRANCH  50  51
HETATM   51  C   UNK N   1      27.338  18.196   4.190  0.00  0.00     0.103 C 
BRANCH  51  52
HETATM   52  C   UNK N   1      26.625  17.923   5.488  0.00  0.00     0.112 C 
BRANCH  52  53
HETATM   53  N   UNK N   1      27.135  18.318   6.601  0.00  0.00    -0.374 N 
ATOM     54  HN  UNK N   1      26.859  19.231   6.963  1.00  0.00     0.161 HD
BRANCH  53  55
HETATM   55  C   UNK N   1      28.074  17.536   7.364  0.00  0.00     0.125 C 
BRANCH  55  56
HETATM   56  C   UNK N   1      29.175  18.457   7.873  0.00  0.00     0.068 C 
BRANCH  56  57
HETATM   57  C   UNK N   1      29.294  18.476   9.400  0.00  0.00     0.269 C 
HETATM   58  F   UNK N   1      30.222  19.425   9.787  0.00  0.00    -0.238 F 
BRANCH  57  59
HETATM   59  C   UNK N   1      29.719  17.118   9.866  0.00  0.00     0.175 C 
HETATM   60  O   UNK N   1      29.007  16.472  10.617  0.00  0.00    -0.648 OA
BRANCH  59  61
HETATM   61  O   UNK N   1      30.904  16.611   9.469  0.00  0.00    -0.774 OA
HETATM   62  H   UNK N   1      31.674  16.743   9.987  0.00  0.00     0.167 HD
ENDBRANCH  59  61
ENDBRANCH  57  59
ENDBRANCH  56  57
ENDBRANCH  55  56
ENDBRANCH  53  55
ENDBRANCH  52  53
BRANCH  52  63
HETATM   63  O   UNK N   1      25.444  17.270   5.467  0.00  0.00    -0.350 OA
HETATM   64  H   UNK N   1      24.885  16.845   4.846  0.00  0.00     0.219 HD
ENDBRANCH  52  63
ENDBRANCH  51  52
ENDBRANCH  50  51
ENDBRANCH  48  50
ENDBRANCH  47  48
BRANCH  47  65
HETATM   65  O   UNK N   1      30.062  14.972   4.277  0.00  0.00    -0.348 OA
HETATM   66  H   UNK N   1      30.287  14.081   4.457  0.00  0.00     0.219 HD
ENDBRANCH  47  65
ENDBRANCH  46  47
BRANCH  46  67
HETATM   67  O   UNK N   1      31.318  15.884   6.618  0.00  0.00    -0.387 OA
HETATM   68  H   UNK N   1      30.474  15.472   6.862  0.00  0.00     0.210 HD
ENDBRANCH  46  67
ENDBRANCH  43  46
ENDBRANCH  42  43
ENDBRANCH  41  42
ENDBRANCH  37  41
ENDBRANCH  36  37
ENDBRANCH   2  36
TORSDOF 32
ENDMDL
