REMARK  8 active torsions:
REMARK  status: ('A' for Active; 'I' for Inactive)
REMARK    1  A    between atoms: C_3  and  C_2 
REMARK    2  A    between atoms: C_4  and  C_2 
REMARK    3  A    between atoms: C_6  and  C_3 
REMARK    4  A    between atoms: N_11  and  C_4 
REMARK    5  A    between atoms: N_11  and  C_5 
REMARK    6  A    between atoms: C_7  and  C_6 
REMARK    7  A    between atoms: C_6  and  N_10 
REMARK    8  A    between atoms: O_13  and  C_7 
ROOT
HETATM    1  C   UNK N   1      -0.266   1.788   0.853  0.00  0.00     0.022 C 
ENDROOT
BRANCH   1   2
HETATM    2  C   UNK N   1      -1.577   2.551   0.653  0.00  0.00     0.037 C 
BRANCH   2   3
HETATM    3  C   UNK N   1      -2.634   1.846  -0.202  0.00  0.00     0.173 C 
BRANCH   3   4
HETATM    4  C   UNK N   1      -3.984   2.447   0.097  0.00  0.00     0.163 C 
HETATM    5  O   UNK N   1      -4.889   1.763   0.531  0.00  0.00    -0.648 OA
BRANCH   4   6
HETATM    6  O   UNK N   1      -4.186   3.767  -0.109  0.00  0.00    -0.775 OA
HETATM    7  H   UNK N   1      -3.464   4.347  -0.251  0.00  0.00     0.167 HD
ENDBRANCH   4   6
ENDBRANCH   3   4
BRANCH   3   8
HETATM    8  N   UNK N   1      -2.654   0.415   0.087  0.00  0.00    -0.418 N 
HETATM    9  H   UNK N   1      -3.526  -0.073   0.289  0.00  0.00     0.150 HD
HETATM   10  H   UNK N   1      -1.778  -0.107   0.087  0.00  0.00     0.150 HD
ENDBRANCH   3   8
ENDBRANCH   2   3
ENDBRANCH   1   2
BRANCH   1  11
HETATM   11  C   UNK N   1       0.356   1.298  -0.444  0.00  0.00     0.121 C 
BRANCH  11  12
HETATM   12  N   UNK N   1       1.701   0.837  -0.192  0.00  0.00    -0.380 N 
HETATM   13  H   UNK N   1       1.871  -0.131  -0.124  0.00  0.00     0.160 HD
BRANCH  12  14
HETATM   14  C   UNK N   1       2.784   1.742  -0.040  0.00  0.00     0.066 C 
HETATM   15  C   UNK N   1       4.156   1.218   0.204  0.00  0.00     0.088 C 
HETATM   16  N   UNK N   1       2.601   3.006  -0.158  0.00  0.00    -0.389 N 
HETATM   17  H   UNK N   1       3.371   3.613  -0.249  0.00  0.00     0.157 HD
ATOM     18  HN  UNK N   1       1.654   3.385  -0.158  1.00  0.00     0.157 HD
ENDBRANCH  12  14
ENDBRANCH  11  12
ENDBRANCH   1  11
TORSDOF 8
