MODEL 1
REMARK VINA RESULT:      -5.9      0.000      0.000
REMARK  23 active torsions:
REMARK  status: ('A' for Active; 'I' for Inactive)
REMARK    1  A    between atoms: C_1  and  N_35 
REMARK    2  A    between atoms: C_3  and  O_6 
REMARK    3  A    between atoms: C_4  and  C_33 
REMARK    4  A    between atoms: C_5  and  O_34 
REMARK    5  A    between atoms: N_9  and  C_7 
REMARK    6  A    between atoms: C_7  and  C_8 
REMARK    7  A    between atoms: C_8  and  S_12 
REMARK       I    between atoms: C_10  and  N_9 
REMARK    8  A    between atoms: C_14  and  C_10 
REMARK    9  A    between atoms: C_13  and  N_15 
REMARK   10  A    between atoms: C_14  and  C_13 
REMARK       I    between atoms: C_17  and  N_15 
REMARK   11  A    between atoms: C_17  and  C_22 
REMARK   12  A    between atoms: C_20  and  C_18 
REMARK   13  A    between atoms: C_18  and  O_24 
REMARK   14  A    between atoms: C_22  and  C_20 
REMARK   15  A    between atoms: C_22  and  O_23 
REMARK   16  A    between atoms: O_24  and  P_31 
REMARK   17  A    between atoms: P_31  and  O_25 
REMARK   18  A    between atoms: O_25  and  P_32 
REMARK   19  A    between atoms: P_32  and  O_26 
REMARK   20  A    between atoms: C_33  and  O_26 
REMARK   21  A    between atoms: P_31  and  O_28 
REMARK   22  A    between atoms: P_32  and  O_30 
REMARK   23  A    between atoms: N_47  and  C_43 
ROOT
HETATM    1  O   UNK N   1      20.327  16.902   9.054  0.00  0.00    -0.631 OA
HETATM    2  P   UNK N   1      20.258  15.679   8.098  0.00  0.00     0.401 P 
ENDROOT
BRANCH   2   3
HETATM    3  O   UNK N   1      18.866  15.854   7.068  0.00  0.00    -0.195 OA
BRANCH   3   4
HETATM    4  P   UNK N   1      19.506  15.582   5.492  0.00  0.00     0.401 P 
HETATM    5  O   UNK N   1      17.975  15.755   5.278  0.00  0.00    -0.631 OA
BRANCH   4   6
HETATM    6  O   UNK N   1      19.117  14.328   4.374  0.00  0.00    -0.296 OA
BRANCH   6   7
HETATM    7  C   UNK N   1      20.122  14.468   3.407  0.00  0.00     0.192 C 
BRANCH   7   8
HETATM    8  C   UNK N   1      20.884  13.172   3.177  0.00  0.00     0.009 C 
HETATM    9  C   UNK N   1      20.007  11.964   3.494  0.00  0.00     0.020 C 
HETATM   10  C   UNK N   1      21.212  13.126   1.696  0.00  0.00     0.020 C 
BRANCH   8  11
HETATM   11  C   UNK N   1      22.205  13.141   3.975  0.00  0.00     0.219 C 
BRANCH  11  12
HETATM   12  C   UNK N   1      23.120  14.326   3.754  0.00  0.00     0.247 C 
HETATM   13  N   UNK N   1      23.074  15.378   4.609  0.00  0.00    -0.358 N 
HETATM   14  H   UNK N   1      22.448  15.344   5.367  0.00  0.00     0.162 HD
HETATM   15  O   UNK N   1      23.865  14.351   2.784  0.00  0.00    -0.271 OA
BRANCH  13  16
HETATM   16  C   UNK N   1      23.907  16.542   4.448  0.00  0.00     0.132 C 
BRANCH  16  17
HETATM   17  C   UNK N   1      23.086  17.659   3.833  0.00  0.00     0.122 C 
BRANCH  17  18
HETATM   18  C   UNK N   1      22.172  18.276   4.849  0.00  0.00     0.219 C 
HETATM   19  N   UNK N   1      21.167  19.114   4.495  0.00  0.00    -0.360 N 
HETATM   20  H   UNK N   1      20.595  19.489   5.203  0.00  0.00     0.162 HD
HETATM   21  O   UNK N   1      22.358  18.034   6.030  0.00  0.00    -0.274 OA
BRANCH  19  22
HETATM   22  C   UNK N   1      20.898  19.481   3.128  0.00  0.00     0.132 C 
BRANCH  22  23
HETATM   23  C   UNK N   1      19.633  18.787   2.668  0.00  0.00     0.090 C 
BRANCH  23  24
HETATM   24  S   UNK N   1      20.045  17.525   1.434  0.00  0.00    -0.181 SA
HETATM   25  H   UNK N   1      19.079  16.709   0.933  0.00  0.00     0.101 HD
ENDBRANCH  23  24
ENDBRANCH  22  23
ENDBRANCH  19  22
ENDBRANCH  17  18
ENDBRANCH  16  17
ENDBRANCH  13  16
ENDBRANCH  11  12
BRANCH  11  26
HETATM   26  O   UNK N   1      21.936  12.976   5.339  0.00  0.00    -0.385 OA
HETATM   27  H   UNK N   1      22.331  12.293   5.902  0.00  0.00     0.210 HD
ENDBRANCH  11  26
ENDBRANCH   8  11
ENDBRANCH   7   8
ENDBRANCH   6   7
ENDBRANCH   4   6
BRANCH   4  28
HETATM   28  O   UNK N   1      19.704  14.091   6.368  0.00  0.00    -0.307 OA
HETATM   29  H   UNK N   1      19.975  14.030   7.297  0.00  0.00     0.222 HD
ENDBRANCH   4  28
ENDBRANCH   3   4
ENDBRANCH   2   3
BRANCH   2  30
HETATM   30  O   UNK N   1      20.078  14.276   9.091  0.00  0.00    -0.294 OA
BRANCH  30  31
HETATM   31  C   UNK N   1      21.306  14.171   9.744  0.00  0.00     0.215 C 
BRANCH  31  32
HETATM   32  C   UNK N   1      21.950  12.827   9.417  0.00  0.00     0.180 C 
HETATM   33  O   UNK N   1      22.639  12.947   8.200  0.00  0.00    -0.353 OA
HETATM   34  C   UNK N   1      23.875  13.429   8.620  0.00  0.00     0.262 C 
HETATM   35  C   UNK N   1      24.278  12.520   9.748  0.00  0.00     0.198 C 
HETATM   36  C   UNK N   1      22.970  12.473  10.493  0.00  0.00     0.182 C 
BRANCH  34  37
HETATM   37  N   UNK N   1      24.798  13.560   7.499  0.00  0.00    -0.297 N 
HETATM   38  C   UNK N   1      25.079  12.727   6.490  0.00  0.00     0.142 A 
HETATM   39  C   UNK N   1      26.042  13.271   5.721  0.00  0.00     0.122 A 
HETATM   40  N   UNK N   1      24.543  11.510   6.229  0.00  0.00    -0.336 N 
HETATM   41  C   UNK N   1      26.526  12.590   4.623  0.00  0.00     0.131 A 
HETATM   42  N   UNK N   1      26.397  14.472   6.212  0.00  0.00    -0.346 N 
HETATM   43  N   UNK N   1      25.995  11.361   4.347  0.00  0.00    -0.337 N 
HETATM   44  C   UNK N   1      25.009  10.823   5.141  0.00  0.00     0.183 A 
ATOM     45  HN  UNK N   1      26.334  10.835   3.542  1.00  0.00     0.168 HD
HETATM   46  C   UNK N   1      25.615  14.628   7.314  0.00  0.00     0.188 A 
ATOM     47  HN  UNK N   1      27.094  15.119   5.843  1.00  0.00     0.167 HD
ATOM     48  HN  UNK N   1      23.814  11.117   6.826  1.00  0.00     0.168 HD
BRANCH  41  49
HETATM   49  N   UNK N   1      27.545  13.133   3.814  0.00  0.00    -0.383 N 
HETATM   50  H   UNK N   1      27.655  14.108   3.748  0.00  0.00     0.157 HD
HETATM   51  H   UNK N   1      28.146  12.534   3.314  0.00  0.00     0.157 HD
ENDBRANCH  41  49
ENDBRANCH  34  37
BRANCH  35  52
HETATM   52  O   UNK N   1      25.268  13.098  10.540  0.00  0.00    -0.388 OA
HETATM   53  H   UNK N   1      26.000  12.959  11.161  0.00  0.00     0.210 HD
ENDBRANCH  35  52
BRANCH  36  54
HETATM   54  O   UNK N   1      22.742  11.185  10.973  0.00  0.00    -0.390 OA
HETATM   55  H   UNK N   1      22.835  10.761  11.841  0.00  0.00     0.210 HD
ENDBRANCH  36  54
ENDBRANCH  31  32
ENDBRANCH  30  31
ENDBRANCH   2  30
BRANCH   2  56
HETATM   56  O   UNK N   1      21.740  15.615   7.191  0.00  0.00    -0.307 OA
HETATM   57  H   UNK N   1      22.442  15.222   6.651  0.00  0.00     0.222 HD
ENDBRANCH   2  56
TORSDOF 23
ENDMDL
MODEL 2
REMARK VINA RESULT:      -5.7      1.878      2.832
REMARK  23 active torsions:
REMARK  status: ('A' for Active; 'I' for Inactive)
REMARK    1  A    between atoms: C_1  and  N_35 
REMARK    2  A    between atoms: C_3  and  O_6 
REMARK    3  A    between atoms: C_4  and  C_33 
REMARK    4  A    between atoms: C_5  and  O_34 
REMARK    5  A    between atoms: N_9  and  C_7 
REMARK    6  A    between atoms: C_7  and  C_8 
REMARK    7  A    between atoms: C_8  and  S_12 
REMARK       I    between atoms: C_10  and  N_9 
REMARK    8  A    between atoms: C_14  and  C_10 
REMARK    9  A    between atoms: C_13  and  N_15 
REMARK   10  A    between atoms: C_14  and  C_13 
REMARK       I    between atoms: C_17  and  N_15 
REMARK   11  A    between atoms: C_17  and  C_22 
REMARK   12  A    between atoms: C_20  and  C_18 
REMARK   13  A    between atoms: C_18  and  O_24 
REMARK   14  A    between atoms: C_22  and  C_20 
REMARK   15  A    between atoms: C_22  and  O_23 
REMARK   16  A    between atoms: O_24  and  P_31 
REMARK   17  A    between atoms: P_31  and  O_25 
REMARK   18  A    between atoms: O_25  and  P_32 
REMARK   19  A    between atoms: P_32  and  O_26 
REMARK   20  A    between atoms: C_33  and  O_26 
REMARK   21  A    between atoms: P_31  and  O_28 
REMARK   22  A    between atoms: P_32  and  O_30 
REMARK   23  A    between atoms: N_47  and  C_43 
ROOT
HETATM    1  O   UNK N   1      20.596  16.710   8.635  0.00  0.00    -0.631 OA
HETATM    2  P   UNK N   1      20.538  15.482   7.685  0.00  0.00     0.401 P 
ENDROOT
BRANCH   2   3
HETATM    3  O   UNK N   1      19.232  15.712   6.556  0.00  0.00    -0.195 OA
BRANCH   3   4
HETATM    4  P   UNK N   1      19.676  14.701   5.233  0.00  0.00     0.401 P 
HETATM    5  O   UNK N   1      20.198  16.116   4.849  0.00  0.00    -0.631 OA
BRANCH   4   6
HETATM    6  O   UNK N   1      19.238  14.850   3.572  0.00  0.00    -0.296 OA
BRANCH   6   7
HETATM    7  C   UNK N   1      19.921  13.775   2.986  0.00  0.00     0.192 C 
BRANCH   7   8
HETATM    8  C   UNK N   1      20.259  14.034   1.525  0.00  0.00     0.009 C 
HETATM    9  C   UNK N   1      20.777  12.765   0.855  0.00  0.00     0.020 C 
HETATM   10  C   UNK N   1      18.958  14.417   0.846  0.00  0.00     0.020 C 
BRANCH   8  11
HETATM   11  C   UNK N   1      21.256  15.204   1.374  0.00  0.00     0.219 C 
BRANCH  11  12
HETATM   12  C   UNK N   1      20.627  16.571   1.212  0.00  0.00     0.247 C 
HETATM   13  N   UNK N   1      20.344  17.314   2.311  0.00  0.00    -0.358 N 
HETATM   14  H   UNK N   1      20.564  16.950   3.198  0.00  0.00     0.162 HD
HETATM   15  O   UNK N   1      20.337  16.983   0.098  0.00  0.00    -0.271 OA
BRANCH  13  16
HETATM   16  C   UNK N   1      19.733  18.616   2.228  0.00  0.00     0.132 C 
BRANCH  16  17
HETATM   17  C   UNK N   1      20.361  19.527   3.265  0.00  0.00     0.122 C 
BRANCH  17  18
HETATM   18  C   UNK N   1      21.745  19.931   2.856  0.00  0.00     0.219 C 
HETATM   19  N   UNK N   1      22.847  19.454   3.486  0.00  0.00    -0.360 N 
HETATM   20  H   UNK N   1      23.733  19.751   3.174  0.00  0.00     0.162 HD
HETATM   21  O   UNK N   1      21.880  20.731   1.944  0.00  0.00    -0.274 OA
BRANCH  19  22
HETATM   22  C   UNK N   1      22.780  18.533   4.591  0.00  0.00     0.132 C 
BRANCH  22  23
HETATM   23  C   UNK N   1      23.923  17.546   4.485  0.00  0.00     0.090 C 
BRANCH  23  24
HETATM   24  S   UNK N   1      25.412  18.398   3.900  0.00  0.00    -0.181 SA
HETATM   25  H   UNK N   1      25.799  19.575   4.463  0.00  0.00     0.101 HD
ENDBRANCH  23  24
ENDBRANCH  22  23
ENDBRANCH  19  22
ENDBRANCH  17  18
ENDBRANCH  16  17
ENDBRANCH  13  16
ENDBRANCH  11  12
BRANCH  11  26
HETATM   26  O   UNK N   1      22.160  15.203   2.443  0.00  0.00    -0.385 OA
HETATM   27  H   UNK N   1      23.059  15.564   2.408  0.00  0.00     0.210 HD
ENDBRANCH  11  26
ENDBRANCH   8  11
ENDBRANCH   7   8
ENDBRANCH   6   7
ENDBRANCH   4   6
BRANCH   4  28
HETATM   28  O   UNK N   1      17.939  14.807   5.210  0.00  0.00    -0.307 OA
HETATM   29  H   UNK N   1      17.340  14.064   5.382  0.00  0.00     0.222 HD
ENDBRANCH   4  28
ENDBRANCH   3   4
ENDBRANCH   2   3
BRANCH   2  30
HETATM   30  O   UNK N   1      20.219  14.099   8.672  0.00  0.00    -0.294 OA
BRANCH  30  31
HETATM   31  C   UNK N   1      21.314  14.047   9.534  0.00  0.00     0.215 C 
BRANCH  31  32
HETATM   32  C   UNK N   1      21.996  12.688   9.418  0.00  0.00     0.180 C 
HETATM   33  O   UNK N   1      22.673  12.632   8.190  0.00  0.00    -0.353 OA
HETATM   34  C   UNK N   1      23.897  13.211   8.514  0.00  0.00     0.262 C 
HETATM   35  C   UNK N   1      24.335  12.505   9.768  0.00  0.00     0.198 C 
HETATM   36  C   UNK N   1      23.034  12.540  10.526  0.00  0.00     0.182 C 
BRANCH  34  37
HETATM   37  N   UNK N   1      24.808  13.188   7.376  0.00  0.00    -0.297 N 
HETATM   38  C   UNK N   1      25.653  14.113   6.908  0.00  0.00     0.142 A 
HETATM   39  C   UNK N   1      26.252  13.645   5.796  0.00  0.00     0.122 A 
HETATM   40  N   UNK N   1      25.904  15.351   7.401  0.00  0.00    -0.336 N 
HETATM   41  C   UNK N   1      27.156  14.429   5.107  0.00  0.00     0.131 A 
HETATM   42  N   UNK N   1      25.813  12.402   5.527  0.00  0.00    -0.346 N 
HETATM   43  N   UNK N   1      27.418  15.679   5.593  0.00  0.00    -0.337 N 
HETATM   44  C   UNK N   1      26.801  16.138   6.732  0.00  0.00     0.183 A 
ATOM     45  HN  UNK N   1      28.082  16.280   5.104  1.00  0.00     0.168 HD
HETATM   46  C   UNK N   1      24.918  12.141   6.518  0.00  0.00     0.188 A 
ATOM     47  HN  UNK N   1      26.089  11.793   4.757  1.00  0.00     0.167 HD
ATOM     48  HN  UNK N   1      25.437  15.684   8.246  1.00  0.00     0.168 HD
BRANCH  41  49
HETATM   49  N   UNK N   1      27.782  13.966   3.933  0.00  0.00    -0.383 N 
HETATM   50  H   UNK N   1      28.060  14.604   3.237  0.00  0.00     0.157 HD
HETATM   51  H   UNK N   1      27.942  13.002   3.809  0.00  0.00     0.157 HD
ENDBRANCH  41  49
ENDBRANCH  34  37
BRANCH  35  52
HETATM   52  O   UNK N   1      25.312  13.231  10.446  0.00  0.00    -0.388 OA
HETATM   53  H   UNK N   1      26.173  13.220  10.893  0.00  0.00     0.210 HD
ENDBRANCH  35  52
BRANCH  36  54
HETATM   54  O   UNK N   1      22.849  11.338  11.207  0.00  0.00    -0.390 OA
HETATM   55  H   UNK N   1      23.231  10.450  11.125  0.00  0.00     0.210 HD
ENDBRANCH  36  54
ENDBRANCH  31  32
ENDBRANCH  30  31
ENDBRANCH   2  30
BRANCH   2  56
HETATM   56  O   UNK N   1      22.075  15.338   6.889  0.00  0.00    -0.307 OA
HETATM   57  H   UNK N   1      22.891  15.635   6.457  0.00  0.00     0.222 HD
ENDBRANCH   2  56
TORSDOF 23
ENDMDL
MODEL 3
REMARK VINA RESULT:      -5.7     11.830     16.284
REMARK  23 active torsions:
REMARK  status: ('A' for Active; 'I' for Inactive)
REMARK    1  A    between atoms: C_1  and  N_35 
REMARK    2  A    between atoms: C_3  and  O_6 
REMARK    3  A    between atoms: C_4  and  C_33 
REMARK    4  A    between atoms: C_5  and  O_34 
REMARK    5  A    between atoms: N_9  and  C_7 
REMARK    6  A    between atoms: C_7  and  C_8 
REMARK    7  A    between atoms: C_8  and  S_12 
REMARK       I    between atoms: C_10  and  N_9 
REMARK    8  A    between atoms: C_14  and  C_10 
REMARK    9  A    between atoms: C_13  and  N_15 
REMARK   10  A    between atoms: C_14  and  C_13 
REMARK       I    between atoms: C_17  and  N_15 
REMARK   11  A    between atoms: C_17  and  C_22 
REMARK   12  A    between atoms: C_20  and  C_18 
REMARK   13  A    between atoms: C_18  and  O_24 
REMARK   14  A    between atoms: C_22  and  C_20 
REMARK   15  A    between atoms: C_22  and  O_23 
REMARK   16  A    between atoms: O_24  and  P_31 
REMARK   17  A    between atoms: P_31  and  O_25 
REMARK   18  A    between atoms: O_25  and  P_32 
REMARK   19  A    between atoms: P_32  and  O_26 
REMARK   20  A    between atoms: C_33  and  O_26 
REMARK   21  A    between atoms: P_31  and  O_28 
REMARK   22  A    between atoms: P_32  and  O_30 
REMARK   23  A    between atoms: N_47  and  C_43 
ROOT
HETATM    1  O   UNK N   1      36.896  16.132  10.821  0.00  0.00    -0.631 OA
HETATM    2  P   UNK N   1      35.433  15.684  10.550  0.00  0.00     0.401 P 
ENDROOT
BRANCH   2   3
HETATM    3  O   UNK N   1      34.842  14.831  11.948  0.00  0.00    -0.195 OA
BRANCH   3   4
HETATM    4  P   UNK N   1      36.055  13.638  12.221  0.00  0.00     0.401 P 
HETATM    5  O   UNK N   1      34.728  12.978  12.696  0.00  0.00    -0.631 OA
BRANCH   4   6
HETATM    6  O   UNK N   1      36.498  12.875  13.702  0.00  0.00    -0.296 OA
BRANCH   6   7
HETATM    7  C   UNK N   1      35.601  11.799  13.763  0.00  0.00     0.192 C 
BRANCH   7   8
HETATM    8  C   UNK N   1      35.456  11.249  15.174  0.00  0.00     0.009 C 
HETATM    9  C   UNK N   1      34.917   9.822  15.148  0.00  0.00     0.020 C 
HETATM   10  C   UNK N   1      36.855  11.203  15.761  0.00  0.00     0.020 C 
BRANCH   8  11
HETATM   11  C   UNK N   1      34.583  12.171  16.054  0.00  0.00     0.219 C 
BRANCH  11  12
HETATM   12  C   UNK N   1      35.138  12.463  17.431  0.00  0.00     0.247 C 
HETATM   13  N   UNK N   1      35.052  11.520  18.402  0.00  0.00    -0.358 N 
HETATM   14  H   UNK N   1      34.636  10.655  18.187  0.00  0.00     0.162 HD
HETATM   15  O   UNK N   1      35.622  13.559  17.677  0.00  0.00    -0.271 OA
BRANCH  13  16
HETATM   16  C   UNK N   1      35.547  11.738  19.738  0.00  0.00     0.132 C 
BRANCH  16  17
HETATM   17  C   UNK N   1      35.532  10.425  20.495  0.00  0.00     0.122 C 
BRANCH  17  18
HETATM   18  C   UNK N   1      34.271   9.661  20.219  0.00  0.00     0.219 C 
HETATM   19  N   UNK N   1      33.160   9.810  20.982  0.00  0.00    -0.360 N 
HETATM   20  H   UNK N   1      32.358   9.285  20.754  0.00  0.00     0.162 HD
HETATM   21  O   UNK N   1      34.256   8.865  19.294  0.00  0.00    -0.274 OA
BRANCH  19  22
HETATM   22  C   UNK N   1      33.100  10.701  22.111  0.00  0.00     0.132 C 
BRANCH  22  23
HETATM   23  C   UNK N   1      32.479   9.974  23.285  0.00  0.00     0.090 C 
BRANCH  23  24
HETATM   24  S   UNK N   1      33.740   9.674  24.552  0.00  0.00    -0.181 SA
HETATM   25  H   UNK N   1      34.923  10.344  24.520  0.00  0.00     0.101 HD
ENDBRANCH  23  24
ENDBRANCH  22  23
ENDBRANCH  19  22
ENDBRANCH  17  18
ENDBRANCH  16  17
ENDBRANCH  13  16
ENDBRANCH  11  12
BRANCH  11  26
HETATM   26  O   UNK N   1      34.308  13.362  15.372  0.00  0.00    -0.385 OA
HETATM   27  H   UNK N   1      34.720  14.218  15.564  0.00  0.00     0.210 HD
ENDBRANCH  11  26
ENDBRANCH   8  11
ENDBRANCH   7   8
ENDBRANCH   6   7
ENDBRANCH   4   6
BRANCH   4  28
HETATM   28  O   UNK N   1      36.375  14.931  13.341  0.00  0.00    -0.307 OA
HETATM   29  H   UNK N   1      36.280  15.875  13.135  0.00  0.00     0.222 HD
ENDBRANCH   4  28
ENDBRANCH   3   4
ENDBRANCH   2   3
BRANCH   2  30
HETATM   30  O   UNK N   1      35.480  14.617   9.191  0.00  0.00    -0.294 OA
BRANCH  30  31
HETATM   31  C   UNK N   1      34.136  14.445   8.858  0.00  0.00     0.215 C 
BRANCH  31  32
HETATM   32  C   UNK N   1      33.948  14.648   7.358  0.00  0.00     0.180 C 
HETATM   33  O   UNK N   1      32.614  15.016   7.121  0.00  0.00    -0.353 OA
HETATM   34  C   UNK N   1      32.666  16.397   7.294  0.00  0.00     0.262 C 
HETATM   35  C   UNK N   1      33.839  16.842   6.466  0.00  0.00     0.198 C 
HETATM   36  C   UNK N   1      34.835  15.792   6.881  0.00  0.00     0.182 C 
BRANCH  34  37
HETATM   37  N   UNK N   1      31.374  17.011   7.016  0.00  0.00    -0.297 N 
HETATM   38  C   UNK N   1      30.468  17.562   7.833  0.00  0.00     0.142 A 
HETATM   39  C   UNK N   1      29.402  17.956   7.111  0.00  0.00     0.122 A 
HETATM   40  N   UNK N   1      30.531  17.714   9.178  0.00  0.00    -0.336 N 
HETATM   41  C   UNK N   1      28.314  18.536   7.733  0.00  0.00     0.131 A 
HETATM   42  N   UNK N   1      29.599  17.677   5.810  0.00  0.00    -0.346 N 
HETATM   43  N   UNK N   1      28.364  18.696   9.089  0.00  0.00    -0.337 N 
HETATM   44  C   UNK N   1      29.463  18.291   9.809  0.00  0.00     0.183 A 
ATOM     45  HN  UNK N   1      27.574  19.120   9.575  1.00  0.00     0.168 HD
HETATM   46  C   UNK N   1      30.826  17.090   5.776  0.00  0.00     0.188 A 
ATOM     47  HN  UNK N   1      28.973  17.863   5.027  1.00  0.00     0.167 HD
ATOM     48  HN  UNK N   1      31.350  17.407   9.704  1.00  0.00     0.168 HD
BRANCH  41  49
HETATM   49  N   UNK N   1      27.181  18.941   7.000  0.00  0.00    -0.383 N 
HETATM   50  H   UNK N   1      27.254  19.667   6.339  0.00  0.00     0.157 HD
HETATM   51  H   UNK N   1      26.315  18.497   7.149  0.00  0.00     0.157 HD
ENDBRANCH  41  49
ENDBRANCH  34  37
BRANCH  35  52
HETATM   52  O   UNK N   1      34.280  18.108   6.847  0.00  0.00    -0.388 OA
HETATM   53  H   UNK N   1      34.495  19.014   6.574  0.00  0.00     0.210 HD
ENDBRANCH  35  52
BRANCH  36  54
HETATM   54  O   UNK N   1      35.591  15.394   5.780  0.00  0.00    -0.390 OA
HETATM   55  H   UNK N   1      36.303  15.806   5.265  0.00  0.00     0.210 HD
ENDBRANCH  36  54
ENDBRANCH  31  32
ENDBRANCH  30  31
ENDBRANCH   2  30
BRANCH   2  56
HETATM   56  O   UNK N   1      34.488  17.100  10.198  0.00  0.00    -0.307 OA
HETATM   57  H   UNK N   1      33.735  17.709  10.248  0.00  0.00     0.222 HD
ENDBRANCH   2  56
TORSDOF 23
ENDMDL
MODEL 4
REMARK VINA RESULT:      -5.6      3.404      5.881
REMARK  23 active torsions:
REMARK  status: ('A' for Active; 'I' for Inactive)
REMARK    1  A    between atoms: C_1  and  N_35 
REMARK    2  A    between atoms: C_3  and  O_6 
REMARK    3  A    between atoms: C_4  and  C_33 
REMARK    4  A    between atoms: C_5  and  O_34 
REMARK    5  A    between atoms: N_9  and  C_7 
REMARK    6  A    between atoms: C_7  and  C_8 
REMARK    7  A    between atoms: C_8  and  S_12 
REMARK       I    between atoms: C_10  and  N_9 
REMARK    8  A    between atoms: C_14  and  C_10 
REMARK    9  A    between atoms: C_13  and  N_15 
REMARK   10  A    between atoms: C_14  and  C_13 
REMARK       I    between atoms: C_17  and  N_15 
REMARK   11  A    between atoms: C_17  and  C_22 
REMARK   12  A    between atoms: C_20  and  C_18 
REMARK   13  A    between atoms: C_18  and  O_24 
REMARK   14  A    between atoms: C_22  and  C_20 
REMARK   15  A    between atoms: C_22  and  O_23 
REMARK   16  A    between atoms: O_24  and  P_31 
REMARK   17  A    between atoms: P_31  and  O_25 
REMARK   18  A    between atoms: O_25  and  P_32 
REMARK   19  A    between atoms: P_32  and  O_26 
REMARK   20  A    between atoms: C_33  and  O_26 
REMARK   21  A    between atoms: P_31  and  O_28 
REMARK   22  A    between atoms: P_32  and  O_30 
REMARK   23  A    between atoms: N_47  and  C_43 
ROOT
HETATM    1  O   UNK N   1      20.450  20.633   3.784  0.00  0.00    -0.631 OA
HETATM    2  P   UNK N   1      21.458  20.530   2.606  0.00  0.00     0.401 P 
ENDROOT
BRANCH   2   3
HETATM    3  O   UNK N   1      21.815  18.850   2.324  0.00  0.00    -0.195 OA
BRANCH   3   4
HETATM    4  P   UNK N   1      20.565  18.033   3.182  0.00  0.00     0.401 P 
HETATM    5  O   UNK N   1      21.706  16.985   3.042  0.00  0.00    -0.631 OA
BRANCH   4   6
HETATM    6  O   UNK N   1      19.728  16.589   2.748  0.00  0.00    -0.296 OA
BRANCH   6   7
HETATM    7  C   UNK N   1      20.651  15.950   1.909  0.00  0.00     0.192 C 
BRANCH   7   8
HETATM    8  C   UNK N   1      20.202  14.550   1.519  0.00  0.00     0.009 C 
HETATM    9  C   UNK N   1      19.018  14.608   0.558  0.00  0.00     0.020 C 
HETATM   10  C   UNK N   1      21.365  13.918   0.778  0.00  0.00     0.020 C 
BRANCH   8  11
HETATM   11  C   UNK N   1      19.884  13.690   2.762  0.00  0.00     0.219 C 
BRANCH  11  12
HETATM   12  C   UNK N   1      20.978  13.635   3.805  0.00  0.00     0.247 C 
HETATM   13  N   UNK N   1      21.022  14.575   4.782  0.00  0.00    -0.358 N 
HETATM   14  H   UNK N   1      20.330  15.273   4.798  0.00  0.00     0.162 HD
HETATM   15  O   UNK N   1      21.842  12.771   3.741  0.00  0.00    -0.271 OA
BRANCH  13  16
HETATM   16  C   UNK N   1      22.044  14.588   5.797  0.00  0.00     0.132 C 
BRANCH  16  17
HETATM   17  C   UNK N   1      21.658  15.578   6.879  0.00  0.00     0.122 C 
BRANCH  17  18
HETATM   18  C   UNK N   1      20.508  15.061   7.692  0.00  0.00     0.219 C 
HETATM   19  N   UNK N   1      19.735  15.882   8.444  0.00  0.00    -0.360 N 
HETATM   20  H   UNK N   1      18.991  15.490   8.957  0.00  0.00     0.162 HD
HETATM   21  O   UNK N   1      20.281  13.863   7.693  0.00  0.00    -0.274 OA
BRANCH  19  22
HETATM   22  C   UNK N   1      19.953  17.304   8.527  0.00  0.00     0.132 C 
BRANCH  22  23
HETATM   23  C   UNK N   1      18.877  17.922   9.395  0.00  0.00     0.090 C 
BRANCH  23  24
HETATM   24  S   UNK N   1      17.273  17.174   9.000  0.00  0.00    -0.181 SA
HETATM   25  H   UNK N   1      17.114  16.442   7.865  0.00  0.00     0.101 HD
ENDBRANCH  23  24
ENDBRANCH  22  23
ENDBRANCH  19  22
ENDBRANCH  17  18
ENDBRANCH  16  17
ENDBRANCH  13  16
ENDBRANCH  11  12
BRANCH  11  26
HETATM   26  O   UNK N   1      18.678  14.108   3.336  0.00  0.00    -0.385 OA
HETATM   27  H   UNK N   1      18.406  15.032   3.444  0.00  0.00     0.210 HD
ENDBRANCH  11  26
ENDBRANCH   8  11
ENDBRANCH   7   8
ENDBRANCH   6   7
ENDBRANCH   4   6
BRANCH   4  28
HETATM   28  O   UNK N   1      19.960  18.304   1.572  0.00  0.00    -0.307 OA
HETATM   29  H   UNK N   1      19.248  18.923   1.349  0.00  0.00     0.222 HD
ENDBRANCH   4  28
ENDBRANCH   3   4
ENDBRANCH   2   3
BRANCH   2  30
HETATM   30  O   UNK N   1      22.893  21.357   3.100  0.00  0.00    -0.294 OA
BRANCH  30  31
HETATM   31  C   UNK N   1      23.902  20.413   2.909  0.00  0.00     0.215 C 
BRANCH  31  32
HETATM   32  C   UNK N   1      24.470  19.988   4.260  0.00  0.00     0.180 C 
HETATM   33  O   UNK N   1      24.378  18.591   4.363  0.00  0.00    -0.353 OA
HETATM   34  C   UNK N   1      25.557  18.182   3.746  0.00  0.00     0.262 C 
HETATM   35  C   UNK N   1      26.632  19.021   4.382  0.00  0.00     0.198 C 
HETATM   36  C   UNK N   1      25.946  20.361   4.335  0.00  0.00     0.182 C 
BRANCH  34  37
HETATM   37  N   UNK N   1      25.709  16.734   3.807  0.00  0.00    -0.297 N 
HETATM   38  C   UNK N   1      25.684  15.891   4.845  0.00  0.00     0.142 A 
HETATM   39  C   UNK N   1      25.920  14.639   4.406  0.00  0.00     0.122 A 
HETATM   40  N   UNK N   1      25.481  16.174   6.155  0.00  0.00    -0.336 N 
HETATM   41  C   UNK N   1      25.969  13.585   5.296  0.00  0.00     0.131 A 
HETATM   42  N   UNK N   1      26.095  14.647   3.072  0.00  0.00    -0.346 N 
HETATM   43  N   UNK N   1      25.767  13.856   6.620  0.00  0.00    -0.337 N 
HETATM   44  C   UNK N   1      25.522  15.139   7.050  0.00  0.00     0.183 A 
ATOM     45  HN  UNK N   1      25.799  13.096   7.300  1.00  0.00     0.168 HD
HETATM   46  C   UNK N   1      25.963  15.955   2.724  0.00  0.00     0.188 A 
ATOM     47  HN  UNK N   1      26.284  13.853   2.461  1.00  0.00     0.167 HD
ATOM     48  HN  UNK N   1      25.303  17.130   6.465  1.00  0.00     0.168 HD
BRANCH  41  49
HETATM   49  N   UNK N   1      26.232  12.270   4.861  0.00  0.00    -0.383 N 
HETATM   50  H   UNK N   1      25.806  11.507   5.312  0.00  0.00     0.157 HD
HETATM   51  H   UNK N   1      26.842  12.117   4.103  0.00  0.00     0.157 HD
ENDBRANCH  41  49
ENDBRANCH  34  37
BRANCH  35  52
HETATM   52  O   UNK N   1      27.789  19.039   3.606  0.00  0.00    -0.388 OA
HETATM   53  H   UNK N   1      28.280  19.461   2.883  0.00  0.00     0.210 HD
ENDBRANCH  35  52
BRANCH  36  54
HETATM   54  O   UNK N   1      26.209  21.070   5.505  0.00  0.00    -0.390 OA
HETATM   55  H   UNK N   1      25.772  21.806   5.961  0.00  0.00     0.210 HD
ENDBRANCH  36  54
ENDBRANCH  31  32
ENDBRANCH  30  31
ENDBRANCH   2  30
BRANCH   2  56
HETATM   56  O   UNK N   1      20.747  21.292   1.215  0.00  0.00    -0.307 OA
HETATM   57  H   UNK N   1      20.694  21.626   0.307  0.00  0.00     0.222 HD
ENDBRANCH   2  56
TORSDOF 23
ENDMDL
MODEL 5
REMARK VINA RESULT:      -5.5      3.410      5.977
REMARK  23 active torsions:
REMARK  status: ('A' for Active; 'I' for Inactive)
REMARK    1  A    between atoms: C_1  and  N_35 
REMARK    2  A    between atoms: C_3  and  O_6 
REMARK    3  A    between atoms: C_4  and  C_33 
REMARK    4  A    between atoms: C_5  and  O_34 
REMARK    5  A    between atoms: N_9  and  C_7 
REMARK    6  A    between atoms: C_7  and  C_8 
REMARK    7  A    between atoms: C_8  and  S_12 
REMARK       I    between atoms: C_10  and  N_9 
REMARK    8  A    between atoms: C_14  and  C_10 
REMARK    9  A    between atoms: C_13  and  N_15 
REMARK   10  A    between atoms: C_14  and  C_13 
REMARK       I    between atoms: C_17  and  N_15 
REMARK   11  A    between atoms: C_17  and  C_22 
REMARK   12  A    between atoms: C_20  and  C_18 
REMARK   13  A    between atoms: C_18  and  O_24 
REMARK   14  A    between atoms: C_22  and  C_20 
REMARK   15  A    between atoms: C_22  and  O_23 
REMARK   16  A    between atoms: O_24  and  P_31 
REMARK   17  A    between atoms: P_31  and  O_25 
REMARK   18  A    between atoms: O_25  and  P_32 
REMARK   19  A    between atoms: P_32  and  O_26 
REMARK   20  A    between atoms: C_33  and  O_26 
REMARK   21  A    between atoms: P_31  and  O_28 
REMARK   22  A    between atoms: P_32  and  O_30 
REMARK   23  A    between atoms: N_47  and  C_43 
ROOT
HETATM    1  O   UNK N   1      23.785  16.795   4.106  0.00  0.00    -0.631 OA
HETATM    2  P   UNK N   1      22.889  16.373   5.304  0.00  0.00     0.401 P 
ENDROOT
BRANCH   2   3
HETATM    3  O   UNK N   1      23.682  15.085   6.166  0.00  0.00    -0.195 OA
BRANCH   3   4
HETATM    4  P   UNK N   1      25.217  14.980   5.391  0.00  0.00     0.401 P 
HETATM    5  O   UNK N   1      25.194  13.794   6.398  0.00  0.00    -0.631 OA
BRANCH   4   6
HETATM    6  O   UNK N   1      26.787  15.031   6.101  0.00  0.00    -0.296 OA
BRANCH   6   7
HETATM    7  C   UNK N   1      27.614  14.691   5.022  0.00  0.00     0.192 C 
BRANCH   7   8
HETATM    8  C   UNK N   1      28.745  15.690   4.826  0.00  0.00     0.009 C 
HETATM    9  C   UNK N   1      29.117  16.355   6.147  0.00  0.00     0.020 C 
HETATM   10  C   UNK N   1      29.947  14.889   4.359  0.00  0.00     0.020 C 
BRANCH   8  11
HETATM   11  C   UNK N   1      28.398  16.733   3.741  0.00  0.00     0.219 C 
BRANCH  11  12
HETATM   12  C   UNK N   1      28.004  18.098   4.262  0.00  0.00     0.247 C 
HETATM   13  N   UNK N   1      26.693  18.436   4.336  0.00  0.00    -0.358 N 
HETATM   14  H   UNK N   1      26.018  17.777   4.055  0.00  0.00     0.162 HD
HETATM   15  O   UNK N   1      28.868  18.906   4.575  0.00  0.00    -0.271 OA
BRANCH  13  16
HETATM   16  C   UNK N   1      26.251  19.723   4.808  0.00  0.00     0.132 C 
BRANCH  16  17
HETATM   17  C   UNK N   1      24.758  19.852   4.577  0.00  0.00     0.122 C 
BRANCH  17  18
HETATM   18  C   UNK N   1      24.469  20.304   3.177  0.00  0.00     0.219 C 
HETATM   19  N   UNK N   1      23.218  20.265   2.654  0.00  0.00    -0.360 N 
HETATM   20  H   UNK N   1      23.084  20.577   1.730  0.00  0.00     0.162 HD
HETATM   21  O   UNK N   1      25.393  20.695   2.483  0.00  0.00    -0.274 OA
BRANCH  19  22
HETATM   22  C   UNK N   1      22.076  19.788   3.392  0.00  0.00     0.132 C 
BRANCH  22  23
HETATM   23  C   UNK N   1      20.812  20.174   2.653  0.00  0.00     0.090 C 
BRANCH  23  24
HETATM   24  S   UNK N   1      19.673  18.764   2.618  0.00  0.00    -0.181 SA
HETATM   25  H   UNK N   1      18.328  18.964   2.618  0.00  0.00     0.101 HD
ENDBRANCH  23  24
ENDBRANCH  22  23
ENDBRANCH  19  22
ENDBRANCH  17  18
ENDBRANCH  16  17
ENDBRANCH  13  16
ENDBRANCH  11  12
BRANCH  11  26
HETATM   26  O   UNK N   1      29.451  16.840   2.826  0.00  0.00    -0.385 OA
HETATM   27  H   UNK N   1      30.273  17.330   2.983  0.00  0.00     0.210 HD
ENDBRANCH  11  26
ENDBRANCH   8  11
ENDBRANCH   7   8
ENDBRANCH   6   7
ENDBRANCH   4   6
BRANCH   4  28
HETATM   28  O   UNK N   1      25.251  16.428   6.355  0.00  0.00    -0.307 OA
HETATM   29  H   UNK N   1      24.856  16.512   7.237  0.00  0.00     0.222 HD
ENDBRANCH   4  28
ENDBRANCH   3   4
ENDBRANCH   2   3
BRANCH   2  30
HETATM   30  O   UNK N   1      21.400  15.799   4.639  0.00  0.00    -0.294 OA
BRANCH  30  31
HETATM   31  C   UNK N   1      21.295  14.499   5.134  0.00  0.00     0.215 C 
BRANCH  31  32
HETATM   32  C   UNK N   1      20.090  14.400   6.065  0.00  0.00     0.180 C 
HETATM   33  O   UNK N   1      20.408  13.523   7.113  0.00  0.00    -0.353 OA
HETATM   34  C   UNK N   1      21.029  14.377   8.020  0.00  0.00     0.262 C 
HETATM   35  C   UNK N   1      20.099  15.553   8.137  0.00  0.00     0.198 C 
HETATM   36  C   UNK N   1      19.802  15.766   6.676  0.00  0.00     0.182 C 
BRANCH  34  37
HETATM   37  N   UNK N   1      21.383  13.675   9.247  0.00  0.00    -0.297 N 
HETATM   38  C   UNK N   1      22.572  13.299   9.732  0.00  0.00     0.142 A 
HETATM   39  C   UNK N   1      22.389  12.631  10.888  0.00  0.00     0.122 A 
HETATM   40  N   UNK N   1      23.801  13.500   9.198  0.00  0.00    -0.336 N 
HETATM   41  C   UNK N   1      23.469  12.115  11.575  0.00  0.00     0.131 A 
HETATM   42  N   UNK N   1      21.077  12.569  11.178  0.00  0.00    -0.346 N 
HETATM   43  N   UNK N   1      24.714  12.310  11.047  0.00  0.00    -0.337 N 
HETATM   44  C   UNK N   1      24.883  12.999   9.870  0.00  0.00     0.183 A 
ATOM     45  HN  UNK N   1      25.531  11.939  11.534  1.00  0.00     0.168 HD
HETATM   46  C   UNK N   1      20.474  13.220  10.147  0.00  0.00     0.188 A 
ATOM     47  HN  UNK N   1      20.634  12.134  11.987  1.00  0.00     0.167 HD
ATOM     48  HN  UNK N   1      23.916  14.009   8.320  1.00  0.00     0.168 HD
BRANCH  41  49
HETATM   49  N   UNK N   1      23.299  11.399  12.777  0.00  0.00    -0.383 N 
HETATM   50  H   UNK N   1      22.834  10.532  12.773  0.00  0.00     0.157 HD
HETATM   51  H   UNK N   1      23.647  11.767  13.621  0.00  0.00     0.157 HD
ENDBRANCH  41  49
ENDBRANCH  34  37
BRANCH  35  52
HETATM   52  O   UNK N   1      20.748  16.665   8.669  0.00  0.00    -0.388 OA
HETATM   53  H   UNK N   1      21.399  17.371   8.534  0.00  0.00     0.210 HD
ENDBRANCH  35  52
BRANCH  36  54
HETATM   54  O   UNK N   1      18.459  16.100   6.509  0.00  0.00    -0.390 OA
HETATM   55  H   UNK N   1      17.934  16.435   5.765  0.00  0.00     0.210 HD
ENDBRANCH  36  54
ENDBRANCH  31  32
ENDBRANCH  30  31
ENDBRANCH   2  30
BRANCH   2  56
HETATM   56  O   UNK N   1      22.628  17.769   6.305  0.00  0.00    -0.307 OA
HETATM   57  H   UNK N   1      22.471  18.702   6.517  0.00  0.00     0.222 HD
ENDBRANCH   2  56
TORSDOF 23
ENDMDL
MODEL 6
REMARK VINA RESULT:      -5.5     10.956     15.255
REMARK  23 active torsions:
REMARK  status: ('A' for Active; 'I' for Inactive)
REMARK    1  A    between atoms: C_1  and  N_35 
REMARK    2  A    between atoms: C_3  and  O_6 
REMARK    3  A    between atoms: C_4  and  C_33 
REMARK    4  A    between atoms: C_5  and  O_34 
REMARK    5  A    between atoms: N_9  and  C_7 
REMARK    6  A    between atoms: C_7  and  C_8 
REMARK    7  A    between atoms: C_8  and  S_12 
REMARK       I    between atoms: C_10  and  N_9 
REMARK    8  A    between atoms: C_14  and  C_10 
REMARK    9  A    between atoms: C_13  and  N_15 
REMARK   10  A    between atoms: C_14  and  C_13 
REMARK       I    between atoms: C_17  and  N_15 
REMARK   11  A    between atoms: C_17  and  C_22 
REMARK   12  A    between atoms: C_20  and  C_18 
REMARK   13  A    between atoms: C_18  and  O_24 
REMARK   14  A    between atoms: C_22  and  C_20 
REMARK   15  A    between atoms: C_22  and  O_23 
REMARK   16  A    between atoms: O_24  and  P_31 
REMARK   17  A    between atoms: P_31  and  O_25 
REMARK   18  A    between atoms: O_25  and  P_32 
REMARK   19  A    between atoms: P_32  and  O_26 
REMARK   20  A    between atoms: C_33  and  O_26 
REMARK   21  A    between atoms: P_31  and  O_28 
REMARK   22  A    between atoms: P_32  and  O_30 
REMARK   23  A    between atoms: N_47  and  C_43 
ROOT
HETATM    1  O   UNK N   1      35.467  16.297  11.437  0.00  0.00    -0.631 OA
HETATM    2  P   UNK N   1      34.875  15.000  10.821  0.00  0.00     0.401 P 
ENDROOT
BRANCH   2   3
HETATM    3  O   UNK N   1      35.711  13.630  11.496  0.00  0.00    -0.195 OA
BRANCH   3   4
HETATM    4  P   UNK N   1      36.118  14.162  13.083  0.00  0.00     0.401 P 
HETATM    5  O   UNK N   1      37.059  12.952  12.812  0.00  0.00    -0.631 OA
BRANCH   4   6
HETATM    6  O   UNK N   1      36.064  13.276  14.561  0.00  0.00    -0.296 OA
BRANCH   6   7
HETATM    7  C   UNK N   1      35.700  11.994  14.127  0.00  0.00     0.192 C 
BRANCH   7   8
HETATM    8  C   UNK N   1      35.333  11.077  15.285  0.00  0.00     0.009 C 
HETATM    9  C   UNK N   1      35.235  11.863  16.589  0.00  0.00     0.020 C 
HETATM   10  C   UNK N   1      33.953  10.528  14.973  0.00  0.00     0.020 C 
BRANCH   8  11
HETATM   11  C   UNK N   1      36.318   9.894  15.406  0.00  0.00     0.219 C 
BRANCH  11  12
HETATM   12  C   UNK N   1      37.433   9.876  14.383  0.00  0.00     0.247 C 
HETATM   13  N   UNK N   1      37.277   9.174  13.233  0.00  0.00    -0.358 N 
HETATM   14  H   UNK N   1      36.431   8.694  13.083  0.00  0.00     0.162 HD
HETATM   15  O   UNK N   1      38.484  10.458  14.612  0.00  0.00    -0.271 OA
BRANCH  13  16
HETATM   16  C   UNK N   1      38.303   9.103  12.224  0.00  0.00     0.132 C 
BRANCH  16  17
HETATM   17  C   UNK N   1      37.654   9.101  10.854  0.00  0.00     0.122 C 
BRANCH  17  18
HETATM   18  C   UNK N   1      36.673  10.227  10.723  0.00  0.00     0.219 C 
HETATM   19  N   UNK N   1      37.014  11.415  10.166  0.00  0.00    -0.360 N 
HETATM   20  H   UNK N   1      36.329  12.120  10.102  0.00  0.00     0.162 HD
HETATM   21  O   UNK N   1      35.542  10.074  11.155  0.00  0.00    -0.274 OA
BRANCH  19  22
HETATM   22  C   UNK N   1      38.334  11.693   9.661  0.00  0.00     0.132 C 
BRANCH  22  23
HETATM   23  C   UNK N   1      38.445  13.170   9.348  0.00  0.00     0.090 C 
BRANCH  23  24
HETATM   24  S   UNK N   1      38.015  13.459   7.611  0.00  0.00    -0.181 SA
HETATM   25  H   UNK N   1      38.969  13.390   6.644  0.00  0.00     0.101 HD
ENDBRANCH  23  24
ENDBRANCH  22  23
ENDBRANCH  19  22
ENDBRANCH  17  18
ENDBRANCH  16  17
ENDBRANCH  13  16
ENDBRANCH  11  12
BRANCH  11  26
HETATM   26  O   UNK N   1      36.840   9.838  16.703  0.00  0.00    -0.385 OA
HETATM   27  H   UNK N   1      36.315   9.900  17.515  0.00  0.00     0.210 HD
ENDBRANCH  11  26
ENDBRANCH   8  11
ENDBRANCH   7   8
ENDBRANCH   6   7
ENDBRANCH   4   6
BRANCH   4  28
HETATM   28  O   UNK N   1      34.509  13.507  13.182  0.00  0.00    -0.307 OA
HETATM   29  H   UNK N   1      33.746  13.844  12.686  0.00  0.00     0.222 HD
ENDBRANCH   4  28
ENDBRANCH   3   4
ENDBRANCH   2   3
BRANCH   2  30
HETATM   30  O   UNK N   1      35.162  15.078   9.118  0.00  0.00    -0.294 OA
BRANCH  30  31
HETATM   31  C   UNK N   1      34.180  14.247   8.578  0.00  0.00     0.215 C 
BRANCH  31  32
HETATM   32  C   UNK N   1      33.990  14.569   7.099  0.00  0.00     0.180 C 
HETATM   33  O   UNK N   1      32.655  14.946   6.892  0.00  0.00    -0.353 OA
HETATM   34  C   UNK N   1      32.697  16.309   7.175  0.00  0.00     0.262 C 
HETATM   35  C   UNK N   1      33.867  16.828   6.387  0.00  0.00     0.198 C 
HETATM   36  C   UNK N   1      34.870  15.754   6.716  0.00  0.00     0.182 C 
BRANCH  34  37
HETATM   37  N   UNK N   1      31.401  16.935   6.947  0.00  0.00    -0.297 N 
HETATM   38  C   UNK N   1      30.537  17.502   7.797  0.00  0.00     0.142 A 
HETATM   39  C   UNK N   1      29.444  17.902   7.118  0.00  0.00     0.122 A 
HETATM   40  N   UNK N   1      30.659  17.666   9.137  0.00  0.00    -0.336 N 
HETATM   41  C   UNK N   1      28.391  18.499   7.780  0.00  0.00     0.131 A 
HETATM   42  N   UNK N   1      29.583  17.609   5.812  0.00  0.00    -0.346 N 
HETATM   43  N   UNK N   1      28.500  18.671   9.132  0.00  0.00    -0.337 N 
HETATM   44  C   UNK N   1      29.625  18.261   9.808  0.00  0.00     0.183 A 
ATOM     45  HN  UNK N   1      27.736  19.108   9.647  1.00  0.00     0.168 HD
HETATM   46  C   UNK N   1      30.801  17.008   5.731  0.00  0.00     0.188 A 
ATOM     47  HN  UNK N   1      28.926  17.795   5.055  1.00  0.00     0.167 HD
ATOM     48  HN  UNK N   1      31.497  17.355   9.631  1.00  0.00     0.168 HD
BRANCH  41  49
HETATM   49  N   UNK N   1      27.231  18.910   7.093  0.00  0.00    -0.383 N 
HETATM   50  H   UNK N   1      27.296  19.576   6.370  0.00  0.00     0.157 HD
HETATM   51  H   UNK N   1      26.356  18.530   7.335  0.00  0.00     0.157 HD
ENDBRANCH  41  49
ENDBRANCH  34  37
BRANCH  35  52
HETATM   52  O   UNK N   1      34.299  18.061   6.869  0.00  0.00    -0.388 OA
HETATM   53  H   UNK N   1      34.993  18.560   7.329  0.00  0.00     0.210 HD
ENDBRANCH  35  52
BRANCH  36  54
HETATM   54  O   UNK N   1      35.629  15.451   5.587  0.00  0.00    -0.390 OA
HETATM   55  H   UNK N   1      35.988  14.630   5.215  0.00  0.00     0.210 HD
ENDBRANCH  36  54
ENDBRANCH  31  32
ENDBRANCH  30  31
ENDBRANCH   2  30
BRANCH   2  56
HETATM   56  O   UNK N   1      33.172  14.963  11.164  0.00  0.00    -0.307 OA
HETATM   57  H   UNK N   1      32.347  15.178  11.626  0.00  0.00     0.222 HD
ENDBRANCH   2  56
TORSDOF 23
ENDMDL
MODEL 7
REMARK VINA RESULT:      -5.4     11.833     16.317
REMARK  23 active torsions:
REMARK  status: ('A' for Active; 'I' for Inactive)
REMARK    1  A    between atoms: C_1  and  N_35 
REMARK    2  A    between atoms: C_3  and  O_6 
REMARK    3  A    between atoms: C_4  and  C_33 
REMARK    4  A    between atoms: C_5  and  O_34 
REMARK    5  A    between atoms: N_9  and  C_7 
REMARK    6  A    between atoms: C_7  and  C_8 
REMARK    7  A    between atoms: C_8  and  S_12 
REMARK       I    between atoms: C_10  and  N_9 
REMARK    8  A    between atoms: C_14  and  C_10 
REMARK    9  A    between atoms: C_13  and  N_15 
REMARK   10  A    between atoms: C_14  and  C_13 
REMARK       I    between atoms: C_17  and  N_15 
REMARK   11  A    between atoms: C_17  and  C_22 
REMARK   12  A    between atoms: C_20  and  C_18 
REMARK   13  A    between atoms: C_18  and  O_24 
REMARK   14  A    between atoms: C_22  and  C_20 
REMARK   15  A    between atoms: C_22  and  O_23 
REMARK   16  A    between atoms: O_24  and  P_31 
REMARK   17  A    between atoms: P_31  and  O_25 
REMARK   18  A    between atoms: O_25  and  P_32 
REMARK   19  A    between atoms: P_32  and  O_26 
REMARK   20  A    between atoms: C_33  and  O_26 
REMARK   21  A    between atoms: P_31  and  O_28 
REMARK   22  A    between atoms: P_32  and  O_30 
REMARK   23  A    between atoms: N_47  and  C_43 
ROOT
HETATM    1  O   UNK N   1      37.015  16.104  10.773  0.00  0.00    -0.631 OA
HETATM    2  P   UNK N   1      35.553  15.620  10.572  0.00  0.00     0.401 P 
ENDROOT
BRANCH   2   3
HETATM    3  O   UNK N   1      35.069  14.709  11.974  0.00  0.00    -0.195 OA
BRANCH   3   4
HETATM    4  P   UNK N   1      36.380  13.616  12.204  0.00  0.00     0.401 P 
HETATM    5  O   UNK N   1      35.101  12.767  12.458  0.00  0.00    -0.631 OA
BRANCH   4   6
HETATM    6  O   UNK N   1      36.783  12.699  13.607  0.00  0.00    -0.296 OA
BRANCH   6   7
HETATM    7  C   UNK N   1      35.784  11.716  13.618  0.00  0.00     0.192 C 
BRANCH   7   8
HETATM    8  C   UNK N   1      35.593  11.104  14.998  0.00  0.00     0.009 C 
HETATM    9  C   UNK N   1      35.106   9.662  14.890  0.00  0.00     0.020 C 
HETATM   10  C   UNK N   1      36.964  11.080  15.649  0.00  0.00     0.020 C 
BRANCH   8  11
HETATM   11  C   UNK N   1      34.649  11.959  15.871  0.00  0.00     0.219 C 
BRANCH  11  12
HETATM   12  C   UNK N   1      35.183  12.314  17.242  0.00  0.00     0.247 C 
HETATM   13  N   UNK N   1      35.142  11.393  18.237  0.00  0.00    -0.358 N 
HETATM   14  H   UNK N   1      34.771  10.502  18.043  0.00  0.00     0.162 HD
HETATM   15  O   UNK N   1      35.610  13.439  17.461  0.00  0.00    -0.271 OA
BRANCH  13  16
HETATM   16  C   UNK N   1      35.619  11.669  19.568  0.00  0.00     0.132 C 
BRANCH  16  17
HETATM   17  C   UNK N   1      35.924  10.360  20.269  0.00  0.00     0.122 C 
BRANCH  17  18
HETATM   18  C   UNK N   1      34.890   9.324  19.945  0.00  0.00     0.219 C 
HETATM   19  N   UNK N   1      35.223   8.111  19.438  0.00  0.00    -0.360 N 
HETATM   20  H   UNK N   1      34.503   7.467  19.246  0.00  0.00     0.162 HD
HETATM   21  O   UNK N   1      33.713   9.593  20.121  0.00  0.00    -0.274 OA
BRANCH  19  22
HETATM   22  C   UNK N   1      36.584   7.722  19.169  0.00  0.00     0.132 C 
BRANCH  22  23
HETATM   23  C   UNK N   1      36.905   8.015  17.718  0.00  0.00     0.090 C 
BRANCH  23  24
HETATM   24  S   UNK N   1      38.557   7.382  17.322  0.00  0.00    -0.181 SA
HETATM   25  H   UNK N   1      39.594   7.575  18.180  0.00  0.00     0.101 HD
ENDBRANCH  23  24
ENDBRANCH  22  23
ENDBRANCH  19  22
ENDBRANCH  17  18
ENDBRANCH  16  17
ENDBRANCH  13  16
ENDBRANCH  11  12
BRANCH  11  26
HETATM   26  O   UNK N   1      34.272  13.114  15.177  0.00  0.00    -0.385 OA
HETATM   27  H   UNK N   1      33.744  13.837  15.550  0.00  0.00     0.210 HD
ENDBRANCH  11  26
ENDBRANCH   8  11
ENDBRANCH   7   8
ENDBRANCH   6   7
ENDBRANCH   4   6
BRANCH   4  28
HETATM   28  O   UNK N   1      36.462  14.764  13.510  0.00  0.00    -0.307 OA
HETATM   29  H   UNK N   1      37.280  15.029  13.958  0.00  0.00     0.222 HD
ENDBRANCH   4  28
ENDBRANCH   3   4
ENDBRANCH   2   3
BRANCH   2  30
HETATM   30  O   UNK N   1      35.551  14.594   9.180  0.00  0.00    -0.294 OA
BRANCH  30  31
HETATM   31  C   UNK N   1      34.198  14.461   8.868  0.00  0.00     0.215 C 
BRANCH  31  32
HETATM   32  C   UNK N   1      33.994  14.658   7.369  0.00  0.00     0.180 C 
HETATM   33  O   UNK N   1      32.657  15.021   7.144  0.00  0.00    -0.353 OA
HETATM   34  C   UNK N   1      32.706  16.402   7.312  0.00  0.00     0.262 C 
HETATM   35  C   UNK N   1      33.870  16.849   6.471  0.00  0.00     0.198 C 
HETATM   36  C   UNK N   1      34.874  15.803   6.879  0.00  0.00     0.182 C 
BRANCH  34  37
HETATM   37  N   UNK N   1      31.409  17.011   7.045  0.00  0.00    -0.297 N 
HETATM   38  C   UNK N   1      30.514  17.569   7.868  0.00  0.00     0.142 A 
HETATM   39  C   UNK N   1      29.437  17.954   7.156  0.00  0.00     0.122 A 
HETATM   40  N   UNK N   1      30.595  17.736   9.211  0.00  0.00    -0.336 N 
HETATM   41  C   UNK N   1      28.356  18.538   7.787  0.00  0.00     0.131 A 
HETATM   42  N   UNK N   1      29.617  17.661   5.856  0.00  0.00    -0.346 N 
HETATM   43  N   UNK N   1      28.424  18.712   9.140  0.00  0.00    -0.337 N 
HETATM   44  C   UNK N   1      29.533  18.318   9.850  0.00  0.00     0.183 A 
ATOM     45  HN  UNK N   1      27.640  19.141   9.632  1.00  0.00     0.168 HD
HETATM   46  C   UNK N   1      30.845  17.075   5.811  0.00  0.00     0.188 A 
ATOM     47  HN  UNK N   1      28.980  17.837   5.080  1.00  0.00     0.167 HD
ATOM     48  HN  UNK N   1      31.421  17.436   9.729  1.00  0.00     0.168 HD
BRANCH  41  49
HETATM   49  N   UNK N   1      27.213  18.933   7.065  0.00  0.00    -0.383 N 
HETATM   50  H   UNK N   1      27.212  18.893   6.081  0.00  0.00     0.157 HD
HETATM   51  H   UNK N   1      26.413  19.249   7.545  0.00  0.00     0.157 HD
ENDBRANCH  41  49
ENDBRANCH  34  37
BRANCH  35  52
HETATM   52  O   UNK N   1      34.310  18.117   6.843  0.00  0.00    -0.388 OA
HETATM   53  H   UNK N   1      34.965  18.823   6.719  0.00  0.00     0.210 HD
ENDBRANCH  35  52
BRANCH  36  54
HETATM   54  O   UNK N   1      35.620  15.404   5.772  0.00  0.00    -0.390 OA
HETATM   55  H   UNK N   1      35.595  14.633   5.183  0.00  0.00     0.210 HD
ENDBRANCH  36  54
ENDBRANCH  31  32
ENDBRANCH  30  31
ENDBRANCH   2  30
BRANCH   2  56
HETATM   56  O   UNK N   1      34.548  17.015  10.318  0.00  0.00    -0.307 OA
HETATM   57  H   UNK N   1      34.264  17.939  10.393  0.00  0.00     0.222 HD
ENDBRANCH   2  56
TORSDOF 23
ENDMDL
MODEL 8
REMARK VINA RESULT:      -5.4      2.753      5.944
REMARK  23 active torsions:
REMARK  status: ('A' for Active; 'I' for Inactive)
REMARK    1  A    between atoms: C_1  and  N_35 
REMARK    2  A    between atoms: C_3  and  O_6 
REMARK    3  A    between atoms: C_4  and  C_33 
REMARK    4  A    between atoms: C_5  and  O_34 
REMARK    5  A    between atoms: N_9  and  C_7 
REMARK    6  A    between atoms: C_7  and  C_8 
REMARK    7  A    between atoms: C_8  and  S_12 
REMARK       I    between atoms: C_10  and  N_9 
REMARK    8  A    between atoms: C_14  and  C_10 
REMARK    9  A    between atoms: C_13  and  N_15 
REMARK   10  A    between atoms: C_14  and  C_13 
REMARK       I    between atoms: C_17  and  N_15 
REMARK   11  A    between atoms: C_17  and  C_22 
REMARK   12  A    between atoms: C_20  and  C_18 
REMARK   13  A    between atoms: C_18  and  O_24 
REMARK   14  A    between atoms: C_22  and  C_20 
REMARK   15  A    between atoms: C_22  and  O_23 
REMARK   16  A    between atoms: O_24  and  P_31 
REMARK   17  A    between atoms: P_31  and  O_25 
REMARK   18  A    between atoms: O_25  and  P_32 
REMARK   19  A    between atoms: P_32  and  O_26 
REMARK   20  A    between atoms: C_33  and  O_26 
REMARK   21  A    between atoms: P_31  and  O_28 
REMARK   22  A    between atoms: P_32  and  O_30 
REMARK   23  A    between atoms: N_47  and  C_43 
ROOT
HETATM    1  O   UNK N   1      18.128  17.416   9.256  0.00  0.00    -0.631 OA
HETATM    2  P   UNK N   1      19.086  16.439   8.520  0.00  0.00     0.401 P 
ENDROOT
BRANCH   2   3
HETATM    3  O   UNK N   1      19.154  14.946   9.413  0.00  0.00    -0.195 OA
BRANCH   3   4
HETATM    4  P   UNK N   1      20.731  14.349   9.061  0.00  0.00     0.401 P 
HETATM    5  O   UNK N   1      19.923  14.148   7.746  0.00  0.00    -0.631 OA
BRANCH   4   6
HETATM    6  O   UNK N   1      21.193  12.769   8.548  0.00  0.00    -0.296 OA
BRANCH   6   7
HETATM    7  C   UNK N   1      22.438  13.003   7.947  0.00  0.00     0.192 C 
BRANCH   7   8
HETATM    8  C   UNK N   1      22.735  12.010   6.833  0.00  0.00     0.009 C 
HETATM    9  C   UNK N   1      23.676  10.912   7.322  0.00  0.00     0.020 C 
HETATM   10  C   UNK N   1      21.412  11.359   6.477  0.00  0.00     0.020 C 
BRANCH   8  11
HETATM   11  C   UNK N   1      23.290  12.717   5.578  0.00  0.00     0.219 C 
BRANCH  11  12
HETATM   12  C   UNK N   1      23.160  11.937   4.288  0.00  0.00     0.247 C 
HETATM   13  N   UNK N   1      22.417  12.440   3.271  0.00  0.00    -0.358 N 
HETATM   14  H   UNK N   1      21.981  13.314   3.391  0.00  0.00     0.162 HD
HETATM   15  O   UNK N   1      23.689  10.839   4.180  0.00  0.00    -0.271 OA
BRANCH  13  16
HETATM   16  C   UNK N   1      22.240  11.743   2.023  0.00  0.00     0.132 C 
BRANCH  16  17
HETATM   17  C   UNK N   1      23.285  12.221   1.034  0.00  0.00     0.122 C 
BRANCH  17  18
HETATM   18  C   UNK N   1      23.260  13.715   0.908  0.00  0.00     0.219 C 
HETATM   19  N   UNK N   1      24.315  14.484   1.276  0.00  0.00    -0.360 N 
HETATM   20  H   UNK N   1      24.246  15.461   1.169  0.00  0.00     0.162 HD
HETATM   21  O   UNK N   1      22.251  14.253   0.483  0.00  0.00    -0.274 OA
BRANCH  19  22
HETATM   22  C   UNK N   1      25.532  13.936   1.817  0.00  0.00     0.132 C 
BRANCH  22  23
HETATM   23  C   UNK N   1      25.719  14.442   3.231  0.00  0.00     0.090 C 
BRANCH  23  24
HETATM   24  S   UNK N   1      25.639  16.253   3.245  0.00  0.00    -0.181 SA
HETATM   25  H   UNK N   1      26.319  16.981   2.319  0.00  0.00     0.101 HD
ENDBRANCH  23  24
ENDBRANCH  22  23
ENDBRANCH  19  22
ENDBRANCH  17  18
ENDBRANCH  16  17
ENDBRANCH  13  16
ENDBRANCH  11  12
BRANCH  11  26
HETATM   26  O   UNK N   1      22.710  13.984   5.446  0.00  0.00    -0.385 OA
HETATM   27  H   UNK N   1      21.876  14.167   4.987  0.00  0.00     0.210 HD
ENDBRANCH  11  26
ENDBRANCH   8  11
ENDBRANCH   7   8
ENDBRANCH   6   7
ENDBRANCH   4   6
BRANCH   4  28
HETATM   28  O   UNK N   1      20.038  13.254  10.223  0.00  0.00    -0.307 OA
HETATM   29  H   UNK N   1      19.407  12.550  10.008  0.00  0.00     0.222 HD
ENDBRANCH   4  28
ENDBRANCH   3   4
ENDBRANCH   2   3
BRANCH   2  30
HETATM   30  O   UNK N   1      20.647  17.182   8.506  0.00  0.00    -0.294 OA
BRANCH  30  31
HETATM   31  C   UNK N   1      20.691  17.837   7.275  0.00  0.00     0.215 C 
BRANCH  31  32
HETATM   32  C   UNK N   1      21.797  17.236   6.413  0.00  0.00     0.180 C 
HETATM   33  O   UNK N   1      21.234  16.246   5.593  0.00  0.00    -0.353 OA
HETATM   34  C   UNK N   1      20.799  16.994   4.502  0.00  0.00     0.262 C 
HETATM   35  C   UNK N   1      21.979  17.849   4.129  0.00  0.00     0.198 C 
HETATM   36  C   UNK N   1      22.379  18.313   5.505  0.00  0.00     0.182 C 
BRANCH  34  37
HETATM   37  N   UNK N   1      20.235  16.137   3.467  0.00  0.00    -0.297 N 
HETATM   38  C   UNK N   1      19.714  14.906   3.532  0.00  0.00     0.142 A 
HETATM   39  C   UNK N   1      19.364  14.507   2.294  0.00  0.00     0.122 A 
HETATM   40  N   UNK N   1      19.552  14.118   4.622  0.00  0.00    -0.336 N 
HETATM   41  C   UNK N   1      18.822  13.253   2.093  0.00  0.00     0.131 A 
HETATM   42  N   UNK N   1      19.643  15.475   1.403  0.00  0.00    -0.346 N 
HETATM   43  N   UNK N   1      18.653  12.447   3.183  0.00  0.00    -0.337 N 
HETATM   44  C   UNK N   1      19.012  12.873   4.440  0.00  0.00     0.183 A 
ATOM     45  HN  UNK N   1      18.255  11.515   3.063  1.00  0.00     0.168 HD
HETATM   46  C   UNK N   1      20.184  16.474   2.152  0.00  0.00     0.188 A 
ATOM     47  HN  UNK N   1      19.485  15.464   0.396  1.00  0.00     0.167 HD
ATOM     48  HN  UNK N   1      19.825  14.442   5.551  1.00  0.00     0.168 HD
BRANCH  41  49
HETATM   49  N   UNK N   1      18.464  12.808   0.804  0.00  0.00    -0.383 N 
HETATM   50  H   UNK N   1      18.735  11.913   0.498  0.00  0.00     0.157 HD
HETATM   51  H   UNK N   1      17.941  13.394   0.210  0.00  0.00     0.157 HD
ENDBRANCH  41  49
ENDBRANCH  34  37
BRANCH  35  52
HETATM   52  O   UNK N   1      21.594  18.933   3.343  0.00  0.00    -0.388 OA
HETATM   53  H   UNK N   1      21.606  19.895   3.217  0.00  0.00     0.210 HD
ENDBRANCH  35  52
BRANCH  36  54
HETATM   54  O   UNK N   1      23.769  18.339   5.611  0.00  0.00    -0.390 OA
HETATM   55  H   UNK N   1      24.488  18.579   5.005  0.00  0.00     0.210 HD
ENDBRANCH  36  54
ENDBRANCH  31  32
ENDBRANCH  30  31
ENDBRANCH   2  30
BRANCH   2  56
HETATM   56  O   UNK N   1      18.491  16.209   6.903  0.00  0.00    -0.307 OA
HETATM   57  H   UNK N   1      17.864  15.959   6.207  0.00  0.00     0.222 HD
ENDBRANCH   2  56
TORSDOF 23
ENDMDL
MODEL 9
REMARK VINA RESULT:      -5.3      2.011      3.303
REMARK  23 active torsions:
REMARK  status: ('A' for Active; 'I' for Inactive)
REMARK    1  A    between atoms: C_1  and  N_35 
REMARK    2  A    between atoms: C_3  and  O_6 
REMARK    3  A    between atoms: C_4  and  C_33 
REMARK    4  A    between atoms: C_5  and  O_34 
REMARK    5  A    between atoms: N_9  and  C_7 
REMARK    6  A    between atoms: C_7  and  C_8 
REMARK    7  A    between atoms: C_8  and  S_12 
REMARK       I    between atoms: C_10  and  N_9 
REMARK    8  A    between atoms: C_14  and  C_10 
REMARK    9  A    between atoms: C_13  and  N_15 
REMARK   10  A    between atoms: C_14  and  C_13 
REMARK       I    between atoms: C_17  and  N_15 
REMARK   11  A    between atoms: C_17  and  C_22 
REMARK   12  A    between atoms: C_20  and  C_18 
REMARK   13  A    between atoms: C_18  and  O_24 
REMARK   14  A    between atoms: C_22  and  C_20 
REMARK   15  A    between atoms: C_22  and  O_23 
REMARK   16  A    between atoms: O_24  and  P_31 
REMARK   17  A    between atoms: P_31  and  O_25 
REMARK   18  A    between atoms: O_25  and  P_32 
REMARK   19  A    between atoms: P_32  and  O_26 
REMARK   20  A    between atoms: C_33  and  O_26 
REMARK   21  A    between atoms: P_31  and  O_28 
REMARK   22  A    between atoms: P_32  and  O_30 
REMARK   23  A    between atoms: N_47  and  C_43 
ROOT
HETATM    1  O   UNK N   1      19.672  14.301   8.588  0.00  0.00    -0.631 OA
HETATM    2  P   UNK N   1      21.051  15.017   8.597  0.00  0.00     0.401 P 
ENDROOT
BRANCH   2   3
HETATM    3  O   UNK N   1      21.832  14.743   7.066  0.00  0.00    -0.195 OA
BRANCH   3   4
HETATM    4  P   UNK N   1      20.602  13.983   6.128  0.00  0.00     0.401 P 
HETATM    5  O   UNK N   1      21.883  13.909   5.247  0.00  0.00    -0.631 OA
BRANCH   4   6
HETATM    6  O   UNK N   1      20.030  14.409   4.558  0.00  0.00    -0.296 OA
BRANCH   6   7
HETATM    7  C   UNK N   1      21.083  13.991   3.733  0.00  0.00     0.192 C 
BRANCH   7   8
HETATM    8  C   UNK N   1      20.881  14.410   2.285  0.00  0.00     0.009 C 
HETATM    9  C   UNK N   1      22.192  14.899   1.674  0.00  0.00     0.020 C 
HETATM   10  C   UNK N   1      20.460  13.162   1.533  0.00  0.00     0.020 C 
BRANCH   8  11
HETATM   11  C   UNK N   1      19.763  15.467   2.152  0.00  0.00     0.219 C 
BRANCH  11  12
HETATM   12  C   UNK N   1      20.208  16.902   2.329  0.00  0.00     0.247 C 
HETATM   13  N   UNK N   1      20.462  17.377   3.574  0.00  0.00    -0.358 N 
HETATM   14  H   UNK N   1      20.360  16.770   4.342  0.00  0.00     0.162 HD
HETATM   15  O   UNK N   1      20.296  17.641   1.358  0.00  0.00    -0.271 OA
BRANCH  13  16
HETATM   16  C   UNK N   1      20.875  18.736   3.814  0.00  0.00     0.132 C 
BRANCH  16  17
HETATM   17  C   UNK N   1      22.287  18.737   4.367  0.00  0.00     0.122 C 
BRANCH  17  18
HETATM   18  C   UNK N   1      22.353  18.000   5.671  0.00  0.00     0.219 C 
HETATM   19  N   UNK N   1      23.167  16.931   5.851  0.00  0.00    -0.360 N 
HETATM   20  H   UNK N   1      23.173  16.486   6.730  0.00  0.00     0.162 HD
HETATM   21  O   UNK N   1      21.633  18.362   6.588  0.00  0.00    -0.274 OA
BRANCH  19  22
HETATM   22  C   UNK N   1      24.025  16.418   4.814  0.00  0.00     0.132 C 
BRANCH  22  23
HETATM   23  C   UNK N   1      25.469  16.657   5.201  0.00  0.00     0.090 C 
BRANCH  23  24
HETATM   24  S   UNK N   1      26.175  17.951   4.145  0.00  0.00    -0.181 SA
HETATM   25  H   UNK N   1      27.521  18.140   4.093  0.00  0.00     0.101 HD
ENDBRANCH  23  24
ENDBRANCH  22  23
ENDBRANCH  19  22
ENDBRANCH  17  18
ENDBRANCH  16  17
ENDBRANCH  13  16
ENDBRANCH  11  12
BRANCH  11  26
HETATM   26  O   UNK N   1      19.096  15.306   0.932  0.00  0.00    -0.385 OA
HETATM   27  H   UNK N   1      19.435  14.800   0.178  0.00  0.00     0.210 HD
ENDBRANCH  11  26
ENDBRANCH   8  11
ENDBRANCH   7   8
ENDBRANCH   6   7
ENDBRANCH   4   6
BRANCH   4  28
HETATM   28  O   UNK N   1      20.180  15.669   6.221  0.00  0.00    -0.307 OA
HETATM   29  H   UNK N   1      19.306  16.005   6.474  0.00  0.00     0.222 HD
ENDBRANCH   4  28
ENDBRANCH   3   4
ENDBRANCH   2   3
BRANCH   2  30
HETATM   30  O   UNK N   1      21.981  14.299   9.865  0.00  0.00    -0.294 OA
BRANCH  30  31
HETATM   31  C   UNK N   1      21.784  12.929   9.685  0.00  0.00     0.215 C 
BRANCH  31  32
HETATM   32  C   UNK N   1      23.113  12.195   9.830  0.00  0.00     0.180 C 
HETATM   33  O   UNK N   1      23.215  11.250   8.798  0.00  0.00    -0.353 OA
HETATM   34  C   UNK N   1      23.758  12.013   7.767  0.00  0.00     0.262 C 
HETATM   35  C   UNK N   1      24.922  12.729   8.393  0.00  0.00     0.198 C 
HETATM   36  C   UNK N   1      24.263  13.182   9.670  0.00  0.00     0.182 C 
BRANCH  34  37
HETATM   37  N   UNK N   1      24.024  11.195   6.591  0.00  0.00    -0.297 N 
HETATM   38  C   UNK N   1      24.336  11.536   5.335  0.00  0.00     0.142 A 
HETATM   39  C   UNK N   1      24.443  10.422   4.586  0.00  0.00     0.122 A 
HETATM   40  N   UNK N   1      24.510  12.778   4.819  0.00  0.00    -0.336 N 
HETATM   41  C   UNK N   1      24.735  10.512   3.239  0.00  0.00     0.131 A 
HETATM   42  N   UNK N   1      24.211   9.335   5.344  0.00  0.00    -0.346 N 
HETATM   43  N   UNK N   1      24.913  11.757   2.706  0.00  0.00    -0.337 N 
HETATM   44  C   UNK N   1      24.805  12.883   3.487  0.00  0.00     0.183 A 
ATOM     45  HN  UNK N   1      25.129  11.853   1.713  1.00  0.00     0.168 HD
HETATM   46  C   UNK N   1      23.952   9.839   6.581  0.00  0.00     0.188 A 
ATOM     47  HN  UNK N   1      24.227   8.357   5.058  1.00  0.00     0.167 HD
ATOM     48  HN  UNK N   1      24.424  13.608   5.407  1.00  0.00     0.168 HD
BRANCH  41  49
HETATM   49  N   UNK N   1      24.835   9.360   2.433  0.00  0.00    -0.383 N 
HETATM   50  H   UNK N   1      24.076   9.084   1.870  0.00  0.00     0.157 HD
HETATM   51  H   UNK N   1      25.666   8.832   2.433  0.00  0.00     0.157 HD
ENDBRANCH  41  49
ENDBRANCH  34  37
BRANCH  35  52
HETATM   52  O   UNK N   1      25.313  13.828   7.632  0.00  0.00    -0.388 OA
HETATM   53  H   UNK N   1      25.144  14.384   6.854  0.00  0.00     0.210 HD
ENDBRANCH  35  52
BRANCH  36  54
HETATM   54  O   UNK N   1      25.157  13.064  10.733  0.00  0.00    -0.390 OA
HETATM   55  H   UNK N   1      25.296  13.558  11.556  0.00  0.00     0.210 HD
ENDBRANCH  36  54
ENDBRANCH  31  32
ENDBRANCH  30  31
ENDBRANCH   2  30
BRANCH   2  56
HETATM   56  O   UNK N   1      20.782  16.707   8.902  0.00  0.00    -0.307 OA
HETATM   57  H   UNK N   1      20.957  17.660   8.875  0.00  0.00     0.222 HD
ENDBRANCH   2  56
TORSDOF 23
ENDMDL
