REMARK  12 active torsions:
REMARK  status: ('A' for Active; 'I' for Inactive)
REMARK    1  A    between atoms: C_20  and  C_6 
REMARK    2  A    between atoms: C_9  and  C_7 
REMARK    3  A    between atoms: C_21  and  C_7 
REMARK    4  A    between atoms: C_10  and  C_8 
REMARK    5  A    between atoms: C_22  and  C_8 
REMARK    6  A    between atoms: C_32  and  C_9 
REMARK    7  A    between atoms: C_33  and  C_10 
REMARK    8  A    between atoms: C_23  and  C_15 
REMARK    9  A    between atoms: O_42  and  C_15 
REMARK   10  A    between atoms: O_44  and  C_32 
REMARK   11  A    between atoms: O_46  and  C_33 
REMARK   12  A    between atoms: Fe_47  and  Fe_47 
ROOT
HETATM    1 Fe   UNK N   1       7.061  -0.682   0.116  0.00  0.00     0.000 Fe
ENDROOT
TORSDOF 12
