MODEL 1
REMARK VINA RESULT:      -8.3      0.000      0.000
REMARK  11 active torsions:
REMARK  status: ('A' for Active; 'I' for Inactive)
REMARK    1  A    between atoms: C_2  and  O_1 
REMARK    2  A    between atoms: N_4  and  S_33 
REMARK    3  A    between atoms: N_5  and  C_6 
REMARK    4  A    between atoms: C_6  and  C_7 
REMARK    5  A    between atoms: C_10  and  O_11 
REMARK    6  A    between atoms: N_16  and  C_17 
REMARK    7  A    between atoms: C_17  and  C_18 
REMARK    8  A    between atoms: C_21  and  O_22 
REMARK    9  A    between atoms: C_25  and  C_26 
REMARK   10  A    between atoms: C_26  and  C_27 
REMARK   11  A    between atoms: S_33  and  C_36 
ROOT
HETATM    1  C   UNK N   1      27.932  17.930   5.394  0.00  0.00     0.172 C 
HETATM    2  C   UNK N   1      28.259  17.163   6.518  0.00  0.00    -0.002 C 
HETATM    3  C   UNK N   1      28.549  17.802   7.726  0.00  0.00    -0.001 C 
HETATM    4  C   UNK N   1      28.252  19.166   7.845  0.00  0.00     0.022 C 
HETATM    5  C   UNK N   1      27.981  19.903   6.692  0.00  0.00     0.042 C 
HETATM    6  C   UNK N   1      28.077  19.320   5.469  0.00  0.00     0.021 C 
HETATM    7  C   UNK N   1      27.025  20.969   6.736  0.00  0.00     0.099 C 
HETATM    8  N   UNK N   1      26.251  21.828   6.694  0.00  0.00    -0.191 NA
ENDROOT
BRANCH   1   9
HETATM    9  S   UNK N   1      26.306  17.487   4.763  0.00  0.00     0.239 S 
HETATM   10  O   UNK N   1      26.670  17.865   3.327  0.00  0.00    -0.209 OA
HETATM   11  O   UNK N   1      27.175  16.218   4.889  0.00  0.00    -0.209 OA
BRANCH   9  12
HETATM   12  N   UNK N   1      25.365  16.117   4.257  0.00  0.00    -0.111 NA
HETATM   13  C   UNK N   1      25.990  15.352   5.264  0.00  0.00     0.166 C 
HETATM   14  C   UNK N   1      25.531  14.039   5.243  0.00  0.00     0.157 C 
HETATM   15  C   UNK N   1      24.575  14.205   6.395  0.00  0.00     0.123 C 
HETATM   16  N   UNK N   1      23.272  14.571   5.914  0.00  0.00    -0.321 N 
HETATM   17  C   UNK N   1      23.040  15.330   4.816  0.00  0.00     0.336 C 
HETATM   18  N   UNK N   1      23.934  16.229   4.262  0.00  0.00    -0.247 N 
HETATM   19  O   UNK N   1      21.930  15.222   4.295  0.00  0.00    -0.246 OA
BRANCH  14  20
HETATM   20  O   UNK N   1      26.646  13.241   5.430  0.00  0.00    -0.392 OA
HETATM   21  H   UNK N   1      27.547  13.547   5.242  0.00  0.00     0.210 HD
ENDBRANCH  14  20
BRANCH  15  22
HETATM   22  C   UNK N   1      24.982  14.412   7.877  0.00  0.00     0.066 C 
BRANCH  22  23
HETATM   23  C   UNK N   1      24.668  13.087   8.487  0.00  0.00    -0.056 A 
HETATM   24  C   UNK N   1      24.319  13.056   9.850  0.00  0.00     0.007 A 
HETATM   25  C   UNK N   1      23.579  11.993  10.362  0.00  0.00     0.001 A 
HETATM   26  C   UNK N   1      23.184  10.952   9.518  0.00  0.00     0.000 A 
HETATM   27  C   UNK N   1      23.578  10.948   8.174  0.00  0.00     0.001 A 
HETATM   28  C   UNK N   1      24.304  12.025   7.650  0.00  0.00     0.007 A 
ENDBRANCH  22  23
ENDBRANCH  15  22
BRANCH  16  29
HETATM   29  C   UNK N   1      22.125  13.903   6.446  0.00  0.00     0.166 C 
BRANCH  29  30
HETATM   30  C   UNK N   1      21.540  14.705   7.517  0.00  0.00    -0.040 C 
HETATM   31  C   UNK N   1      20.968  14.032   8.577  0.00  0.00     0.011 C 
HETATM   32  C   UNK N   1      20.002  14.679   9.331  0.00  0.00     0.037 C 
HETATM   33  C   UNK N   1      19.608  15.979   8.990  0.00  0.00     0.065 C 
HETATM   34  C   UNK N   1      20.277  16.689   8.006  0.00  0.00     0.037 C 
HETATM   35  C   UNK N   1      21.244  16.050   7.280  0.00  0.00     0.011 C 
BRANCH  33  36
HETATM   36  O   UNK N   1      18.542  16.527   9.575  0.00  0.00    -0.361 OA
HETATM   37  H   UNK N   1      17.992  16.032  10.148  0.00  0.00     0.217 HD
ENDBRANCH  33  36
ENDBRANCH  29  30
ENDBRANCH  16  29
BRANCH  18  38
HETATM   38  C   UNK N   1      23.313  17.233   3.413  0.00  0.00     0.161 C 
BRANCH  38  39
HETATM   39  C   UNK N   1      22.869  18.507   4.172  0.00  0.00     0.050 C 
HETATM   40  C   UNK N   1      23.627  19.565   3.699  0.00  0.00    -0.014 C 
HETATM   41  C   UNK N   1      23.051  20.470   2.812  0.00  0.00     0.033 C 
HETATM   42  C   UNK N   1      21.694  20.367   2.505  0.00  0.00     0.065 C 
HETATM   43  C   UNK N   1      20.875  19.562   3.289  0.00  0.00     0.033 C 
HETATM   44  C   UNK N   1      21.474  18.713   4.218  0.00  0.00    -0.014 C 
BRANCH  42  45
HETATM   45  O   UNK N   1      21.189  21.038   1.462  0.00  0.00    -0.361 OA
HETATM   46  H   UNK N   1      20.824  20.628   0.703  0.00  0.00     0.217 HD
ENDBRANCH  42  45
ENDBRANCH  38  39
ENDBRANCH  18  38
ENDBRANCH   9  12
ENDBRANCH   1   9
TORSDOF 11
ENDMDL
MODEL 2
REMARK VINA RESULT:      -8.2      3.253      7.501
REMARK  11 active torsions:
REMARK  status: ('A' for Active; 'I' for Inactive)
REMARK    1  A    between atoms: C_2  and  O_1 
REMARK    2  A    between atoms: N_4  and  S_33 
REMARK    3  A    between atoms: N_5  and  C_6 
REMARK    4  A    between atoms: C_6  and  C_7 
REMARK    5  A    between atoms: C_10  and  O_11 
REMARK    6  A    between atoms: N_16  and  C_17 
REMARK    7  A    between atoms: C_17  and  C_18 
REMARK    8  A    between atoms: C_21  and  O_22 
REMARK    9  A    between atoms: C_25  and  C_26 
REMARK   10  A    between atoms: C_26  and  C_27 
REMARK   11  A    between atoms: S_33  and  C_36 
ROOT
HETATM    1  C   UNK N   1      25.254  13.270   1.977  0.00  0.00     0.172 C 
HETATM    2  C   UNK N   1      24.440  14.196   1.314  0.00  0.00    -0.002 C 
HETATM    3  C   UNK N   1      23.697  13.787   0.204  0.00  0.00    -0.001 C 
HETATM    4  C   UNK N   1      23.586  12.414  -0.053  0.00  0.00     0.022 C 
HETATM    5  C   UNK N   1      24.451  11.532   0.594  0.00  0.00     0.042 C 
HETATM    6  C   UNK N   1      25.434  12.007   1.403  0.00  0.00     0.021 C 
HETATM    7  C   UNK N   1      23.990  10.229   0.970  0.00  0.00     0.099 C 
HETATM    8  N   UNK N   1      23.679   9.171   1.321  0.00  0.00    -0.191 NA
ENDROOT
BRANCH   1   9
HETATM    9  S   UNK N   1      24.786  13.126   3.709  0.00  0.00     0.239 S 
HETATM   10  O   UNK N   1      26.184  13.498   4.203  0.00  0.00    -0.209 OA
HETATM   11  O   UNK N   1      24.362  14.510   3.172  0.00  0.00    -0.209 OA
BRANCH   9  12
HETATM   12  N   UNK N   1      24.006  14.005   4.990  0.00  0.00    -0.111 NA
HETATM   13  C   UNK N   1      25.064  14.938   4.954  0.00  0.00     0.166 C 
HETATM   14  C   UNK N   1      24.881  15.929   5.913  0.00  0.00     0.157 C 
HETATM   15  C   UNK N   1      24.351  16.961   4.951  0.00  0.00     0.123 C 
HETATM   16  N   UNK N   1      22.918  16.890   4.884  0.00  0.00    -0.321 N 
HETATM   17  C   UNK N   1      22.194  15.753   5.016  0.00  0.00     0.336 C 
HETATM   18  N   UNK N   1      22.665  14.473   4.781  0.00  0.00    -0.247 N 
HETATM   19  O   UNK N   1      21.015  15.885   5.345  0.00  0.00    -0.246 OA
BRANCH  14  20
HETATM   20  O   UNK N   1      26.123  16.145   6.483  0.00  0.00    -0.392 OA
HETATM   21  H   UNK N   1      26.431  15.664   7.266  0.00  0.00     0.210 HD
ENDBRANCH  14  20
BRANCH  15  22
HETATM   22  C   UNK N   1      25.183  17.680   3.858  0.00  0.00     0.066 C 
BRANCH  22  23
HETATM   23  C   UNK N   1      26.058  18.583   4.659  0.00  0.00    -0.056 A 
HETATM   24  C   UNK N   1      27.428  18.627   4.337  0.00  0.00     0.007 A 
HETATM   25  C   UNK N   1      28.196  19.735   4.685  0.00  0.00     0.001 A 
HETATM   26  C   UNK N   1      27.604  20.807   5.358  0.00  0.00     0.000 A 
HETATM   27  C   UNK N   1      26.256  20.744   5.733  0.00  0.00     0.001 A 
HETATM   28  C   UNK N   1      25.475  19.641   5.367  0.00  0.00     0.007 A 
ENDBRANCH  22  23
ENDBRANCH  15  22
BRANCH  16  29
HETATM   29  C   UNK N   1      22.162  18.103   4.938  0.00  0.00     0.166 C 
BRANCH  29  30
HETATM   30  C   UNK N   1      21.957  18.618   3.587  0.00  0.00    -0.040 C 
HETATM   31  C   UNK N   1      22.504  19.848   3.284  0.00  0.00     0.011 C 
HETATM   32  C   UNK N   1      21.951  20.584   2.248  0.00  0.00     0.037 C 
HETATM   33  C   UNK N   1      20.842  20.083   1.553  0.00  0.00     0.065 C 
HETATM   34  C   UNK N   1      20.383  18.797   1.781  0.00  0.00     0.037 C 
HETATM   35  C   UNK N   1      20.948  18.068   2.792  0.00  0.00     0.011 C 
BRANCH  33  36
HETATM   36  O   UNK N   1      20.180  20.868   0.702  0.00  0.00    -0.361 OA
HETATM   37  H   UNK N   1      20.546  21.106  -0.127  0.00  0.00     0.217 HD
ENDBRANCH  33  36
ENDBRANCH  29  30
ENDBRANCH  16  29
BRANCH  18  38
HETATM   38  C   UNK N   1      21.619  13.494   4.534  0.00  0.00     0.161 C 
BRANCH  38  39
HETATM   39  C   UNK N   1      21.399  13.179   3.034  0.00  0.00     0.050 C 
HETATM   40  C   UNK N   1      21.087  11.833   2.929  0.00  0.00    -0.014 C 
HETATM   41  C   UNK N   1      19.765  11.458   2.711  0.00  0.00     0.033 C 
HETATM   42  C   UNK N   1      18.796  12.437   2.489  0.00  0.00     0.065 C 
HETATM   43  C   UNK N   1      19.193  13.738   2.202  0.00  0.00     0.033 C 
HETATM   44  C   UNK N   1      20.537  14.072   2.362  0.00  0.00    -0.014 C 
BRANCH  42  45
HETATM   45  O   UNK N   1      17.496  12.123   2.555  0.00  0.00    -0.361 OA
HETATM   46  H   UNK N   1      16.807  12.676   2.244  0.00  0.00     0.217 HD
ENDBRANCH  42  45
ENDBRANCH  38  39
ENDBRANCH  18  38
ENDBRANCH   9  12
ENDBRANCH   1   9
TORSDOF 11
ENDMDL
MODEL 3
REMARK VINA RESULT:      -8.0      2.513      5.897
REMARK  11 active torsions:
REMARK  status: ('A' for Active; 'I' for Inactive)
REMARK    1  A    between atoms: C_2  and  O_1 
REMARK    2  A    between atoms: N_4  and  S_33 
REMARK    3  A    between atoms: N_5  and  C_6 
REMARK    4  A    between atoms: C_6  and  C_7 
REMARK    5  A    between atoms: C_10  and  O_11 
REMARK    6  A    between atoms: N_16  and  C_17 
REMARK    7  A    between atoms: C_17  and  C_18 
REMARK    8  A    between atoms: C_21  and  O_22 
REMARK    9  A    between atoms: C_25  and  C_26 
REMARK   10  A    between atoms: C_26  and  C_27 
REMARK   11  A    between atoms: S_33  and  C_36 
ROOT
HETATM    1  C   UNK N   1      20.704  17.396   3.712  0.00  0.00     0.172 C 
HETATM    2  C   UNK N   1      20.451  16.671   2.542  0.00  0.00    -0.002 C 
HETATM    3  C   UNK N   1      20.214  17.354   1.347  0.00  0.00    -0.001 C 
HETATM    4  C   UNK N   1      20.494  18.726   1.298  0.00  0.00     0.022 C 
HETATM    5  C   UNK N   1      20.691  19.419   2.493  0.00  0.00     0.042 C 
HETATM    6  C   UNK N   1      20.541  18.785   3.685  0.00  0.00     0.021 C 
HETATM    7  C   UNK N   1      21.630  20.500   2.543  0.00  0.00     0.099 C 
HETATM    8  N   UNK N   1      22.386  21.368   2.661  0.00  0.00    -0.191 NA
ENDROOT
BRANCH   1   9
HETATM    9  S   UNK N   1      22.303  16.952   4.410  0.00  0.00     0.239 S 
HETATM   10  O   UNK N   1      22.751  18.409   4.522  0.00  0.00    -0.209 OA
HETATM   11  O   UNK N   1      21.235  16.958   5.525  0.00  0.00    -0.209 OA
BRANCH   9  12
HETATM   12  N   UNK N   1      23.062  16.512   5.910  0.00  0.00    -0.111 NA
HETATM   13  C   UNK N   1      21.787  16.212   6.435  0.00  0.00     0.166 C 
HETATM   14  C   UNK N   1      21.884  15.792   7.756  0.00  0.00     0.157 C 
HETATM   15  C   UNK N   1      21.760  14.322   7.448  0.00  0.00     0.123 C 
HETATM   16  N   UNK N   1      23.060  13.740   7.264  0.00  0.00    -0.321 N 
HETATM   17  C   UNK N   1      24.127  14.386   6.736  0.00  0.00     0.336 C 
HETATM   18  N   UNK N   1      24.063  15.482   5.895  0.00  0.00    -0.247 N 
HETATM   19  O   UNK N   1      25.238  13.932   7.011  0.00  0.00    -0.246 OA
BRANCH  14  20
HETATM   20  O   UNK N   1      20.844  16.406   8.431  0.00  0.00    -0.392 OA
HETATM   21  H   UNK N   1      20.955  16.820   9.301  0.00  0.00     0.210 HD
ENDBRANCH  14  20
BRANCH  15  22
HETATM   22  C   UNK N   1      20.474  13.615   6.947  0.00  0.00     0.066 C 
BRANCH  22  23
HETATM   23  C   UNK N   1      20.980  12.785   5.817  0.00  0.00    -0.056 A 
HETATM   24  C   UNK N   1      20.838  11.388   5.911  0.00  0.00     0.007 A 
HETATM   25  C   UNK N   1      20.838  10.602   4.762  0.00  0.00     0.001 A 
HETATM   26  C   UNK N   1      20.982  11.204   3.509  0.00  0.00     0.000 A 
HETATM   27  C   UNK N   1      21.183  12.587   3.412  0.00  0.00     0.001 A 
HETATM   28  C   UNK N   1      21.163  13.383   4.563  0.00  0.00     0.007 A 
ENDBRANCH  22  23
ENDBRANCH  15  22
BRANCH  16  29
HETATM   29  C   UNK N   1      23.356  12.493   7.899  0.00  0.00     0.166 C 
BRANCH  29  30
HETATM   30  C   UNK N   1      23.227  12.635   9.348  0.00  0.00    -0.040 C 
HETATM   31  C   UNK N   1      24.368  12.479  10.107  0.00  0.00     0.011 C 
HETATM   32  C   UNK N   1      24.237  12.115  11.438  0.00  0.00     0.037 C 
HETATM   33  C   UNK N   1      22.963  11.886  11.974  0.00  0.00     0.065 C 
HETATM   34  C   UNK N   1      21.822  12.167  11.240  0.00  0.00     0.037 C 
HETATM   35  C   UNK N   1      21.961  12.547   9.932  0.00  0.00     0.011 C 
BRANCH  33  36
HETATM   36  O   UNK N   1      22.838  11.338  13.184  0.00  0.00    -0.361 OA
HETATM   37  H   UNK N   1      23.456  10.711  13.501  0.00  0.00     0.217 HD
ENDBRANCH  33  36
ENDBRANCH  29  30
ENDBRANCH  16  29
BRANCH  18  38
HETATM   38  C   UNK N   1      25.266  15.696   5.106  0.00  0.00     0.161 C 
BRANCH  38  39
HETATM   39  C   UNK N   1      26.087  16.935   5.540  0.00  0.00     0.050 C 
HETATM   40  C   UNK N   1      27.300  16.483   6.034  0.00  0.00    -0.014 C 
HETATM   41  C   UNK N   1      28.440  16.597   5.244  0.00  0.00     0.033 C 
HETATM   42  C   UNK N   1      28.368  17.265   4.021  0.00  0.00     0.065 C 
HETATM   43  C   UNK N   1      27.256  18.049   3.735  0.00  0.00     0.033 C 
HETATM   44  C   UNK N   1      26.152  17.968   4.581  0.00  0.00    -0.014 C 
BRANCH  42  45
HETATM   45  O   UNK N   1      29.363  17.148   3.133  0.00  0.00    -0.361 OA
HETATM   46  H   UNK N   1      30.025  17.797   2.998  0.00  0.00     0.217 HD
ENDBRANCH  42  45
ENDBRANCH  38  39
ENDBRANCH  18  38
ENDBRANCH   9  12
ENDBRANCH   1   9
TORSDOF 11
ENDMDL
MODEL 4
REMARK VINA RESULT:      -7.9      2.720      6.113
REMARK  11 active torsions:
REMARK  status: ('A' for Active; 'I' for Inactive)
REMARK    1  A    between atoms: C_2  and  O_1 
REMARK    2  A    between atoms: N_4  and  S_33 
REMARK    3  A    between atoms: N_5  and  C_6 
REMARK    4  A    between atoms: C_6  and  C_7 
REMARK    5  A    between atoms: C_10  and  O_11 
REMARK    6  A    between atoms: N_16  and  C_17 
REMARK    7  A    between atoms: C_17  and  C_18 
REMARK    8  A    between atoms: C_21  and  O_22 
REMARK    9  A    between atoms: C_25  and  C_26 
REMARK   10  A    between atoms: C_26  and  C_27 
REMARK   11  A    between atoms: S_33  and  C_36 
ROOT
HETATM    1  C   UNK N   1      20.178  17.040   3.119  0.00  0.00     0.172 C 
HETATM    2  C   UNK N   1      20.217  15.996   2.188  0.00  0.00    -0.002 C 
HETATM    3  C   UNK N   1      20.064  16.280   0.829  0.00  0.00    -0.001 C 
HETATM    4  C   UNK N   1      20.139  17.618   0.417  0.00  0.00     0.022 C 
HETATM    5  C   UNK N   1      20.046  18.627   1.375  0.00  0.00     0.042 C 
HETATM    6  C   UNK N   1      19.814  18.316   2.677  0.00  0.00     0.021 C 
HETATM    7  C   UNK N   1      20.793  19.838   1.209  0.00  0.00     0.099 C 
HETATM    8  N   UNK N   1      21.384  20.831   1.149  0.00  0.00    -0.191 NA
ENDROOT
BRANCH   1   9
HETATM    9  S   UNK N   1      21.700  17.104   4.078  0.00  0.00     0.239 S 
HETATM   10  O   UNK N   1      21.406  18.508   4.605  0.00  0.00    -0.209 OA
HETATM   11  O   UNK N   1      20.622  16.335   4.871  0.00  0.00    -0.209 OA
BRANCH   9  12
HETATM   12  N   UNK N   1      22.384  16.586   5.589  0.00  0.00    -0.111 NA
HETATM   13  C   UNK N   1      21.595  15.419   5.514  0.00  0.00     0.166 C 
HETATM   14  C   UNK N   1      21.801  14.612   6.627  0.00  0.00     0.157 C 
HETATM   15  C   UNK N   1      22.733  13.651   5.934  0.00  0.00     0.123 C 
HETATM   16  N   UNK N   1      24.096  14.071   6.102  0.00  0.00    -0.321 N 
HETATM   17  C   UNK N   1      24.502  15.361   6.184  0.00  0.00     0.336 C 
HETATM   18  N   UNK N   1      23.811  16.450   5.684  0.00  0.00    -0.247 N 
HETATM   19  O   UNK N   1      25.589  15.563   6.725  0.00  0.00    -0.246 OA
BRANCH  14  20
HETATM   20  O   UNK N   1      20.551  14.151   7.002  0.00  0.00    -0.392 OA
HETATM   21  H   UNK N   1      20.403  13.643   7.815  0.00  0.00     0.210 HD
ENDBRANCH  14  20
BRANCH  15  22
HETATM   22  C   UNK N   1      22.322  12.637   4.834  0.00  0.00     0.066 C 
BRANCH  22  23
HETATM   23  C   UNK N   1      23.343  12.880   3.774  0.00  0.00    -0.056 A 
HETATM   24  C   UNK N   1      24.153  11.799   3.381  0.00  0.00     0.007 A 
HETATM   25  C   UNK N   1      24.767  11.799   2.131  0.00  0.00     0.001 A 
HETATM   26  C   UNK N   1      24.579  12.879   1.265  0.00  0.00     0.000 A 
HETATM   27  C   UNK N   1      23.822  13.985   1.673  0.00  0.00     0.001 A 
HETATM   28  C   UNK N   1      23.185  13.979   2.920  0.00  0.00     0.007 A 
ENDBRANCH  22  23
ENDBRANCH  15  22
BRANCH  16  29
HETATM   29  C   UNK N   1      25.080  13.099   6.464  0.00  0.00     0.166 C 
BRANCH  29  30
HETATM   30  C   UNK N   1      24.701  12.459   7.722  0.00  0.00    -0.040 C 
HETATM   31  C   UNK N   1      24.006  11.270   7.648  0.00  0.00     0.011 C 
HETATM   32  C   UNK N   1      23.218  10.892   8.724  0.00  0.00     0.037 C 
HETATM   33  C   UNK N   1      23.121  11.730   9.842  0.00  0.00     0.065 C 
HETATM   34  C   UNK N   1      23.919  12.856   9.959  0.00  0.00     0.037 C 
HETATM   35  C   UNK N   1      24.710  13.211   8.900  0.00  0.00     0.011 C 
BRANCH  33  36
HETATM   36  O   UNK N   1      22.211  11.479  10.785  0.00  0.00    -0.361 OA
HETATM   37  H   UNK N   1      22.213  11.940  11.600  0.00  0.00     0.217 HD
ENDBRANCH  33  36
ENDBRANCH  29  30
ENDBRANCH  16  29
BRANCH  18  38
HETATM   38  C   UNK N   1      24.636  17.629   5.474  0.00  0.00     0.161 C 
BRANCH  38  39
HETATM   39  C   UNK N   1      25.174  17.768   4.029  0.00  0.00     0.050 C 
HETATM   40  C   UNK N   1      25.098  19.106   3.679  0.00  0.00    -0.014 C 
HETATM   41  C   UNK N   1      26.259  19.874   3.676  0.00  0.00     0.033 C 
HETATM   42  C   UNK N   1      27.491  19.264   3.912  0.00  0.00     0.065 C 
HETATM   43  C   UNK N   1      27.588  17.878   3.862  0.00  0.00     0.033 C 
HETATM   44  C   UNK N   1      26.412  17.132   3.795  0.00  0.00    -0.014 C 
BRANCH  42  45
HETATM   45  O   UNK N   1      28.568  20.010   4.187  0.00  0.00    -0.361 OA
HETATM   46  H   UNK N   1      28.626  20.599   4.914  0.00  0.00     0.217 HD
ENDBRANCH  42  45
ENDBRANCH  38  39
ENDBRANCH  18  38
ENDBRANCH   9  12
ENDBRANCH   1   9
TORSDOF 11
ENDMDL
MODEL 5
REMARK VINA RESULT:      -7.8      4.359      8.708
REMARK  11 active torsions:
REMARK  status: ('A' for Active; 'I' for Inactive)
REMARK    1  A    between atoms: C_2  and  O_1 
REMARK    2  A    between atoms: N_4  and  S_33 
REMARK    3  A    between atoms: N_5  and  C_6 
REMARK    4  A    between atoms: C_6  and  C_7 
REMARK    5  A    between atoms: C_10  and  O_11 
REMARK    6  A    between atoms: N_16  and  C_17 
REMARK    7  A    between atoms: C_17  and  C_18 
REMARK    8  A    between atoms: C_21  and  O_22 
REMARK    9  A    between atoms: C_25  and  C_26 
REMARK   10  A    between atoms: C_26  and  C_27 
REMARK   11  A    between atoms: S_33  and  C_36 
ROOT
HETATM    1  C   UNK N   1      22.587  13.250   8.390  0.00  0.00     0.172 C 
HETATM    2  C   UNK N   1      23.782  12.522   8.334  0.00  0.00    -0.002 C 
HETATM    3  C   UNK N   1      24.315  11.986   9.509  0.00  0.00    -0.001 C 
HETATM    4  C   UNK N   1      23.512  11.968  10.657  0.00  0.00     0.022 C 
HETATM    5  C   UNK N   1      22.356  12.748  10.686  0.00  0.00     0.042 C 
HETATM    6  C   UNK N   1      22.057  13.567   9.645  0.00  0.00     0.021 C 
HETATM    7  C   UNK N   1      21.198  12.280  11.387  0.00  0.00     0.099 C 
HETATM    8  N   UNK N   1      20.221  11.954  11.916  0.00  0.00    -0.191 NA
ENDROOT
BRANCH   1   9
HETATM    9  S   UNK N   1      21.334  12.511   7.331  0.00  0.00     0.239 S 
HETATM   10  O   UNK N   1      20.291  13.570   7.689  0.00  0.00    -0.209 OA
HETATM   11  O   UNK N   1      22.271  13.398   6.482  0.00  0.00    -0.209 OA
BRANCH   9  12
HETATM   12  N   UNK N   1      20.818  12.439   5.673  0.00  0.00    -0.111 NA
HETATM   13  C   UNK N   1      20.260  13.727   5.820  0.00  0.00     0.166 C 
HETATM   14  C   UNK N   1      19.651  14.139   4.641  0.00  0.00     0.157 C 
HETATM   15  C   UNK N   1      20.788  15.022   4.194  0.00  0.00     0.123 C 
HETATM   16  N   UNK N   1      21.695  14.283   3.360  0.00  0.00    -0.321 N 
HETATM   17  C   UNK N   1      21.965  12.963   3.494  0.00  0.00     0.336 C 
HETATM   18  N   UNK N   1      21.809  12.228   4.655  0.00  0.00    -0.247 N 
HETATM   19  O   UNK N   1      22.412  12.388   2.501  0.00  0.00    -0.246 OA
BRANCH  14  20
HETATM   20  O   UNK N   1      18.464  14.744   5.013  0.00  0.00    -0.392 OA
HETATM   21  H   UNK N   1      18.173  15.596   4.651  0.00  0.00     0.210 HD
ENDBRANCH  14  20
BRANCH  15  22
HETATM   22  C   UNK N   1      21.202  16.359   4.862  0.00  0.00     0.066 C 
BRANCH  22  23
HETATM   23  C   UNK N   1      20.925  17.356   3.789  0.00  0.00    -0.056 A 
HETATM   24  C   UNK N   1      19.584  17.573   3.422  0.00  0.00     0.007 A 
HETATM   25  C   UNK N   1      19.207  18.765   2.809  0.00  0.00     0.001 A 
HETATM   26  C   UNK N   1      20.167  19.748   2.554  0.00  0.00     0.000 A 
HETATM   27  C   UNK N   1      21.513  19.514   2.862  0.00  0.00     0.001 A 
HETATM   28  C   UNK N   1      21.892  18.327   3.498  0.00  0.00     0.007 A 
ENDBRANCH  22  23
ENDBRANCH  15  22
BRANCH  16  29
HETATM   29  C   UNK N   1      22.162  14.881   2.148  0.00  0.00     0.166 C 
BRANCH  29  30
HETATM   30  C   UNK N   1      21.101  14.857   1.145  0.00  0.00    -0.040 C 
HETATM   31  C   UNK N   1      20.653  16.069   0.662  0.00  0.00     0.011 C 
HETATM   32  C   UNK N   1      19.378  16.140   0.122  0.00  0.00     0.037 C 
HETATM   33  C   UNK N   1      18.566  14.998   0.103  0.00  0.00     0.065 C 
HETATM   34  C   UNK N   1      19.070  13.762   0.473  0.00  0.00     0.037 C 
HETATM   35  C   UNK N   1      20.337  13.697   0.985  0.00  0.00     0.011 C 
BRANCH  33  36
HETATM   36  O   UNK N   1      17.276  15.104  -0.220  0.00  0.00    -0.361 OA
HETATM   37  H   UNK N   1      17.008  15.346  -1.084  0.00  0.00     0.217 HD
ENDBRANCH  33  36
ENDBRANCH  29  30
ENDBRANCH  16  29
BRANCH  18  38
HETATM   38  C   UNK N   1      22.583  10.997   4.687  0.00  0.00     0.161 C 
BRANCH  38  39
HETATM   39  C   UNK N   1      21.860   9.786   4.049  0.00  0.00     0.050 C 
HETATM   40  C   UNK N   1      22.804   8.793   3.846  0.00  0.00    -0.014 C 
HETATM   41  C   UNK N   1      22.842   7.706   4.714  0.00  0.00     0.033 C 
HETATM   42  C   UNK N   1      21.864   7.574   5.699  0.00  0.00     0.065 C 
HETATM   43  C   UNK N   1      20.714   8.352   5.630  0.00  0.00     0.033 C 
HETATM   44  C   UNK N   1      20.673   9.393   4.704  0.00  0.00    -0.014 C 
BRANCH  42  45
HETATM   45  O   UNK N   1      22.036   6.706   6.705  0.00  0.00    -0.361 OA
HETATM   46  H   UNK N   1      21.556   5.906   6.795  0.00  0.00     0.217 HD
ENDBRANCH  42  45
ENDBRANCH  38  39
ENDBRANCH  18  38
ENDBRANCH   9  12
ENDBRANCH   1   9
TORSDOF 11
ENDMDL
MODEL 6
REMARK VINA RESULT:      -7.8      3.570      7.374
REMARK  11 active torsions:
REMARK  status: ('A' for Active; 'I' for Inactive)
REMARK    1  A    between atoms: C_2  and  O_1 
REMARK    2  A    between atoms: N_4  and  S_33 
REMARK    3  A    between atoms: N_5  and  C_6 
REMARK    4  A    between atoms: C_6  and  C_7 
REMARK    5  A    between atoms: C_10  and  O_11 
REMARK    6  A    between atoms: N_16  and  C_17 
REMARK    7  A    between atoms: C_17  and  C_18 
REMARK    8  A    between atoms: C_21  and  O_22 
REMARK    9  A    between atoms: C_25  and  C_26 
REMARK   10  A    between atoms: C_26  and  C_27 
REMARK   11  A    between atoms: S_33  and  C_36 
ROOT
HETATM    1  C   UNK N   1      22.489  13.544   8.816  0.00  0.00     0.172 C 
HETATM    2  C   UNK N   1      23.382  12.557   8.382  0.00  0.00    -0.002 C 
HETATM    3  C   UNK N   1      23.726  11.513   9.244  0.00  0.00    -0.001 C 
HETATM    4  C   UNK N   1      22.973  11.340  10.413  0.00  0.00     0.022 C 
HETATM    5  C   UNK N   1      22.132  12.371  10.835  0.00  0.00     0.042 C 
HETATM    6  C   UNK N   1      22.103  13.550  10.161  0.00  0.00     0.021 C 
HETATM    7  C   UNK N   1      20.893  12.059  11.482  0.00  0.00     0.099 C 
HETATM    8  N   UNK N   1      19.869  11.881  11.990  0.00  0.00    -0.191 NA
ENDROOT
BRANCH   1   9
HETATM    9  S   UNK N   1      21.053  13.632   7.736  0.00  0.00     0.239 S 
HETATM   10  O   UNK N   1      20.080  13.785   8.906  0.00  0.00    -0.209 OA
HETATM   11  O   UNK N   1      21.723  15.020   7.818  0.00  0.00    -0.209 OA
BRANCH   9  12
HETATM   12  N   UNK N   1      20.161  14.741   6.737  0.00  0.00    -0.111 NA
HETATM   13  C   UNK N   1      21.063  15.758   7.112  0.00  0.00     0.166 C 
HETATM   14  C   UNK N   1      20.717  16.967   6.519  0.00  0.00     0.157 C 
HETATM   15  C   UNK N   1      21.747  16.887   5.421  0.00  0.00     0.123 C 
HETATM   16  N   UNK N   1      21.186  16.261   4.256  0.00  0.00    -0.321 N 
HETATM   17  C   UNK N   1      20.246  15.287   4.281  0.00  0.00     0.336 C 
HETATM   18  N   UNK N   1      20.005  14.433   5.343  0.00  0.00    -0.247 N 
HETATM   19  O   UNK N   1      19.576  15.141   3.258  0.00  0.00    -0.246 OA
BRANCH  14  20
HETATM   20  O   UNK N   1      20.879  17.934   7.496  0.00  0.00    -0.392 OA
HETATM   21  H   UNK N   1      21.156  17.722   8.401  0.00  0.00     0.210 HD
ENDBRANCH  14  20
BRANCH  15  22
HETATM   22  C   UNK N   1      23.280  17.018   5.618  0.00  0.00     0.066 C 
BRANCH  22  23
HETATM   23  C   UNK N   1      23.805  15.859   4.840  0.00  0.00    -0.056 A 
HETATM   24  C   UNK N   1      24.422  16.122   3.603  0.00  0.00     0.007 A 
HETATM   25  C   UNK N   1      25.324  15.211   3.060  0.00  0.00     0.001 A 
HETATM   26  C   UNK N   1      25.617  14.030   3.746  0.00  0.00     0.000 A 
HETATM   27  C   UNK N   1      24.962  13.735   4.949  0.00  0.00     0.001 A 
HETATM   28  C   UNK N   1      24.070  14.657   5.509  0.00  0.00     0.007 A 
ENDBRANCH  22  23
ENDBRANCH  15  22
BRANCH  16  29
HETATM   29  C   UNK N   1      21.420  16.850   2.975  0.00  0.00     0.166 C 
BRANCH  29  30
HETATM   30  C   UNK N   1      21.167  18.288   3.039  0.00  0.00    -0.040 C 
HETATM   31  C   UNK N   1      19.907  18.729   2.694  0.00  0.00     0.011 C 
HETATM   32  C   UNK N   1      19.755  20.039   2.266  0.00  0.00     0.037 C 
HETATM   33  C   UNK N   1      20.877  20.872   2.165  0.00  0.00     0.065 C 
HETATM   34  C   UNK N   1      22.114  20.459   2.633  0.00  0.00     0.037 C 
HETATM   35  C   UNK N   1      22.250  19.170   3.074  0.00  0.00     0.011 C 
BRANCH  33  36
HETATM   36  O   UNK N   1      20.774  22.057   1.562  0.00  0.00    -0.361 OA
HETATM   37  H   UNK N   1      20.116  22.220   0.916  0.00  0.00     0.217 HD
ENDBRANCH  33  36
ENDBRANCH  29  30
ENDBRANCH  16  29
BRANCH  18  38
HETATM   38  C   UNK N   1      19.306  13.213   4.976  0.00  0.00     0.161 C 
BRANCH  38  39
HETATM   39  C   UNK N   1      20.247  12.036   4.618  0.00  0.00     0.050 C 
HETATM   40  C   UNK N   1      19.605  11.259   3.668  0.00  0.00    -0.014 C 
HETATM   41  C   UNK N   1      19.998  11.353   2.337  0.00  0.00     0.033 C 
HETATM   42  C   UNK N   1      21.102  12.135   1.996  0.00  0.00     0.065 C 
HETATM   43  C   UNK N   1      21.962  12.576   2.995  0.00  0.00     0.033 C 
HETATM   44  C   UNK N   1      21.575  12.408   4.324  0.00  0.00    -0.014 C 
BRANCH  42  45
HETATM   45  O   UNK N   1      21.326  12.460   0.716  0.00  0.00    -0.361 OA
HETATM   46  H   UNK N   1      21.337  13.339   0.393  0.00  0.00     0.217 HD
ENDBRANCH  42  45
ENDBRANCH  38  39
ENDBRANCH  18  38
ENDBRANCH   9  12
ENDBRANCH   1   9
TORSDOF 11
ENDMDL
MODEL 7
REMARK VINA RESULT:      -7.7      3.032      6.667
REMARK  11 active torsions:
REMARK  status: ('A' for Active; 'I' for Inactive)
REMARK    1  A    between atoms: C_2  and  O_1 
REMARK    2  A    between atoms: N_4  and  S_33 
REMARK    3  A    between atoms: N_5  and  C_6 
REMARK    4  A    between atoms: C_6  and  C_7 
REMARK    5  A    between atoms: C_10  and  O_11 
REMARK    6  A    between atoms: N_16  and  C_17 
REMARK    7  A    between atoms: C_17  and  C_18 
REMARK    8  A    between atoms: C_21  and  O_22 
REMARK    9  A    between atoms: C_25  and  C_26 
REMARK   10  A    between atoms: C_26  and  C_27 
REMARK   11  A    between atoms: S_33  and  C_36 
ROOT
HETATM    1  C   UNK N   1      20.737  17.653   4.157  0.00  0.00     0.172 C 
HETATM    2  C   UNK N   1      20.170  17.025   3.042  0.00  0.00    -0.002 C 
HETATM    3  C   UNK N   1      19.952  17.761   1.875  0.00  0.00    -0.001 C 
HETATM    4  C   UNK N   1      20.543  19.026   1.766  0.00  0.00     0.022 C 
HETATM    5  C   UNK N   1      21.052  19.636   2.913  0.00  0.00     0.042 C 
HETATM    6  C   UNK N   1      20.908  19.041   4.126  0.00  0.00     0.021 C 
HETATM    7  C   UNK N   1      22.220  20.460   2.824  0.00  0.00     0.099 C 
HETATM    8  N   UNK N   1      23.171  21.120   2.828  0.00  0.00    -0.191 NA
ENDROOT
BRANCH   1   9
HETATM    9  S   UNK N   1      22.259  16.829   4.653  0.00  0.00     0.239 S 
HETATM   10  O   UNK N   1      22.606  17.910   5.677  0.00  0.00    -0.209 OA
HETATM   11  O   UNK N   1      21.062  16.195   5.394  0.00  0.00    -0.209 OA
BRANCH   9  12
HETATM   12  N   UNK N   1      22.849  15.552   5.673  0.00  0.00    -0.111 NA
HETATM   13  C   UNK N   1      21.661  14.836   5.416  0.00  0.00     0.166 C 
HETATM   14  C   UNK N   1      21.657  13.626   6.100  0.00  0.00     0.157 C 
HETATM   15  C   UNK N   1      22.051  12.789   4.910  0.00  0.00     0.123 C 
HETATM   16  N   UNK N   1      23.479  12.645   4.853  0.00  0.00    -0.321 N 
HETATM   17  C   UNK N   1      24.366  13.586   5.256  0.00  0.00     0.336 C 
HETATM   18  N   UNK N   1      24.108  14.942   5.347  0.00  0.00    -0.247 N 
HETATM   19  O   UNK N   1      25.499  13.192   5.535  0.00  0.00    -0.246 OA
BRANCH  14  20
HETATM   20  O   UNK N   1      20.378  13.477   6.607  0.00  0.00    -0.392 OA
HETATM   21  H   UNK N   1      19.771  12.783   6.304  0.00  0.00     0.210 HD
ENDBRANCH  14  20
BRANCH  15  22
HETATM   22  C   UNK N   1      21.153  12.500   3.679  0.00  0.00     0.066 C 
BRANCH  22  23
HETATM   23  C   UNK N   1      22.097  12.691   2.540  0.00  0.00    -0.056 A 
HETATM   24  C   UNK N   1      22.320  11.600   1.681  0.00  0.00     0.007 A 
HETATM   25  C   UNK N   1      22.780  11.809   0.383  0.00  0.00     0.001 A 
HETATM   26  C   UNK N   1      23.022  13.110  -0.067  0.00  0.00     0.000 A 
HETATM   27  C   UNK N   1      22.858  14.196   0.802  0.00  0.00     0.001 A 
HETATM   28  C   UNK N   1      22.376  13.992   2.101  0.00  0.00     0.007 A 
ENDBRANCH  22  23
ENDBRANCH  15  22
BRANCH  16  29
HETATM   29  C   UNK N   1      24.034  11.352   4.602  0.00  0.00     0.166 C 
BRANCH  29  30
HETATM   30  C   UNK N   1      23.379  10.360   5.452  0.00  0.00    -0.040 C 
HETATM   31  C   UNK N   1      23.903  10.155   6.711  0.00  0.00     0.011 C 
HETATM   32  C   UNK N   1      23.663   8.944   7.342  0.00  0.00     0.037 C 
HETATM   33  C   UNK N   1      22.926   7.951   6.683  0.00  0.00     0.065 C 
HETATM   34  C   UNK N   1      22.300   8.214   5.476  0.00  0.00     0.037 C 
HETATM   35  C   UNK N   1      22.525   9.420   4.870  0.00  0.00     0.011 C 
BRANCH  33  36
HETATM   36  O   UNK N   1      22.868   6.718   7.190  0.00  0.00    -0.361 OA
HETATM   37  H   UNK N   1      22.904   6.569   8.114  0.00  0.00     0.217 HD
ENDBRANCH  33  36
ENDBRANCH  29  30
ENDBRANCH  16  29
BRANCH  18  38
HETATM   38  C   UNK N   1      25.301  15.774   5.341  0.00  0.00     0.161 C 
BRANCH  38  39
HETATM   39  C   UNK N   1      25.685  16.308   3.940  0.00  0.00     0.050 C 
HETATM   40  C   UNK N   1      25.768  17.688   4.025  0.00  0.00    -0.014 C 
HETATM   41  C   UNK N   1      27.021  18.291   4.073  0.00  0.00     0.033 C 
HETATM   42  C   UNK N   1      28.169  17.512   3.920  0.00  0.00     0.065 C 
HETATM   43  C   UNK N   1      28.053  16.212   3.441  0.00  0.00     0.033 C 
HETATM   44  C   UNK N   1      26.781  15.654   3.337  0.00  0.00    -0.014 C 
BRANCH  42  45
HETATM   45  O   UNK N   1      29.369  18.015   4.236  0.00  0.00    -0.361 OA
HETATM   46  H   UNK N   1      30.008  17.562   4.751  0.00  0.00     0.217 HD
ENDBRANCH  42  45
ENDBRANCH  38  39
ENDBRANCH  18  38
ENDBRANCH   9  12
ENDBRANCH   1   9
TORSDOF 11
ENDMDL
MODEL 8
REMARK VINA RESULT:      -7.7     13.521     17.416
REMARK  11 active torsions:
REMARK  status: ('A' for Active; 'I' for Inactive)
REMARK    1  A    between atoms: C_2  and  O_1 
REMARK    2  A    between atoms: N_4  and  S_33 
REMARK    3  A    between atoms: N_5  and  C_6 
REMARK    4  A    between atoms: C_6  and  C_7 
REMARK    5  A    between atoms: C_10  and  O_11 
REMARK    6  A    between atoms: N_16  and  C_17 
REMARK    7  A    between atoms: C_17  and  C_18 
REMARK    8  A    between atoms: C_21  and  O_22 
REMARK    9  A    between atoms: C_25  and  C_26 
REMARK   10  A    between atoms: C_26  and  C_27 
REMARK   11  A    between atoms: S_33  and  C_36 
ROOT
HETATM    1  C   UNK N   1      25.967  25.974  -3.905  0.00  0.00     0.172 C 
HETATM    2  C   UNK N   1      25.173  26.468  -4.946  0.00  0.00    -0.002 C 
HETATM    3  C   UNK N   1      25.050  27.849  -5.122  0.00  0.00    -0.001 C 
HETATM    4  C   UNK N   1      25.926  28.689  -4.421  0.00  0.00     0.022 C 
HETATM    5  C   UNK N   1      26.661  28.164  -3.358  0.00  0.00     0.042 C 
HETATM    6  C   UNK N   1      26.473  26.878  -2.965  0.00  0.00     0.021 C 
HETATM    7  C   UNK N   1      27.986  28.645  -3.102  0.00  0.00     0.099 C 
HETATM    8  N   UNK N   1      29.068  28.971  -2.851  0.00  0.00    -0.191 NA
ENDROOT
BRANCH   1   9
HETATM    9  S   UNK N   1      27.272  24.910  -4.540  0.00  0.00     0.239 S 
HETATM   10  O   UNK N   1      27.187  23.956  -3.349  0.00  0.00    -0.209 OA
HETATM   11  O   UNK N   1      25.932  24.545  -5.216  0.00  0.00    -0.209 OA
BRANCH   9  12
HETATM   12  N   UNK N   1      27.551  23.616  -5.666  0.00  0.00    -0.111 NA
HETATM   13  C   UNK N   1      26.468  24.091  -6.436  0.00  0.00     0.166 C 
HETATM   14  C   UNK N   1      26.265  23.286  -7.551  0.00  0.00     0.157 C 
HETATM   15  C   UNK N   1      26.956  24.210  -8.521  0.00  0.00     0.123 C 
HETATM   16  N   UNK N   1      28.345  23.862  -8.638  0.00  0.00    -0.321 N 
HETATM   17  C   UNK N   1      29.101  23.357  -7.633  0.00  0.00     0.336 C 
HETATM   18  N   UNK N   1      28.844  23.512  -6.283  0.00  0.00    -0.247 N 
HETATM   19  O   UNK N   1      30.112  22.737  -7.963  0.00  0.00    -0.246 OA
BRANCH  14  20
HETATM   20  O   UNK N   1      24.895  23.127  -7.666  0.00  0.00    -0.392 OA
HETATM   21  H   UNK N   1      24.280  23.354  -6.951  0.00  0.00     0.210 HD
ENDBRANCH  14  20
BRANCH  15  22
HETATM   22  C   UNK N   1      26.421  25.591  -8.982  0.00  0.00     0.066 C 
BRANCH  22  23
HETATM   23  C   UNK N   1      27.572  26.495  -8.695  0.00  0.00    -0.056 A 
HETATM   24  C   UNK N   1      28.256  27.056  -9.790  0.00  0.00     0.007 A 
HETATM   25  C   UNK N   1      28.992  28.227  -9.633  0.00  0.00     0.001 A 
HETATM   26  C   UNK N   1      29.054  28.847  -8.382  0.00  0.00     0.000 A 
HETATM   27  C   UNK N   1      28.424  28.262  -7.276  0.00  0.00     0.001 A 
HETATM   28  C   UNK N   1      27.665  27.096  -7.433  0.00  0.00     0.007 A 
ENDBRANCH  22  23
ENDBRANCH  15  22
BRANCH  16  29
HETATM   29  C   UNK N   1      28.933  23.789  -9.939  0.00  0.00     0.166 C 
BRANCH  29  30
HETATM   30  C   UNK N   1      28.139  22.905 -10.789  0.00  0.00    -0.040 C 
HETATM   31  C   UNK N   1      27.329  23.493 -11.739  0.00  0.00     0.011 C 
HETATM   32  C   UNK N   1      26.233  22.785 -12.207  0.00  0.00     0.037 C 
HETATM   33  C   UNK N   1      25.955  21.513 -11.692  0.00  0.00     0.065 C 
HETATM   34  C   UNK N   1      26.843  20.883 -10.836  0.00  0.00     0.037 C 
HETATM   35  C   UNK N   1      27.934  21.580 -10.394  0.00  0.00     0.011 C 
BRANCH  33  36
HETATM   36  O   UNK N   1      24.797  20.916 -11.980  0.00  0.00    -0.361 OA
HETATM   37  H   UNK N   1      23.994  21.398 -12.010  0.00  0.00     0.217 HD
ENDBRANCH  33  36
ENDBRANCH  29  30
ENDBRANCH  16  29
BRANCH  18  38
HETATM   38  C   UNK N   1      30.003  23.301  -5.431  0.00  0.00     0.161 C 
BRANCH  38  39
HETATM   39  C   UNK N   1      29.860  22.101  -4.464  0.00  0.00     0.050 C 
HETATM   40  C   UNK N   1      30.415  20.993  -5.083  0.00  0.00    -0.014 C 
HETATM   41  C   UNK N   1      31.673  20.552  -4.684  0.00  0.00     0.033 C 
HETATM   42  C   UNK N   1      32.303  21.155  -3.595  0.00  0.00     0.065 C 
HETATM   43  C   UNK N   1      31.568  21.979  -2.751  0.00  0.00     0.033 C 
HETATM   44  C   UNK N   1      30.283  22.352  -3.141  0.00  0.00    -0.014 C 
BRANCH  42  45
HETATM   45  O   UNK N   1      33.606  20.942  -3.370  0.00  0.00    -0.361 OA
HETATM   46  H   UNK N   1      33.954  20.147  -3.018  0.00  0.00     0.217 HD
ENDBRANCH  42  45
ENDBRANCH  38  39
ENDBRANCH  18  38
ENDBRANCH   9  12
ENDBRANCH   1   9
TORSDOF 11
ENDMDL
MODEL 9
REMARK VINA RESULT:      -7.6     11.127     14.376
REMARK  11 active torsions:
REMARK  status: ('A' for Active; 'I' for Inactive)
REMARK    1  A    between atoms: C_2  and  O_1 
REMARK    2  A    between atoms: N_4  and  S_33 
REMARK    3  A    between atoms: N_5  and  C_6 
REMARK    4  A    between atoms: C_6  and  C_7 
REMARK    5  A    between atoms: C_10  and  O_11 
REMARK    6  A    between atoms: N_16  and  C_17 
REMARK    7  A    between atoms: C_17  and  C_18 
REMARK    8  A    between atoms: C_21  and  O_22 
REMARK    9  A    between atoms: C_25  and  C_26 
REMARK   10  A    between atoms: C_26  and  C_27 
REMARK   11  A    between atoms: S_33  and  C_36 
ROOT
HETATM    1  C   UNK N   1      34.201  14.994   9.824  0.00  0.00     0.172 C 
HETATM    2  C   UNK N   1      33.996  14.137   8.736  0.00  0.00    -0.002 C 
HETATM    3  C   UNK N   1      33.607  14.670   7.505  0.00  0.00    -0.001 C 
HETATM    4  C   UNK N   1      33.688  16.057   7.325  0.00  0.00     0.022 C 
HETATM    5  C   UNK N   1      33.843  16.876   8.443  0.00  0.00     0.042 C 
HETATM    6  C   UNK N   1      33.842  16.339   9.691  0.00  0.00     0.021 C 
HETATM    7  C   UNK N   1      34.621  18.075   8.346  0.00  0.00     0.099 C 
HETATM    8  N   UNK N   1      35.252  19.045   8.345  0.00  0.00    -0.191 NA
ENDROOT
BRANCH   1   9
HETATM    9  S   UNK N   1      35.878  14.837  10.459  0.00  0.00     0.239 S 
HETATM   10  O   UNK N   1      35.523  15.502  11.790  0.00  0.00    -0.209 OA
HETATM   11  O   UNK N   1      35.121  13.507  10.664  0.00  0.00    -0.209 OA
BRANCH   9  12
HETATM   12  N   UNK N   1      36.950  13.697  11.215  0.00  0.00    -0.111 NA
HETATM   13  C   UNK N   1      36.292  13.934  12.440  0.00  0.00     0.166 C 
HETATM   14  C   UNK N   1      36.865  13.184  13.461  0.00  0.00     0.157 C 
HETATM   15  C   UNK N   1      35.808  12.110  13.458  0.00  0.00     0.123 C 
HETATM   16  N   UNK N   1      36.190  11.037  12.581  0.00  0.00    -0.321 N 
HETATM   17  C   UNK N   1      36.907  11.190  11.442  0.00  0.00     0.336 C 
HETATM   18  N   UNK N   1      36.996  12.356  10.703  0.00  0.00    -0.247 N 
HETATM   19  O   UNK N   1      37.500  10.195  11.026  0.00  0.00    -0.246 OA
BRANCH  14  20
HETATM   20  O   UNK N   1      36.938  14.023  14.559  0.00  0.00    -0.392 OA
HETATM   21  H   UNK N   1      37.781  14.312  14.942  0.00  0.00     0.210 HD
ENDBRANCH  14  20
BRANCH  15  22
HETATM   22  C   UNK N   1      34.343  12.290  13.933  0.00  0.00     0.066 C 
BRANCH  22  23
HETATM   23  C   UNK N   1      34.434  11.975  15.388  0.00  0.00    -0.056 A 
HETATM   24  C   UNK N   1      34.774  10.660  15.756  0.00  0.00     0.007 A 
HETATM   25  C   UNK N   1      35.328  10.402  17.007  0.00  0.00     0.001 A 
HETATM   26  C   UNK N   1      35.546  11.453  17.901  0.00  0.00     0.000 A 
HETATM   27  C   UNK N   1      35.155  12.755  17.564  0.00  0.00     0.001 A 
HETATM   28  C   UNK N   1      34.617  13.023  16.299  0.00  0.00     0.007 A 
ENDBRANCH  22  23
ENDBRANCH  15  22
BRANCH  16  29
HETATM   29  C   UNK N   1      36.046   9.689  13.035  0.00  0.00     0.166 C 
BRANCH  29  30
HETATM   30  C   UNK N   1      34.904   9.065  12.370  0.00  0.00    -0.040 C 
HETATM   31  C   UNK N   1      35.048   7.759  11.949  0.00  0.00     0.011 C 
HETATM   32  C   UNK N   1      34.239   7.299  10.922  0.00  0.00     0.037 C 
HETATM   33  C   UNK N   1      33.320   8.167  10.318  0.00  0.00     0.065 C 
HETATM   34  C   UNK N   1      33.096   9.434  10.832  0.00  0.00     0.037 C 
HETATM   35  C   UNK N   1      33.885   9.873  11.860  0.00  0.00     0.011 C 
BRANCH  33  36
HETATM   36  O   UNK N   1      32.690   7.798   9.202  0.00  0.00    -0.361 OA
HETATM   37  H   UNK N   1      33.058   7.162   8.622  0.00  0.00     0.217 HD
ENDBRANCH  33  36
ENDBRANCH  29  30
ENDBRANCH  16  29
BRANCH  18  38
HETATM   38  C   UNK N   1      37.413  12.154   9.325  0.00  0.00     0.161 C 
BRANCH  38  39
HETATM   39  C   UNK N   1      38.664  12.973   8.923  0.00  0.00     0.050 C 
HETATM   40  C   UNK N   1      39.762  12.132   9.009  0.00  0.00    -0.014 C 
HETATM   41  C   UNK N   1      40.313  11.615   7.840  0.00  0.00     0.033 C 
HETATM   42  C   UNK N   1      39.829  12.038   6.602  0.00  0.00     0.065 C 
HETATM   43  C   UNK N   1      39.017  13.164   6.534  0.00  0.00     0.033 C 
HETATM   44  C   UNK N   1      38.532  13.705   7.724  0.00  0.00    -0.014 C 
BRANCH  42  45
HETATM   45  O   UNK N   1      40.144  11.361   5.490  0.00  0.00    -0.361 OA
HETATM   46  H   UNK N   1      40.549  10.516   5.488  0.00  0.00     0.217 HD
ENDBRANCH  42  45
ENDBRANCH  38  39
ENDBRANCH  18  38
ENDBRANCH   9  12
ENDBRANCH   1   9
TORSDOF 11
ENDMDL
