MODEL 1
REMARK VINA RESULT:      -4.2      0.000      0.000
REMARK  3 active torsions:
REMARK  status: ('A' for Active; 'I' for Inactive)
REMARK    1  A    between atoms: C_6  and  C_7 
REMARK    2  A    between atoms: C_7  and  N_8 
REMARK    3  A    between atoms: C_9  and  N_10 
ROOT
HETATM    1  C   UNK N   1      19.702  11.843  11.956  0.00  0.00     0.089 C 
HETATM    2  C   UNK N   1      21.032  12.135  11.360  0.00  0.00     0.078 A 
HETATM    3  N   UNK N   1      22.153  11.619  11.924  0.00  0.00    -0.355 N 
ATOM      4  HN  UNK N   1      22.074  11.033  12.755  1.00  0.00     0.166 HD
HETATM    5  C   UNK N   1      23.377  11.873  11.397  0.00  0.00     0.102 A 
HETATM    6  C   UNK N   1      23.510  12.672  10.262  0.00  0.00     0.018 A 
HETATM    7  C   UNK N   1      22.328  13.201   9.689  0.00  0.00     0.109 A 
HETATM    8  N   UNK N   1      21.125  12.918  10.254  0.00  0.00    -0.332 N 
ATOM      9  HN  UNK N   1      20.275  13.300   9.840  1.00  0.00     0.168 HD
ENDROOT
BRANCH   6  10
HETATM   10  C   UNK N   1      24.915  12.896   9.751  0.00  0.00     0.155 C 
BRANCH  10  11
HETATM   11  N   UNK N   1      25.765  13.672  10.638  0.00  0.00    -0.426 N 
HETATM   12  H   UNK N   1      26.659  14.031  10.302  0.00  0.00     0.150 HD
HETATM   13  H   UNK N   1      25.468  13.858  11.596  0.00  0.00     0.150 HD
ENDBRANCH  10  11
ENDBRANCH   6  10
BRANCH   7  14
HETATM   14  N   UNK N   1      22.363  14.020   8.541  0.00  0.00    -0.385 N 
HETATM   15  H   UNK N   1      21.876  14.875   8.531  0.00  0.00     0.157 HD
HETATM   16  H   UNK N   1      22.874  13.735   7.749  0.00  0.00     0.157 HD
ENDBRANCH   7  14
TORSDOF 3
ENDMDL
MODEL 2
REMARK VINA RESULT:      -4.1      8.774     10.030
REMARK  3 active torsions:
REMARK  status: ('A' for Active; 'I' for Inactive)
REMARK    1  A    between atoms: C_6  and  C_7 
REMARK    2  A    between atoms: C_7  and  N_8 
REMARK    3  A    between atoms: C_9  and  N_10 
ROOT
HETATM    1  C   UNK N   1      26.063  20.553   3.032  0.00  0.00     0.089 C 
HETATM    2  C   UNK N   1      26.651  20.189   4.348  0.00  0.00     0.078 A 
HETATM    3  N   UNK N   1      27.666  19.290   4.408  0.00  0.00    -0.355 N 
ATOM      4  HN  UNK N   1      28.018  18.870   3.548  1.00  0.00     0.166 HD
HETATM    5  C   UNK N   1      28.217  18.943   5.599  0.00  0.00     0.102 A 
HETATM    6  C   UNK N   1      27.752  19.503   6.788  0.00  0.00     0.018 A 
HETATM    7  C   UNK N   1      26.692  20.439   6.702  0.00  0.00     0.109 A 
HETATM    8  N   UNK N   1      26.173  20.754   5.486  0.00  0.00    -0.332 N 
ATOM      9  HN  UNK N   1      25.411  21.428   5.427  1.00  0.00     0.168 HD
ENDROOT
BRANCH   6  10
HETATM   10  C   UNK N   1      28.430  19.053   8.061  0.00  0.00     0.155 C 
BRANCH  10  11
HETATM   11  N   UNK N   1      27.585  18.280   8.957  0.00  0.00    -0.426 N 
HETATM   12  H   UNK N   1      26.603  18.133   8.729  0.00  0.00     0.150 HD
HETATM   13  H   UNK N   1      27.977  17.886   9.813  0.00  0.00     0.150 HD
ENDBRANCH  10  11
ENDBRANCH   6  10
BRANCH   7  14
HETATM   14  N   UNK N   1      26.156  21.059   7.850  0.00  0.00    -0.385 N 
HETATM   15  H   UNK N   1      25.734  21.945   7.780  0.00  0.00     0.157 HD
HETATM   16  H   UNK N   1      26.203  20.604   8.722  0.00  0.00     0.157 HD
ENDBRANCH   7  14
TORSDOF 3
ENDMDL
MODEL 3
REMARK VINA RESULT:      -4.0     12.173     13.183
REMARK  3 active torsions:
REMARK  status: ('A' for Active; 'I' for Inactive)
REMARK    1  A    between atoms: C_6  and  C_7 
REMARK    2  A    between atoms: C_7  and  N_8 
REMARK    3  A    between atoms: C_9  and  N_10 
ROOT
HETATM    1  C   UNK N   1      34.287  10.857  13.521  0.00  0.00     0.089 C 
HETATM    2  C   UNK N   1      34.770  12.143  12.953  0.00  0.00     0.078 A 
HETATM    3  N   UNK N   1      34.445  12.483  11.681  0.00  0.00    -0.355 N 
ATOM      4  HN  UNK N   1      33.870  11.853  11.122  1.00  0.00     0.166 HD
HETATM    5  C   UNK N   1      34.875  13.652  11.143  0.00  0.00     0.102 A 
HETATM    6  C   UNK N   1      35.662  14.531  11.886  0.00  0.00     0.018 A 
HETATM    7  C   UNK N   1      35.989  14.156  13.212  0.00  0.00     0.109 A 
HETATM    8  N   UNK N   1      35.534  12.975  13.707  0.00  0.00    -0.332 N 
ATOM      9  HN  UNK N   1      35.772  12.708  14.662  1.00  0.00     0.168 HD
ENDROOT
BRANCH   6  10
HETATM   10  C   UNK N   1      36.090  15.806  11.198  0.00  0.00     0.155 C 
BRANCH  10  11
HETATM   11  N   UNK N   1      35.028  16.781  11.013  0.00  0.00    -0.426 N 
HETATM   12  H   UNK N   1      34.055  16.477  10.999  0.00  0.00     0.150 HD
HETATM   13  H   UNK N   1      35.257  17.768  10.896  0.00  0.00     0.150 HD
ENDBRANCH  10  11
ENDBRANCH   6  10
BRANCH   7  14
HETATM   14  N   UNK N   1      36.780  14.980  14.041  0.00  0.00    -0.385 N 
HETATM   15  H   UNK N   1      37.344  14.578  14.740  0.00  0.00     0.157 HD
HETATM   16  H   UNK N   1      36.767  15.956  13.921  0.00  0.00     0.157 HD
ENDBRANCH   7  14
TORSDOF 3
ENDMDL
MODEL 4
REMARK VINA RESULT:      -4.0      9.020     10.337
REMARK  3 active torsions:
REMARK  status: ('A' for Active; 'I' for Inactive)
REMARK    1  A    between atoms: C_6  and  C_7 
REMARK    2  A    between atoms: C_7  and  N_8 
REMARK    3  A    between atoms: C_9  and  N_10 
ROOT
HETATM    1  C   UNK N   1      25.794  20.700   2.685  0.00  0.00     0.089 C 
HETATM    2  C   UNK N   1      26.510  20.210   3.892  0.00  0.00     0.078 A 
HETATM    3  N   UNK N   1      26.057  20.543   5.127  0.00  0.00    -0.355 N 
ATOM      4  HN  UNK N   1      25.227  21.129   5.218  1.00  0.00     0.166 HD
HETATM    5  C   UNK N   1      26.696  20.107   6.242  0.00  0.00     0.102 A 
HETATM    6  C   UNK N   1      27.832  19.306   6.144  0.00  0.00     0.018 A 
HETATM    7  C   UNK N   1      28.288  18.969   4.846  0.00  0.00     0.109 A 
HETATM    8  N   UNK N   1      27.614  19.431   3.759  0.00  0.00    -0.332 N 
ATOM      9  HN  UNK N   1      27.944  19.187   2.825  1.00  0.00     0.168 HD
ENDROOT
BRANCH   6  10
HETATM   10  C   UNK N   1      28.471  18.871   7.443  0.00  0.00     0.155 C 
BRANCH  10  11
HETATM   11  N   UNK N   1      27.588  18.919   8.597  0.00  0.00    -0.426 N 
HETATM   12  H   UNK N   1      27.906  19.353   9.463  0.00  0.00     0.150 HD
HETATM   13  H   UNK N   1      26.652  18.518   8.540  0.00  0.00     0.150 HD
ENDBRANCH  10  11
ENDBRANCH   6  10
BRANCH   7  14
HETATM   14  N   UNK N   1      29.428  18.164   4.646  0.00  0.00    -0.385 N 
HETATM   15  H   UNK N   1      29.651  17.457   5.293  0.00  0.00     0.157 HD
HETATM   16  H   UNK N   1      30.001  18.308   3.858  0.00  0.00     0.157 HD
ENDBRANCH   7  14
TORSDOF 3
ENDMDL
MODEL 5
REMARK VINA RESULT:      -4.0      1.553      3.127
REMARK  3 active torsions:
REMARK  status: ('A' for Active; 'I' for Inactive)
REMARK    1  A    between atoms: C_6  and  C_7 
REMARK    2  A    between atoms: C_7  and  N_8 
REMARK    3  A    between atoms: C_9  and  N_10 
ROOT
HETATM    1  C   UNK N   1      20.668  14.486   7.914  0.00  0.00     0.089 C 
HETATM    2  C   UNK N   1      21.356  13.750   9.007  0.00  0.00     0.078 A 
HETATM    3  N   UNK N   1      22.711  13.724   9.056  0.00  0.00    -0.355 N 
ATOM      4  HN  UNK N   1      23.250  14.211   8.340  1.00  0.00     0.166 HD
HETATM    5  C   UNK N   1      23.359  13.058  10.045  0.00  0.00     0.102 A 
HETATM    6  C   UNK N   1      22.644  12.384  11.034  0.00  0.00     0.018 A 
HETATM    7  C   UNK N   1      21.230  12.423  10.965  0.00  0.00     0.109 A 
HETATM    8  N   UNK N   1      20.628  13.105   9.955  0.00  0.00    -0.332 N 
ATOM      9  HN  UNK N   1      19.609  13.131   9.907  1.00  0.00     0.168 HD
ENDROOT
BRANCH   6  10
HETATM   10  C   UNK N   1      23.456  11.672  12.092  0.00  0.00     0.155 C 
BRANCH  10  11
HETATM   11  N   UNK N   1      23.492  12.343  13.381  0.00  0.00    -0.426 N 
HETATM   12  H   UNK N   1      24.101  11.993  14.120  0.00  0.00     0.150 HD
HETATM   13  H   UNK N   1      22.909  13.163  13.545  0.00  0.00     0.150 HD
ENDBRANCH  10  11
ENDBRANCH   6  10
BRANCH   7  14
HETATM   14  N   UNK N   1      20.422  11.772  11.921  0.00  0.00    -0.385 N 
HETATM   15  H   UNK N   1      19.495  12.069  12.066  0.00  0.00     0.157 HD
HETATM   16  H   UNK N   1      20.786  11.021  12.442  0.00  0.00     0.157 HD
ENDBRANCH   7  14
TORSDOF 3
ENDMDL
MODEL 6
REMARK VINA RESULT:      -4.0      8.375     10.679
REMARK  3 active torsions:
REMARK  status: ('A' for Active; 'I' for Inactive)
REMARK    1  A    between atoms: C_6  and  C_7 
REMARK    2  A    between atoms: C_7  and  N_8 
REMARK    3  A    between atoms: C_9  and  N_10 
ROOT
HETATM    1  C   UNK N   1      33.970  17.694   7.611  0.00  0.00     0.089 C 
HETATM    2  C   UNK N   1      32.485  17.651   7.672  0.00  0.00     0.078 A 
HETATM    3  N   UNK N   1      31.778  17.206   6.603  0.00  0.00    -0.355 N 
ATOM      4  HN  UNK N   1      32.273  16.904   5.764  1.00  0.00     0.166 HD
HETATM    5  C   UNK N   1      30.423  17.159   6.637  0.00  0.00     0.102 A 
HETATM    6  C   UNK N   1      29.725  17.567   7.773  0.00  0.00     0.018 A 
HETATM    7  C   UNK N   1      30.482  18.028   8.878  0.00  0.00     0.109 A 
HETATM    8  N   UNK N   1      31.839  18.056   8.795  0.00  0.00    -0.332 N 
ATOM      9  HN  UNK N   1      32.381  18.389   9.592  1.00  0.00     0.168 HD
ENDROOT
BRANCH   6  10
HETATM   10  C   UNK N   1      28.218  17.476   7.713  0.00  0.00     0.155 C 
BRANCH  10  11
HETATM   11  N   UNK N   1      27.547  18.730   7.410  0.00  0.00    -0.426 N 
HETATM   12  H   UNK N   1      26.716  19.002   7.934  0.00  0.00     0.150 HD
HETATM   13  H   UNK N   1      27.909  19.337   6.674  0.00  0.00     0.150 HD
ENDBRANCH  10  11
ENDBRANCH   6  10
BRANCH   7  14
HETATM   14  N   UNK N   1      29.865  18.461  10.070  0.00  0.00    -0.385 N 
HETATM   15  H   UNK N   1      29.976  17.942  10.899  0.00  0.00     0.157 HD
HETATM   16  H   UNK N   1      29.324  19.283  10.073  0.00  0.00     0.157 HD
ENDBRANCH   7  14
TORSDOF 3
ENDMDL
MODEL 7
REMARK VINA RESULT:      -4.0      1.482      3.005
REMARK  3 active torsions:
REMARK  status: ('A' for Active; 'I' for Inactive)
REMARK    1  A    between atoms: C_6  and  C_7 
REMARK    2  A    between atoms: C_7  and  N_8 
REMARK    3  A    between atoms: C_9  and  N_10 
ROOT
HETATM    1  C   UNK N   1      23.280  11.809  13.289  0.00  0.00     0.089 C 
HETATM    2  C   UNK N   1      23.012  12.141  11.866  0.00  0.00     0.078 A 
HETATM    3  N   UNK N   1      21.755  12.020  11.369  0.00  0.00    -0.355 N 
ATOM      4  HN  UNK N   1      21.002  11.701  11.979  1.00  0.00     0.166 HD
HETATM    5  C   UNK N   1      21.488  12.318  10.073  0.00  0.00     0.102 A 
HETATM    6  C   UNK N   1      22.501  12.757   9.221  0.00  0.00     0.018 A 
HETATM    7  C   UNK N   1      23.805  12.876   9.759  0.00  0.00     0.109 A 
HETATM    8  N   UNK N   1      24.023  12.566  11.064  0.00  0.00    -0.332 N 
ATOM      9  HN  UNK N   1      24.963  12.653  11.449  1.00  0.00     0.168 HD
ENDROOT
BRANCH   6  10
HETATM   10  C   UNK N   1      22.103  13.063   7.795  0.00  0.00     0.155 C 
BRANCH  10  11
HETATM   11  N   UNK N   1      20.855  13.797   7.659  0.00  0.00    -0.426 N 
HETATM   12  H   UNK N   1      20.563  14.141   6.745  0.00  0.00     0.150 HD
HETATM   13  H   UNK N   1      20.272  13.968   8.479  0.00  0.00     0.150 HD
ENDBRANCH  10  11
ENDBRANCH   6  10
BRANCH   7  14
HETATM   14  N   UNK N   1      24.894  13.312   8.974  0.00  0.00    -0.385 N 
HETATM   15  H   UNK N   1      24.767  14.027   8.310  0.00  0.00     0.157 HD
HETATM   16  H   UNK N   1      25.780  12.900   9.091  0.00  0.00     0.157 HD
ENDBRANCH   7  14
TORSDOF 3
ENDMDL
MODEL 8
REMARK VINA RESULT:      -3.9      1.554      2.478
REMARK  3 active torsions:
REMARK  status: ('A' for Active; 'I' for Inactive)
REMARK    1  A    between atoms: C_6  and  C_7 
REMARK    2  A    between atoms: C_7  and  N_8 
REMARK    3  A    between atoms: C_9  and  N_10 
ROOT
HETATM    1  C   UNK N   1      20.570  12.230  11.457  0.00  0.00     0.089 C 
HETATM    2  C   UNK N   1      21.707  12.445  10.525  0.00  0.00     0.078 A 
HETATM    3  N   UNK N   1      21.489  12.470   9.187  0.00  0.00    -0.355 N 
ATOM      4  HN  UNK N   1      20.542  12.341   8.829  1.00  0.00     0.166 HD
HETATM    5  C   UNK N   1      22.513  12.666   8.318  0.00  0.00     0.102 A 
HETATM    6  C   UNK N   1      23.815  12.845   8.784  0.00  0.00     0.018 A 
HETATM    7  C   UNK N   1      24.022  12.815  10.184  0.00  0.00     0.109 A 
HETATM    8  N   UNK N   1      22.963  12.616  11.014  0.00  0.00    -0.332 N 
ATOM      9  HN  UNK N   1      23.115  12.596  12.022  1.00  0.00     0.168 HD
ENDROOT
BRANCH   6  10
HETATM   10  C   UNK N   1      24.886  13.055   7.738  0.00  0.00     0.155 C 
BRANCH  10  11
HETATM   11  N   UNK N   1      25.171  14.447   7.435  0.00  0.00    -0.426 N 
HETATM   12  H   UNK N   1      24.937  14.828   6.519  0.00  0.00     0.150 HD
HETATM   13  H   UNK N   1      25.606  15.043   8.139  0.00  0.00     0.150 HD
ENDBRANCH  10  11
ENDBRANCH   6  10
BRANCH   7  14
HETATM   14  N   UNK N   1      25.303  12.987  10.749  0.00  0.00    -0.385 N 
HETATM   15  H   UNK N   1      25.985  12.285  10.643  0.00  0.00     0.157 HD
HETATM   16  H   UNK N   1      25.515  13.808  11.248  0.00  0.00     0.157 HD
ENDBRANCH   7  14
TORSDOF 3
ENDMDL
MODEL 9
REMARK VINA RESULT:      -3.9      8.006     10.405
REMARK  3 active torsions:
REMARK  status: ('A' for Active; 'I' for Inactive)
REMARK    1  A    between atoms: C_6  and  C_7 
REMARK    2  A    between atoms: C_7  and  N_8 
REMARK    3  A    between atoms: C_9  and  N_10 
ROOT
HETATM    1  C   UNK N   1      33.833  17.622   7.306  0.00  0.00     0.089 C 
HETATM    2  C   UNK N   1      32.363  17.548   7.518  0.00  0.00     0.078 A 
HETATM    3  N   UNK N   1      31.842  17.824   8.740  0.00  0.00    -0.355 N 
ATOM      4  HN  UNK N   1      32.465  18.081   9.506  1.00  0.00     0.166 HD
HETATM    5  C   UNK N   1      30.504  17.763   8.955  0.00  0.00     0.102 A 
HETATM    6  C   UNK N   1      29.633  17.414   7.923  0.00  0.00     0.018 A 
HETATM    7  C   UNK N   1      30.198  17.130   6.656  0.00  0.00     0.109 A 
HETATM    8  N   UNK N   1      31.545  17.205   6.490  0.00  0.00    -0.332 N 
ATOM      9  HN  UNK N   1      31.948  17.000   5.576  1.00  0.00     0.168 HD
ENDROOT
BRANCH   6  10
HETATM   10  C   UNK N   1      28.161  17.374   8.262  0.00  0.00     0.155 C 
BRANCH  10  11
HETATM   11  N   UNK N   1      27.690  18.501   9.050  0.00  0.00    -0.426 N 
HETATM   12  H   UNK N   1      27.115  19.222   8.615  0.00  0.00     0.150 HD
HETATM   13  H   UNK N   1      27.935  18.570  10.038  0.00  0.00     0.150 HD
ENDBRANCH  10  11
ENDBRANCH   6  10
BRANCH   7  14
HETATM   14  N   UNK N   1      29.397  16.769   5.552  0.00  0.00    -0.385 N 
HETATM   15  H   UNK N   1      29.642  17.069   4.647  0.00  0.00     0.157 HD
HETATM   16  H   UNK N   1      28.594  16.216   5.686  0.00  0.00     0.157 HD
ENDBRANCH   7  14
TORSDOF 3
ENDMDL
