MODEL 1
REMARK VINA RESULT:      -5.1      0.000      0.000
REMARK  6 active torsions:
REMARK  status: ('A' for Active; 'I' for Inactive)
REMARK    1  A    between atoms: C_2  and  N_3 
REMARK    2  A    between atoms: C_2  and  C_4 
REMARK    3  A    between atoms: C_9  and  O_10 
REMARK    4  A    between atoms: N_11  and  C_12 
REMARK    5  A    between atoms: C_12  and  C_13 
REMARK    6  A    between atoms: C_13  and  O_14 
ROOT
HETATM    1  C   UNK N   1      21.196  18.290   3.604  0.00  0.00     0.108 A 
HETATM    2  N   UNK N   1      22.293  17.843   4.266  0.00  0.00    -0.344 N 
ATOM      3  HN  UNK N   1      22.394  16.973   4.788  1.00  0.00     0.167 HD
HETATM    4  C   UNK N   1      23.221  18.804   4.084  0.00  0.00     0.058 A 
HETATM    5  C   UNK N   1      24.608  18.745   4.620  0.00  0.00     0.072 C 
HETATM    6  C   UNK N   1      22.682  19.810   3.323  0.00  0.00     0.167 A 
HETATM    7  N   UNK N   1      21.412  19.495   3.025  0.00  0.00    -0.304 N 
ENDROOT
BRANCH   1   8
HETATM    8  C   UNK N   1      19.910  17.512   3.509  0.00  0.00     0.138 C 
HETATM    9  C   UNK N   1      19.813  16.474   4.609  0.00  0.00     0.040 C 
BRANCH   8  10
HETATM   10  N   UNK N   1      19.806  16.849   2.219  0.00  0.00    -0.420 N 
HETATM   11  H   UNK N   1      19.453  15.897   2.117  0.00  0.00     0.150 HD
HETATM   12  H   UNK N   1      20.098  17.357   1.384  0.00  0.00     0.150 HD
ENDBRANCH   8  10
ENDBRANCH   1   8
BRANCH   7  13
HETATM   13  C   UNK N   1      20.478  20.279   2.220  0.00  0.00     0.242 C 
BRANCH  13  14
HETATM   14  C   UNK N   1      20.796  20.173   0.757  0.00  0.00     0.158 C 
HETATM   15  O   UNK N   1      21.323  21.112   0.183  0.00  0.00    -0.649 OA
BRANCH  14  16
HETATM   16  O   UNK N   1      20.483  19.060   0.067  0.00  0.00    -0.775 OA
HETATM   17  H   UNK N   1      20.604  18.976  -0.858  0.00  0.00     0.167 HD
ENDBRANCH  14  16
ENDBRANCH  13  14
ENDBRANCH   7  13
BRANCH   6  18
HETATM   18  O   UNK N   1      23.312  20.927   2.920  0.00  0.00    -0.344 OA
HETATM   19  H   UNK N   1      22.834  21.645   2.553  0.00  0.00     0.219 HD
ENDBRANCH   6  18
TORSDOF 6
ENDMDL
MODEL 2
REMARK VINA RESULT:      -5.0      2.231      2.835
REMARK  6 active torsions:
REMARK  status: ('A' for Active; 'I' for Inactive)
REMARK    1  A    between atoms: C_2  and  N_3 
REMARK    2  A    between atoms: C_2  and  C_4 
REMARK    3  A    between atoms: C_9  and  O_10 
REMARK    4  A    between atoms: N_11  and  C_12 
REMARK    5  A    between atoms: C_12  and  C_13 
REMARK    6  A    between atoms: C_13  and  O_14 
ROOT
HETATM    1  C   UNK N   1      23.429  18.588   4.664  0.00  0.00     0.108 A 
HETATM    2  N   UNK N   1      24.683  18.866   5.103  0.00  0.00    -0.344 N 
ATOM      3  HN  UNK N   1      25.169  18.453   5.899  1.00  0.00     0.167 HD
HETATM    4  C   UNK N   1      25.144  19.808   4.257  0.00  0.00     0.058 A 
HETATM    5  C   UNK N   1      26.501  20.416   4.335  0.00  0.00     0.072 C 
HETATM    6  C   UNK N   1      24.177  20.087   3.326  0.00  0.00     0.167 A 
HETATM    7  N   UNK N   1      23.099  19.330   3.581  0.00  0.00    -0.304 N 
ENDROOT
BRANCH   1   8
HETATM    8  C   UNK N   1      22.537  17.554   5.298  0.00  0.00     0.138 C 
HETATM    9  C   UNK N   1      21.533  18.195   6.236  0.00  0.00     0.040 C 
BRANCH   8  10
HETATM   10  N   UNK N   1      23.325  16.582   6.039  0.00  0.00    -0.420 N 
HETATM   11  H   UNK N   1      23.185  16.403   7.034  0.00  0.00     0.150 HD
HETATM   12  H   UNK N   1      24.047  16.058   5.544  0.00  0.00     0.150 HD
ENDBRANCH   8  10
ENDBRANCH   1   8
BRANCH   7  13
HETATM   13  C   UNK N   1      21.849  19.298   2.824  0.00  0.00     0.242 C 
BRANCH  13  14
HETATM   14  C   UNK N   1      21.067  20.565   3.006  0.00  0.00     0.158 C 
HETATM   15  O   UNK N   1      20.253  20.648   3.910  0.00  0.00    -0.649 OA
BRANCH  14  16
HETATM   16  O   UNK N   1      21.239  21.603   2.166  0.00  0.00    -0.775 OA
HETATM   17  H   UNK N   1      21.288  22.494   2.451  0.00  0.00     0.167 HD
ENDBRANCH  14  16
ENDBRANCH  13  14
ENDBRANCH   7  13
BRANCH   6  18
HETATM   18  O   UNK N   1      24.280  20.962   2.310  0.00  0.00    -0.344 OA
HETATM   19  H   UNK N   1      25.117  21.200   1.961  0.00  0.00     0.219 HD
ENDBRANCH   6  18
TORSDOF 6
ENDMDL
MODEL 3
REMARK VINA RESULT:      -4.8      1.543      3.574
REMARK  6 active torsions:
REMARK  status: ('A' for Active; 'I' for Inactive)
REMARK    1  A    between atoms: C_2  and  N_3 
REMARK    2  A    between atoms: C_2  and  C_4 
REMARK    3  A    between atoms: C_9  and  O_10 
REMARK    4  A    between atoms: N_11  and  C_12 
REMARK    5  A    between atoms: C_12  and  C_13 
REMARK    6  A    between atoms: C_13  and  O_14 
ROOT
HETATM    1  C   UNK N   1      21.838  17.954   3.624  0.00  0.00     0.108 A 
HETATM    2  N   UNK N   1      21.887  16.658   3.225  0.00  0.00    -0.344 N 
ATOM      3  HN  UNK N   1      22.571  15.950   3.492  1.00  0.00     0.167 HD
HETATM    4  C   UNK N   1      20.833  16.511   2.398  0.00  0.00     0.058 A 
HETATM    5  C   UNK N   1      20.467  15.236   1.722  0.00  0.00     0.072 C 
HETATM    6  C   UNK N   1      20.166  17.705   2.305  0.00  0.00     0.167 A 
HETATM    7  N   UNK N   1      20.795  18.613   3.067  0.00  0.00    -0.304 N 
ENDROOT
BRANCH   1   8
HETATM    8  C   UNK N   1      22.817  18.563   4.593  0.00  0.00     0.138 C 
HETATM    9  C   UNK N   1      24.132  18.888   3.915  0.00  0.00     0.040 C 
BRANCH   8  10
HETATM   10  N   UNK N   1      23.066  17.659   5.705  0.00  0.00    -0.420 N 
HETATM   11  H   UNK N   1      22.422  17.561   6.490  0.00  0.00     0.150 HD
HETATM   12  H   UNK N   1      23.920  17.101   5.699  0.00  0.00     0.150 HD
ENDBRANCH   8  10
ENDBRANCH   1   8
BRANCH   7  13
HETATM   13  C   UNK N   1      20.409  20.008   3.269  0.00  0.00     0.242 C 
BRANCH  13  14
HETATM   14  C   UNK N   1      21.173  20.925   2.360  0.00  0.00     0.158 C 
HETATM   15  O   UNK N   1      20.898  20.966   1.173  0.00  0.00    -0.649 OA
BRANCH  14  16
HETATM   16  O   UNK N   1      22.174  21.687   2.840  0.00  0.00    -0.775 OA
HETATM   17  H   UNK N   1      22.784  22.141   2.293  0.00  0.00     0.167 HD
ENDBRANCH  14  16
ENDBRANCH  13  14
ENDBRANCH   7  13
BRANCH   6  18
HETATM   18  O   UNK N   1      19.054  17.941   1.587  0.00  0.00    -0.344 OA
HETATM   19  H   UNK N   1      19.105  18.166   0.678  0.00  0.00     0.219 HD
ENDBRANCH   6  18
TORSDOF 6
ENDMDL
MODEL 4
REMARK VINA RESULT:      -4.8     13.676     14.821
REMARK  6 active torsions:
REMARK  status: ('A' for Active; 'I' for Inactive)
REMARK    1  A    between atoms: C_2  and  N_3 
REMARK    2  A    between atoms: C_2  and  C_4 
REMARK    3  A    between atoms: C_9  and  O_10 
REMARK    4  A    between atoms: N_11  and  C_12 
REMARK    5  A    between atoms: C_12  and  C_13 
REMARK    6  A    between atoms: C_13  and  O_14 
ROOT
HETATM    1  C   UNK N   1      34.217  14.945   8.647  0.00  0.00     0.108 A 
HETATM    2  N   UNK N   1      34.955  14.087   9.395  0.00  0.00    -0.344 N 
ATOM      3  HN  UNK N   1      35.147  13.103   9.205  1.00  0.00     0.167 HD
HETATM    4  C   UNK N   1      35.378  14.819  10.445  0.00  0.00     0.058 A 
HETATM    5  C   UNK N   1      36.244  14.298  11.538  0.00  0.00     0.072 C 
HETATM    6  C   UNK N   1      34.897  16.097  10.323  0.00  0.00     0.167 A 
HETATM    7  N   UNK N   1      34.165  16.180   9.201  0.00  0.00    -0.304 N 
ENDROOT
BRANCH   1   8
HETATM    8  C   UNK N   1      33.567  14.564   7.343  0.00  0.00     0.138 C 
HETATM    9  C   UNK N   1      33.306  13.073   7.275  0.00  0.00     0.040 C 
BRANCH   8  10
HETATM   10  N   UNK N   1      34.405  14.952   6.220  0.00  0.00    -0.420 N 
HETATM   11  H   UNK N   1      35.020  14.294   5.740  0.00  0.00     0.150 HD
HETATM   12  H   UNK N   1      34.375  15.920   5.899  0.00  0.00     0.150 HD
ENDBRANCH   8  10
ENDBRANCH   1   8
BRANCH   7  13
HETATM   13  C   UNK N   1      33.485  17.364   8.682  0.00  0.00     0.242 C 
BRANCH  13  14
HETATM   14  C   UNK N   1      34.419  18.225   7.883  0.00  0.00     0.158 C 
HETATM   15  O   UNK N   1      34.474  18.096   6.671  0.00  0.00    -0.649 OA
BRANCH  14  16
HETATM   16  O   UNK N   1      35.214  19.123   8.494  0.00  0.00    -0.775 OA
HETATM   17  H   UNK N   1      36.023  18.898   8.910  0.00  0.00     0.167 HD
ENDBRANCH  14  16
ENDBRANCH  13  14
ENDBRANCH   7  13
BRANCH   6  18
HETATM   18  O   UNK N   1      35.125  17.117  11.170  0.00  0.00    -0.344 OA
HETATM   19  H   UNK N   1      34.762  17.115  12.034  0.00  0.00     0.219 HD
ENDBRANCH   6  18
TORSDOF 6
ENDMDL
MODEL 5
REMARK VINA RESULT:      -4.5      7.204      8.918
REMARK  6 active torsions:
REMARK  status: ('A' for Active; 'I' for Inactive)
REMARK    1  A    between atoms: C_2  and  N_3 
REMARK    2  A    between atoms: C_2  and  C_4 
REMARK    3  A    between atoms: C_9  and  O_10 
REMARK    4  A    between atoms: N_11  and  C_12 
REMARK    5  A    between atoms: C_12  and  C_13 
REMARK    6  A    between atoms: C_13  and  O_14 
ROOT
HETATM    1  C   UNK N   1      28.431  18.359   7.065  0.00  0.00     0.108 A 
HETATM    2  N   UNK N   1      27.736  19.486   7.364  0.00  0.00    -0.344 N 
ATOM      3  HN  UNK N   1      27.439  19.808   8.285  1.00  0.00     0.167 HD
HETATM    4  C   UNK N   1      27.523  20.086   6.175  0.00  0.00     0.058 A 
HETATM    5  C   UNK N   1      26.806  21.379   6.004  0.00  0.00     0.072 C 
HETATM    6  C   UNK N   1      28.085  19.326   5.182  0.00  0.00     0.167 A 
HETATM    7  N   UNK N   1      28.649  18.240   5.734  0.00  0.00    -0.304 N 
ENDROOT
BRANCH   1   8
HETATM    8  C   UNK N   1      28.919  17.385   8.104  0.00  0.00     0.138 C 
HETATM    9  C   UNK N   1      28.011  17.373   9.317  0.00  0.00     0.040 C 
BRANCH   8  10
HETATM   10  N   UNK N   1      30.270  17.719   8.525  0.00  0.00    -0.420 N 
HETATM   11  H   UNK N   1      30.818  17.119   9.142  0.00  0.00     0.150 HD
HETATM   12  H   UNK N   1      30.686  18.588   8.190  0.00  0.00     0.150 HD
ENDBRANCH   8  10
ENDBRANCH   1   8
BRANCH   7  13
HETATM   13  C   UNK N   1      29.371  17.177   5.039  0.00  0.00     0.242 C 
BRANCH  13  14
HETATM   14  C   UNK N   1      30.832  17.496   4.919  0.00  0.00     0.158 C 
HETATM   15  O   UNK N   1      31.593  17.194   5.823  0.00  0.00    -0.649 OA
BRANCH  14  16
HETATM   16  O   UNK N   1      31.307  18.131   3.831  0.00  0.00    -0.775 OA
HETATM   17  H   UNK N   1      32.220  18.258   3.666  0.00  0.00     0.167 HD
ENDBRANCH  14  16
ENDBRANCH  13  14
ENDBRANCH   7  13
BRANCH   6  18
HETATM   18  O   UNK N   1      28.092  19.613   3.869  0.00  0.00    -0.344 OA
HETATM   19  H   UNK N   1      27.594  19.102   3.261  0.00  0.00     0.219 HD
ENDBRANCH   6  18
TORSDOF 6
ENDMDL
MODEL 6
REMARK VINA RESULT:      -4.5     13.988     15.482
REMARK  6 active torsions:
REMARK  status: ('A' for Active; 'I' for Inactive)
REMARK    1  A    between atoms: C_2  and  N_3 
REMARK    2  A    between atoms: C_2  and  C_4 
REMARK    3  A    between atoms: C_9  and  O_10 
REMARK    4  A    between atoms: N_11  and  C_12 
REMARK    5  A    between atoms: C_12  and  C_13 
REMARK    6  A    between atoms: C_13  and  O_14 
ROOT
HETATM    1  C   UNK N   1      34.028  14.839   8.688  0.00  0.00     0.108 A 
HETATM    2  N   UNK N   1      33.332  15.818   8.055  0.00  0.00    -0.344 N 
ATOM      3  HN  UNK N   1      32.588  15.707   7.366  1.00  0.00     0.167 HD
HETATM    4  C   UNK N   1      33.842  16.970   8.535  0.00  0.00     0.058 A 
HETATM    5  C   UNK N   1      33.373  18.326   8.138  0.00  0.00     0.072 C 
HETATM    6  C   UNK N   1      34.828  16.680   9.443  0.00  0.00     0.167 A 
HETATM    7  N   UNK N   1      34.952  15.347   9.537  0.00  0.00    -0.304 N 
ENDROOT
BRANCH   1   8
HETATM    8  C   UNK N   1      33.769  13.370   8.482  0.00  0.00     0.138 C 
HETATM    9  C   UNK N   1      33.460  13.065   7.030  0.00  0.00     0.040 C 
BRANCH   8  10
HETATM   10  N   UNK N   1      32.658  12.925   9.307  0.00  0.00    -0.420 N 
HETATM   11  H   UNK N   1      32.117  12.086   9.096  0.00  0.00     0.150 HD
HETATM   12  H   UNK N   1      32.409  13.475  10.130  0.00  0.00     0.150 HD
ENDBRANCH   8  10
ENDBRANCH   1   8
BRANCH   7  13
HETATM   13  C   UNK N   1      35.872  14.610  10.400  0.00  0.00     0.242 C 
BRANCH  13  14
HETATM   14  C   UNK N   1      35.323  14.465  11.788  0.00  0.00     0.158 C 
HETATM   15  O   UNK N   1      35.935  14.933  12.733  0.00  0.00    -0.649 OA
BRANCH  14  16
HETATM   16  O   UNK N   1      34.170  13.803  12.003  0.00  0.00    -0.775 OA
HETATM   17  H   UNK N   1      33.477  14.134  12.539  0.00  0.00     0.167 HD
ENDBRANCH  14  16
ENDBRANCH  13  14
ENDBRANCH   7  13
BRANCH   6  18
HETATM   18  O   UNK N   1      35.552  17.572  10.143  0.00  0.00    -0.344 OA
HETATM   19  H   UNK N   1      36.489  17.559  10.116  0.00  0.00     0.219 HD
ENDBRANCH   6  18
TORSDOF 6
ENDMDL
MODEL 7
REMARK VINA RESULT:      -4.5      8.269     10.194
REMARK  6 active torsions:
REMARK  status: ('A' for Active; 'I' for Inactive)
REMARK    1  A    between atoms: C_2  and  N_3 
REMARK    2  A    between atoms: C_2  and  C_4 
REMARK    3  A    between atoms: C_9  and  O_10 
REMARK    4  A    between atoms: N_11  and  C_12 
REMARK    5  A    between atoms: C_12  and  C_13 
REMARK    6  A    between atoms: C_13  and  O_14 
ROOT
HETATM    1  C   UNK N   1      23.150  13.283   8.607  0.00  0.00     0.108 A 
HETATM    2  N   UNK N   1      22.401  14.308   8.127  0.00  0.00    -0.344 N 
ATOM      3  HN  UNK N   1      22.641  14.957   7.377  1.00  0.00     0.167 HD
HETATM    4  C   UNK N   1      21.270  14.282   8.861  0.00  0.00     0.058 A 
HETATM    5  C   UNK N   1      20.130  15.223   8.681  0.00  0.00     0.072 C 
HETATM    6  C   UNK N   1      21.346  13.255   9.766  0.00  0.00     0.167 A 
HETATM    7  N   UNK N   1      22.524  12.630   9.614  0.00  0.00    -0.304 N 
ENDROOT
BRANCH   1   8
HETATM    8  C   UNK N   1      24.500  12.911   8.053  0.00  0.00     0.138 C 
HETATM    9  C   UNK N   1      25.281  14.142   7.637  0.00  0.00     0.040 C 
BRANCH   8  10
HETATM   10  N   UNK N   1      24.358  12.028   6.906  0.00  0.00    -0.420 N 
HETATM   11  H   UNK N   1      25.076  11.354   6.639  0.00  0.00     0.150 HD
HETATM   12  H   UNK N   1      23.507  12.086   6.347  0.00  0.00     0.150 HD
ENDBRANCH   8  10
ENDBRANCH   1   8
BRANCH   7  13
HETATM   13  C   UNK N   1      23.006  11.471  10.362  0.00  0.00     0.242 C 
BRANCH  13  14
HETATM   14  C   UNK N   1      23.562  11.874  11.697  0.00  0.00     0.158 C 
HETATM   15  O   UNK N   1      22.830  11.902  12.672  0.00  0.00    -0.649 OA
BRANCH  14  16
HETATM   16  O   UNK N   1      24.855  12.225  11.822  0.00  0.00    -0.775 OA
HETATM   17  H   UNK N   1      25.438  11.832  12.442  0.00  0.00     0.167 HD
ENDBRANCH  14  16
ENDBRANCH  13  14
ENDBRANCH   7  13
BRANCH   6  18
HETATM   18  O   UNK N   1      20.400  12.907  10.655  0.00  0.00    -0.344 OA
HETATM   19  H   UNK N   1      20.597  12.841  11.569  0.00  0.00     0.219 HD
ENDBRANCH   6  18
TORSDOF 6
ENDMDL
MODEL 8
REMARK VINA RESULT:      -4.5      7.515      9.529
REMARK  6 active torsions:
REMARK  status: ('A' for Active; 'I' for Inactive)
REMARK    1  A    between atoms: C_2  and  N_3 
REMARK    2  A    between atoms: C_2  and  C_4 
REMARK    3  A    between atoms: C_9  and  O_10 
REMARK    4  A    between atoms: N_11  and  C_12 
REMARK    5  A    between atoms: C_12  and  C_13 
REMARK    6  A    between atoms: C_13  and  O_14 
ROOT
HETATM    1  C   UNK N   1      28.949  18.155   5.465  0.00  0.00     0.108 A 
HETATM    2  N   UNK N   1      28.224  19.169   4.929  0.00  0.00    -0.344 N 
ATOM      3  HN  UNK N   1      28.157  19.435   3.947  1.00  0.00     0.167 HD
HETATM    4  C   UNK N   1      27.613  19.751   5.981  0.00  0.00     0.058 A 
HETATM    5  C   UNK N   1      26.688  20.912   5.877  0.00  0.00     0.072 C 
HETATM    6  C   UNK N   1      27.969  19.090   7.128  0.00  0.00     0.167 A 
HETATM    7  N   UNK N   1      28.810  18.093   6.811  0.00  0.00    -0.304 N 
ENDROOT
BRANCH   1   8
HETATM    8  C   UNK N   1      29.777  17.202   4.646  0.00  0.00     0.138 C 
HETATM    9  C   UNK N   1      31.231  17.629   4.608  0.00  0.00     0.040 C 
BRANCH   8  10
HETATM   10  N   UNK N   1      29.270  17.122   3.285  0.00  0.00    -0.420 N 
HETATM   11  H   UNK N   1      28.353  17.480   3.017  0.00  0.00     0.150 HD
HETATM   12  H   UNK N   1      29.856  16.690   2.569  0.00  0.00     0.150 HD
ENDBRANCH   8  10
ENDBRANCH   1   8
BRANCH   7  13
HETATM   13  C   UNK N   1      29.418  17.132   7.729  0.00  0.00     0.242 C 
BRANCH  13  14
HETATM   14  C   UNK N   1      30.476  17.777   8.575  0.00  0.00     0.158 C 
HETATM   15  O   UNK N   1      31.633  17.790   8.190  0.00  0.00    -0.649 OA
BRANCH  14  16
HETATM   16  O   UNK N   1      30.163  18.322   9.765  0.00  0.00    -0.775 OA
HETATM   17  H   UNK N   1      29.282  18.461  10.053  0.00  0.00     0.167 HD
ENDBRANCH  14  16
ENDBRANCH  13  14
ENDBRANCH   7  13
BRANCH   6  18
HETATM   18  O   UNK N   1      27.544  19.371   8.373  0.00  0.00    -0.344 OA
HETATM   19  H   UNK N   1      27.143  20.195   8.570  0.00  0.00     0.219 HD
ENDBRANCH   6  18
TORSDOF 6
ENDMDL
MODEL 9
REMARK VINA RESULT:      -4.5     15.807     17.974
REMARK  6 active torsions:
REMARK  status: ('A' for Active; 'I' for Inactive)
REMARK    1  A    between atoms: C_2  and  N_3 
REMARK    2  A    between atoms: C_2  and  C_4 
REMARK    3  A    between atoms: C_9  and  O_10 
REMARK    4  A    between atoms: N_11  and  C_12 
REMARK    5  A    between atoms: C_12  and  C_13 
REMARK    6  A    between atoms: C_13  and  O_14 
ROOT
HETATM    1  C   UNK N   1      36.997  13.256  11.178  0.00  0.00     0.108 A 
HETATM    2  N   UNK N   1      37.651  13.114  12.359  0.00  0.00    -0.344 N 
ATOM      3  HN  UNK N   1      38.658  13.126  12.518  1.00  0.00     0.167 HD
HETATM    4  C   UNK N   1      36.676  12.953  13.276  0.00  0.00     0.058 A 
HETATM    5  C   UNK N   1      36.916  12.775  14.735  0.00  0.00     0.072 C 
HETATM    6  C   UNK N   1      35.458  12.998  12.649  0.00  0.00     0.167 A 
HETATM    7  N   UNK N   1      35.654  13.182  11.334  0.00  0.00    -0.304 N 
ENDROOT
BRANCH   1   8
HETATM    8  C   UNK N   1      37.695  13.498   9.866  0.00  0.00     0.138 C 
HETATM    9  C   UNK N   1      38.419  12.253   9.392  0.00  0.00     0.040 C 
BRANCH   8  10
HETATM   10  N   UNK N   1      38.652  14.586   9.987  0.00  0.00    -0.420 N 
HETATM   11  H   UNK N   1      39.142  14.794  10.857  0.00  0.00     0.150 HD
HETATM   12  H   UNK N   1      38.839  15.165   9.168  0.00  0.00     0.150 HD
ENDBRANCH   8  10
ENDBRANCH   1   8
BRANCH   7  13
HETATM   13  C   UNK N   1      34.627  13.307  10.302  0.00  0.00     0.242 C 
BRANCH  13  14
HETATM   14  C   UNK N   1      34.045  14.689  10.273  0.00  0.00     0.158 C 
HETATM   15  O   UNK N   1      34.479  15.512   9.484  0.00  0.00    -0.649 OA
BRANCH  14  16
HETATM   16  O   UNK N   1      33.062  15.036  11.125  0.00  0.00    -0.775 OA
HETATM   17  H   UNK N   1      33.172  15.666  11.810  0.00  0.00     0.167 HD
ENDBRANCH  14  16
ENDBRANCH  13  14
ENDBRANCH   7  13
BRANCH   6  18
HETATM   18  O   UNK N   1      34.254  12.893  13.240  0.00  0.00    -0.344 OA
HETATM   19  H   UNK N   1      33.884  12.054  13.434  0.00  0.00     0.219 HD
ENDBRANCH   6  18
TORSDOF 6
ENDMDL
