MODEL 1
REMARK VINA RESULT:      -5.0      0.000      0.000
REMARK  11 active torsions:
REMARK  status: ('A' for Active; 'I' for Inactive)
REMARK    1  A    between atoms: C_2  and  C_1 
REMARK    2  A    between atoms: O_14  and  C_1 
REMARK    3  A    between atoms: C_3  and  O_15 
REMARK    4  A    between atoms: C_4  and  O_16 
REMARK    5  A    between atoms: C_5  and  O_17 
REMARK    6  A    between atoms: C_7  and  C_6 
REMARK    7  A    between atoms: N_8  and  C_6 
REMARK    8  A    between atoms: O_18  and  C_6 
REMARK    9  A    between atoms: C_7  and  N_11 
REMARK   10  A    between atoms: N_13  and  N_9 
REMARK   11  A    between atoms: N_13  and  N_11 
ROOT
HETATM    1  C   UNK N   1      35.413  13.055  12.790  0.00  0.00     0.179 C 
HETATM    2  C   UNK N   1      36.931  13.270  12.708  0.00  0.00     0.180 C 
HETATM    3  C   UNK N   1      37.315  13.383  11.247  0.00  0.00     0.183 C 
HETATM    4  C   UNK N   1      36.522  14.499  10.548  0.00  0.00     0.211 C 
HETATM    5  C   UNK N   1      35.043  14.777  11.078  0.00  0.00     0.232 C 
HETATM    6  O   UNK N   1      34.666  14.149  12.305  0.00  0.00    -0.343 OA
ENDROOT
BRANCH   5   7
HETATM    7  C   UNK N   1      34.003  14.421   9.983  0.00  0.00     0.272 C 
BRANCH   7   8
HETATM    8  N   UNK N   1      32.723  15.062  10.255  0.00  0.00    -0.402 N 
HETATM    9  H   UNK N   1      32.609  15.873  10.865  0.00  0.00     0.152 HD
HETATM   10  H   UNK N   1      31.890  14.677   9.811  0.00  0.00     0.152 HD
ENDBRANCH   7   8
BRANCH   7  11
HETATM   11  O   UNK N   1      34.457  14.812   8.725  0.00  0.00    -0.372 OA
HETATM   12  H   UNK N   1      34.322  15.073   7.801  0.00  0.00     0.212 HD
ENDBRANCH   7  11
ENDBRANCH   5   7
BRANCH   5  13
HETATM   13  N   UNK N   1      34.913  16.209  11.341  0.00  0.00    -0.209 N 
ATOM     14  HN  UNK N   1      34.790  16.546  12.295  1.00  0.00     0.201 HD
BRANCH  13  15
HETATM   15  N   UNK N   1      34.955  16.997  10.409  0.00  0.00    -0.245 NA
BRANCH  15  16
HETATM   16  N   UNK N   1      34.979  17.777   9.473  0.00  0.00    -0.261 N 
HETATM   17  H   UNK N   1      34.981  17.438   8.549  0.00  0.00     0.193 HD
ATOM     18  HN  UNK N   1      34.998  18.782   9.648  1.00  0.00     0.193 HD
ENDBRANCH  15  16
ENDBRANCH  13  15
ENDBRANCH   5  13
BRANCH   4  19
HETATM   19  O   UNK N   1      37.278  15.677  10.570  0.00  0.00    -0.388 OA
HETATM   20  H   UNK N   1      37.631  16.581  10.582  0.00  0.00     0.210 HD
ENDBRANCH   4  19
BRANCH   3  21
HETATM   21  O   UNK N   1      37.082  12.159  10.612  0.00  0.00    -0.390 OA
HETATM   22  H   UNK N   1      36.828  11.228  10.524  0.00  0.00     0.210 HD
ENDBRANCH   3  21
BRANCH   1  23
HETATM   23  C   UNK N   1      35.013  12.863  14.253  0.00  0.00     0.198 C 
BRANCH  23  24
HETATM   24  O   UNK N   1      35.870  13.574  15.101  0.00  0.00    -0.398 OA
HETATM   25  H   UNK N   1      36.146  14.309  15.670  0.00  0.00     0.209 HD
ENDBRANCH  23  24
ENDBRANCH   1  23
BRANCH   2  26
HETATM   26  O   UNK N   1      37.597  12.178  13.276  0.00  0.00    -0.390 OA
HETATM   27  H   UNK N   1      37.210  11.296  13.391  0.00  0.00     0.210 HD
ENDBRANCH   2  26
TORSDOF 11
ENDMDL
MODEL 2
REMARK VINA RESULT:      -5.0      3.284      5.826
REMARK  11 active torsions:
REMARK  status: ('A' for Active; 'I' for Inactive)
REMARK    1  A    between atoms: C_2  and  C_1 
REMARK    2  A    between atoms: O_14  and  C_1 
REMARK    3  A    between atoms: C_3  and  O_15 
REMARK    4  A    between atoms: C_4  and  O_16 
REMARK    5  A    between atoms: C_5  and  O_17 
REMARK    6  A    between atoms: C_7  and  C_6 
REMARK    7  A    between atoms: N_8  and  C_6 
REMARK    8  A    between atoms: O_18  and  C_6 
REMARK    9  A    between atoms: C_7  and  N_11 
REMARK   10  A    between atoms: N_13  and  N_9 
REMARK   11  A    between atoms: N_13  and  N_11 
ROOT
HETATM    1  C   UNK N   1      34.225  15.768   6.887  0.00  0.00     0.179 C 
HETATM    2  C   UNK N   1      34.550  17.260   7.042  0.00  0.00     0.180 C 
HETATM    3  C   UNK N   1      33.924  17.752   8.330  0.00  0.00     0.183 C 
HETATM    4  C   UNK N   1      34.396  16.918   9.532  0.00  0.00     0.211 C 
HETATM    5  C   UNK N   1      34.725  15.381   9.261  0.00  0.00     0.232 C 
HETATM    6  O   UNK N   1      34.797  14.964   7.895  0.00  0.00    -0.343 OA
ENDROOT
BRANCH   5   7
HETATM    7  C   UNK N   1      33.720  14.473  10.018  0.00  0.00     0.272 C 
BRANCH   7   8
HETATM    8  N   UNK N   1      34.253  13.125  10.173  0.00  0.00    -0.402 N 
HETATM    9  H   UNK N   1      35.199  12.852   9.905  0.00  0.00     0.152 HD
HETATM   10  H   UNK N   1      33.644  12.412  10.573  0.00  0.00     0.152 HD
ENDBRANCH   7   8
BRANCH   7  11
HETATM   11  O   UNK N   1      33.428  15.001  11.274  0.00  0.00    -0.372 OA
HETATM   12  H   UNK N   1      32.816  15.310  11.960  0.00  0.00     0.212 HD
ENDBRANCH   7  11
ENDBRANCH   5   7
BRANCH   5  13
HETATM   13  N   UNK N   1      36.052  15.095   9.804  0.00  0.00    -0.209 N 
ATOM     14  HN  UNK N   1      36.822  14.859   9.179  1.00  0.00     0.201 HD
BRANCH  13  15
HETATM   15  N   UNK N   1      36.230  15.143  11.011  0.00  0.00    -0.245 NA
BRANCH  15  16
HETATM   16  N   UNK N   1      36.403  15.210  12.215  0.00  0.00    -0.261 N 
HETATM   17  H   UNK N   1      35.796  14.734  12.827  0.00  0.00     0.193 HD
ATOM     18  HN  UNK N   1      37.177  15.759  12.590  1.00  0.00     0.193 HD
ENDBRANCH  15  16
ENDBRANCH  13  15
ENDBRANCH   5  13
BRANCH   4  19
HETATM   19  O   UNK N   1      35.492  17.555  10.126  0.00  0.00    -0.388 OA
HETATM   20  H   UNK N   1      36.244  17.851  10.662  0.00  0.00     0.210 HD
ENDBRANCH   4  19
BRANCH   3  21
HETATM   21  O   UNK N   1      32.531  17.688   8.220  0.00  0.00    -0.390 OA
HETATM   22  H   UNK N   1      31.664  17.310   8.007  0.00  0.00     0.210 HD
ENDBRANCH   3  21
BRANCH   1  23
HETATM   23  C   UNK N   1      34.785  15.268   5.555  0.00  0.00     0.198 C 
BRANCH  23  24
HETATM   24  O   UNK N   1      33.887  15.520   4.512  0.00  0.00    -0.398 OA
HETATM   25  H   UNK N   1      33.019  15.673   4.105  0.00  0.00     0.209 HD
ENDBRANCH  23  24
ENDBRANCH   1  23
BRANCH   2  26
HETATM   26  O   UNK N   1      34.014  17.977   5.966  0.00  0.00    -0.390 OA
HETATM   27  H   UNK N   1      33.088  18.260   5.899  0.00  0.00     0.210 HD
ENDBRANCH   2  26
TORSDOF 11
ENDMDL
MODEL 3
REMARK VINA RESULT:      -4.7      2.096      2.623
REMARK  11 active torsions:
REMARK  status: ('A' for Active; 'I' for Inactive)
REMARK    1  A    between atoms: C_2  and  C_1 
REMARK    2  A    between atoms: O_14  and  C_1 
REMARK    3  A    between atoms: C_3  and  O_15 
REMARK    4  A    between atoms: C_4  and  O_16 
REMARK    5  A    between atoms: C_5  and  O_17 
REMARK    6  A    between atoms: C_7  and  C_6 
REMARK    7  A    between atoms: N_8  and  C_6 
REMARK    8  A    between atoms: O_18  and  C_6 
REMARK    9  A    between atoms: C_7  and  N_11 
REMARK   10  A    between atoms: N_13  and  N_9 
REMARK   11  A    between atoms: N_13  and  N_11 
ROOT
HETATM    1  C   UNK N   1      34.718  11.922  13.307  0.00  0.00     0.179 C 
HETATM    2  C   UNK N   1      36.096  11.250  13.233  0.00  0.00     0.180 C 
HETATM    3  C   UNK N   1      36.592  11.340  11.804  0.00  0.00     0.183 C 
HETATM    4  C   UNK N   1      36.618  12.797  11.315  0.00  0.00     0.211 C 
HETATM    5  C   UNK N   1      35.513  13.781  11.911  0.00  0.00     0.232 C 
HETATM    6  O   UNK N   1      34.752  13.303  13.024  0.00  0.00    -0.343 OA
ENDROOT
BRANCH   5   7
HETATM    7  C   UNK N   1      34.542  14.241  10.792  0.00  0.00     0.272 C 
BRANCH   7   8
HETATM    8  N   UNK N   1      34.052  13.100  10.028  0.00  0.00    -0.402 N 
HETATM    9  H   UNK N   1      33.071  12.953   9.789  0.00  0.00     0.152 HD
HETATM   10  H   UNK N   1      34.731  12.407   9.714  0.00  0.00     0.152 HD
ENDBRANCH   7   8
BRANCH   7  11
HETATM   11  O   UNK N   1      33.460  14.935  11.331  0.00  0.00    -0.372 OA
HETATM   12  H   UNK N   1      32.939  15.280  12.073  0.00  0.00     0.212 HD
ENDBRANCH   7  11
ENDBRANCH   5   7
BRANCH   5  13
HETATM   13  N   UNK N   1      36.186  14.977  12.410  0.00  0.00    -0.209 N 
ATOM     14  HN  UNK N   1      36.339  15.775  11.794  1.00  0.00     0.201 HD
BRANCH  13  15
HETATM   15  N   UNK N   1      36.563  15.014  13.572  0.00  0.00    -0.245 NA
BRANCH  15  16
HETATM   16  N   UNK N   1      36.955  15.040  14.725  0.00  0.00    -0.261 N 
HETATM   17  H   UNK N   1      37.739  15.585  14.967  0.00  0.00     0.193 HD
ATOM     18  HN  UNK N   1      36.471  14.497  15.440  1.00  0.00     0.193 HD
ENDBRANCH  15  16
ENDBRANCH  13  15
ENDBRANCH   5  13
BRANCH   4  19
HETATM   19  O   UNK N   1      37.900  13.322  11.519  0.00  0.00    -0.388 OA
HETATM   20  H   UNK N   1      38.696  13.821  11.761  0.00  0.00     0.210 HD
ENDBRANCH   4  19
BRANCH   3  21
HETATM   21  O   UNK N   1      35.763  10.572  10.979  0.00  0.00    -0.390 OA
HETATM   22  H   UNK N   1      35.083  10.386  10.314  0.00  0.00     0.210 HD
ENDBRANCH   3  21
BRANCH   1  23
HETATM   23  C   UNK N   1      34.165  11.777  14.725  0.00  0.00     0.198 C 
BRANCH  23  24
HETATM   24  O   UNK N   1      34.380  12.944  15.465  0.00  0.00    -0.398 OA
HETATM   25  H   UNK N   1      34.892  13.583  15.985  0.00  0.00     0.209 HD
ENDBRANCH  23  24
ENDBRANCH   1  23
BRANCH   2  26
HETATM   26  O   UNK N   1      35.989   9.904  13.599  0.00  0.00    -0.390 OA
HETATM   27  H   UNK N   1      35.783   9.181  12.986  0.00  0.00     0.210 HD
ENDBRANCH   2  26
TORSDOF 11
ENDMDL
MODEL 4
REMARK VINA RESULT:      -4.7      1.985      2.461
REMARK  11 active torsions:
REMARK  status: ('A' for Active; 'I' for Inactive)
REMARK    1  A    between atoms: C_2  and  C_1 
REMARK    2  A    between atoms: O_14  and  C_1 
REMARK    3  A    between atoms: C_3  and  O_15 
REMARK    4  A    between atoms: C_4  and  O_16 
REMARK    5  A    between atoms: C_5  and  O_17 
REMARK    6  A    between atoms: C_7  and  C_6 
REMARK    7  A    between atoms: N_8  and  C_6 
REMARK    8  A    between atoms: O_18  and  C_6 
REMARK    9  A    between atoms: C_7  and  N_11 
REMARK   10  A    between atoms: N_13  and  N_9 
REMARK   11  A    between atoms: N_13  and  N_11 
ROOT
HETATM    1  C   UNK N   1      35.413  13.429  11.052  0.00  0.00     0.179 C 
HETATM    2  C   UNK N   1      35.884  14.606  11.918  0.00  0.00     0.180 C 
HETATM    3  C   UNK N   1      36.413  15.688  11.000  0.00  0.00     0.183 C 
HETATM    4  C   UNK N   1      35.356  16.104   9.964  0.00  0.00     0.211 C 
HETATM    5  C   UNK N   1      34.338  14.977   9.475  0.00  0.00     0.232 C 
HETATM    6  O   UNK N   1      34.326  13.752  10.212  0.00  0.00    -0.343 OA
ENDROOT
BRANCH   5   7
HETATM    7  C   UNK N   1      34.562  14.664   7.972  0.00  0.00     0.272 C 
BRANCH   7   8
HETATM    8  N   UNK N   1      33.393  14.008   7.400  0.00  0.00    -0.402 N 
HETATM    9  H   UNK N   1      32.431  14.219   7.669  0.00  0.00     0.152 HD
HETATM   10  H   UNK N   1      33.545  13.295   6.687  0.00  0.00     0.152 HD
ENDBRANCH   7   8
BRANCH   7  11
HETATM   11  O   UNK N   1      34.832  15.831   7.260  0.00  0.00    -0.372 OA
HETATM   12  H   UNK N   1      35.167  16.314   6.489  0.00  0.00     0.212 HD
ENDBRANCH   7  11
ENDBRANCH   5   7
BRANCH   5  13
HETATM   13  N   UNK N   1      32.980  15.499   9.606  0.00  0.00    -0.209 N 
ATOM     14  HN  UNK N   1      32.344  15.106  10.298  1.00  0.00     0.201 HD
BRANCH  13  15
HETATM   15  N   UNK N   1      32.615  16.412   8.880  0.00  0.00    -0.245 NA
BRANCH  15  16
HETATM   16  N   UNK N   1      32.259  17.335   8.169  0.00  0.00    -0.261 N 
HETATM   17  H   UNK N   1      32.820  18.139   8.088  0.00  0.00     0.193 HD
ATOM     18  HN  UNK N   1      31.378  17.273   7.658  1.00  0.00     0.193 HD
ENDBRANCH  15  16
ENDBRANCH  13  15
ENDBRANCH   5  13
BRANCH   4  19
HETATM   19  O   UNK N   1      34.658  17.217  10.447  0.00  0.00    -0.388 OA
HETATM   20  H   UNK N   1      34.248  18.077  10.629  0.00  0.00     0.210 HD
ENDBRANCH   4  19
BRANCH   3  21
HETATM   21  O   UNK N   1      37.562  15.224  10.353  0.00  0.00    -0.390 OA
HETATM   22  H   UNK N   1      38.507  15.059  10.210  0.00  0.00     0.210 HD
ENDBRANCH   3  21
BRANCH   1  23
HETATM   23  C   UNK N   1      34.944  12.293  11.962  0.00  0.00     0.198 C 
BRANCH  23  24
HETATM   24  O   UNK N   1      34.389  12.798  13.143  0.00  0.00    -0.398 OA
HETATM   25  H   UNK N   1      34.372  13.308  13.968  0.00  0.00     0.209 HD
ENDBRANCH  23  24
ENDBRANCH   1  23
BRANCH   2  26
HETATM   26  O   UNK N   1      36.909  14.186  12.773  0.00  0.00    -0.390 OA
HETATM   27  H   UNK N   1      36.815  13.496  13.449  0.00  0.00     0.210 HD
ENDBRANCH   2  26
TORSDOF 11
ENDMDL
MODEL 5
REMARK VINA RESULT:      -4.6      2.413      4.203
REMARK  11 active torsions:
REMARK  status: ('A' for Active; 'I' for Inactive)
REMARK    1  A    between atoms: C_2  and  C_1 
REMARK    2  A    between atoms: O_14  and  C_1 
REMARK    3  A    between atoms: C_3  and  O_15 
REMARK    4  A    between atoms: C_4  and  O_16 
REMARK    5  A    between atoms: C_5  and  O_17 
REMARK    6  A    between atoms: C_7  and  C_6 
REMARK    7  A    between atoms: N_8  and  C_6 
REMARK    8  A    between atoms: O_18  and  C_6 
REMARK    9  A    between atoms: C_7  and  N_11 
REMARK   10  A    between atoms: N_13  and  N_9 
REMARK   11  A    between atoms: N_13  and  N_11 
ROOT
HETATM    1  C   UNK N   1      36.328  14.478   8.589  0.00  0.00     0.179 C 
HETATM    2  C   UNK N   1      36.388  13.899  10.010  0.00  0.00     0.180 C 
HETATM    3  C   UNK N   1      36.011  14.994  10.985  0.00  0.00     0.183 C 
HETATM    4  C   UNK N   1      34.635  15.590  10.649  0.00  0.00     0.211 C 
HETATM    5  C   UNK N   1      34.216  15.620   9.110  0.00  0.00     0.232 C 
HETATM    6  O   UNK N   1      35.031  14.875   8.202  0.00  0.00    -0.343 OA
ENDROOT
BRANCH   5   7
HETATM    7  C   UNK N   1      34.105  17.085   8.610  0.00  0.00     0.272 C 
BRANCH   7   8
HETATM    8  N   UNK N   1      32.768  17.614   8.848  0.00  0.00    -0.402 N 
HETATM    9  H   UNK N   1      32.569  18.407   9.459  0.00  0.00     0.152 HD
HETATM   10  H   UNK N   1      31.984  17.166   8.374  0.00  0.00     0.152 HD
ENDBRANCH   7   8
BRANCH   7  11
HETATM   11  O   UNK N   1      35.043  17.895   9.246  0.00  0.00    -0.372 OA
HETATM   12  H   UNK N   1      35.837  18.038   9.786  0.00  0.00     0.212 HD
ENDBRANCH   7  11
ENDBRANCH   5   7
BRANCH   5  13
HETATM   13  N   UNK N   1      32.887  15.025   8.986  0.00  0.00    -0.209 N 
ATOM     14  HN  UNK N   1      32.066  15.620   8.878  1.00  0.00     0.201 HD
BRANCH  13  15
HETATM   15  N   UNK N   1      32.768  13.809   9.011  0.00  0.00    -0.245 NA
BRANCH  15  16
HETATM   16  N   UNK N   1      32.667  12.596   9.044  0.00  0.00    -0.261 N 
HETATM   17  H   UNK N   1      33.079  12.087   9.779  0.00  0.00     0.193 HD
ATOM     18  HN  UNK N   1      32.155  12.107   8.310  1.00  0.00     0.193 HD
ENDBRANCH  15  16
ENDBRANCH  13  15
ENDBRANCH   5  13
BRANCH   4  19
HETATM   19  O   UNK N   1      33.658  14.935  11.408  0.00  0.00    -0.388 OA
HETATM   20  H   UNK N   1      32.864  14.526  11.788  0.00  0.00     0.210 HD
ENDBRANCH   4  19
BRANCH   3  21
HETATM   21  O   UNK N   1      36.987  15.996  10.954  0.00  0.00    -0.390 OA
HETATM   22  H   UNK N   1      37.351  16.893  10.906  0.00  0.00     0.210 HD
ENDBRANCH   3  21
BRANCH   1  23
HETATM   23  C   UNK N   1      36.778  13.409   7.593  0.00  0.00     0.198 C 
BRANCH  23  24
HETATM   24  O   UNK N   1      38.165  13.447   7.414  0.00  0.00    -0.398 OA
HETATM   25  H   UNK N   1      39.083  13.157   7.533  0.00  0.00     0.209 HD
ENDBRANCH  23  24
ENDBRANCH   1  23
BRANCH   2  26
HETATM   26  O   UNK N   1      37.687  13.460  10.289  0.00  0.00    -0.390 OA
HETATM   27  H   UNK N   1      37.917  12.560  10.569  0.00  0.00     0.210 HD
ENDBRANCH   2  26
TORSDOF 11
ENDMDL
MODEL 6
REMARK VINA RESULT:      -4.6     12.346     14.153
REMARK  11 active torsions:
REMARK  status: ('A' for Active; 'I' for Inactive)
REMARK    1  A    between atoms: C_2  and  C_1 
REMARK    2  A    between atoms: O_14  and  C_1 
REMARK    3  A    between atoms: C_3  and  O_15 
REMARK    4  A    between atoms: C_4  and  O_16 
REMARK    5  A    between atoms: C_5  and  O_17 
REMARK    6  A    between atoms: C_7  and  C_6 
REMARK    7  A    between atoms: N_8  and  C_6 
REMARK    8  A    between atoms: O_18  and  C_6 
REMARK    9  A    between atoms: C_7  and  N_11 
REMARK   10  A    between atoms: N_13  and  N_9 
REMARK   11  A    between atoms: N_13  and  N_11 
ROOT
HETATM    1  C   UNK N   1      41.529  20.725   2.286  0.00  0.00     0.179 C 
HETATM    2  C   UNK N   1      42.553  19.863   3.039  0.00  0.00     0.180 C 
HETATM    3  C   UNK N   1      43.892  20.002   2.347  0.00  0.00     0.183 C 
HETATM    4  C   UNK N   1      44.319  21.476   2.252  0.00  0.00     0.211 C 
HETATM    5  C   UNK N   1      43.155  22.559   2.111  0.00  0.00     0.232 C 
HETATM    6  O   UNK N   1      41.817  22.105   2.333  0.00  0.00    -0.343 OA
ENDROOT
BRANCH   5   7
HETATM    7  C   UNK N   1      43.232  23.256   0.727  0.00  0.00     0.272 C 
BRANCH   7   8
HETATM    8  N   UNK N   1      42.512  24.524   0.744  0.00  0.00    -0.402 N 
HETATM    9  H   UNK N   1      41.577  24.653   0.357  0.00  0.00     0.152 HD
HETATM   10  H   UNK N   1      42.971  25.329   1.169  0.00  0.00     0.152 HD
ENDBRANCH   7   8
BRANCH   7  11
HETATM   11  O   UNK N   1      44.558  23.482   0.362  0.00  0.00    -0.372 OA
HETATM   12  H   UNK N   1      45.514  23.352   0.458  0.00  0.00     0.212 HD
ENDBRANCH   7  11
ENDBRANCH   5   7
BRANCH   5  13
HETATM   13  N   UNK N   1      43.367  23.592   3.123  0.00  0.00    -0.209 N 
ATOM     14  HN  UNK N   1      42.722  23.681   3.907  1.00  0.00     0.201 HD
BRANCH  13  15
HETATM   15  N   UNK N   1      44.323  24.345   3.021  0.00  0.00    -0.245 NA
BRANCH  15  16
HETATM   16  N   UNK N   1      45.267  25.106   2.905  0.00  0.00    -0.261 N 
HETATM   17  H   UNK N   1      45.772  25.389   3.701  0.00  0.00     0.193 HD
ATOM     18  HN  UNK N   1      45.535  25.449   1.982  1.00  0.00     0.193 HD
ENDBRANCH  15  16
ENDBRANCH  13  15
ENDBRANCH   5  13
BRANCH   4  19
HETATM   19  O   UNK N   1      45.142  21.783   3.341  0.00  0.00    -0.388 OA
HETATM   20  H   UNK N   1      45.813  22.097   3.968  0.00  0.00     0.210 HD
ENDBRANCH   4  19
BRANCH   3  21
HETATM   21  O   UNK N   1      43.811  19.443   1.067  0.00  0.00    -0.390 OA
HETATM   22  H   UNK N   1      44.125  19.065   0.232  0.00  0.00     0.210 HD
ENDBRANCH   3  21
BRANCH   1  23
HETATM   23  C   UNK N   1      40.152  20.540   2.923  0.00  0.00     0.198 C 
BRANCH  23  24
HETATM   24  O   UNK N   1      40.270  20.073   4.236  0.00  0.00    -0.398 OA
HETATM   25  H   UNK N   1      40.383  19.410   4.936  0.00  0.00     0.209 HD
ENDBRANCH  23  24
ENDBRANCH   1  23
BRANCH   2  26
HETATM   26  O   UNK N   1      42.157  18.521   3.009  0.00  0.00    -0.390 OA
HETATM   27  H   UNK N   1      41.477  18.160   2.419  0.00  0.00     0.210 HD
ENDBRANCH   2  26
TORSDOF 11
ENDMDL
MODEL 7
REMARK VINA RESULT:      -4.6      2.624      4.499
REMARK  11 active torsions:
REMARK  status: ('A' for Active; 'I' for Inactive)
REMARK    1  A    between atoms: C_2  and  C_1 
REMARK    2  A    between atoms: O_14  and  C_1 
REMARK    3  A    between atoms: C_3  and  O_15 
REMARK    4  A    between atoms: C_4  and  O_16 
REMARK    5  A    between atoms: C_5  and  O_17 
REMARK    6  A    between atoms: C_7  and  C_6 
REMARK    7  A    between atoms: N_8  and  C_6 
REMARK    8  A    between atoms: O_18  and  C_6 
REMARK    9  A    between atoms: C_7  and  N_11 
REMARK   10  A    between atoms: N_13  and  N_9 
REMARK   11  A    between atoms: N_13  and  N_11 
ROOT
HETATM    1  C   UNK N   1      34.673  12.875  10.013  0.00  0.00     0.179 C 
HETATM    2  C   UNK N   1      34.592  14.252   9.337  0.00  0.00     0.180 C 
HETATM    3  C   UNK N   1      34.535  15.309  10.420  0.00  0.00     0.183 C 
HETATM    4  C   UNK N   1      35.733  15.191  11.376  0.00  0.00     0.211 C 
HETATM    5  C   UNK N   1      36.319  13.728  11.625  0.00  0.00     0.232 C 
HETATM    6  O   UNK N   1      35.854  12.688  10.761  0.00  0.00    -0.343 OA
ENDROOT
BRANCH   5   7
HETATM    7  C   UNK N   1      36.095  13.302  13.100  0.00  0.00     0.272 C 
BRANCH   7   8
HETATM    8  N   UNK N   1      36.947  14.072  13.997  0.00  0.00    -0.402 N 
HETATM    9  H   UNK N   1      37.345  14.982  13.764  0.00  0.00     0.152 HD
HETATM   10  H   UNK N   1      37.157  13.678  14.914  0.00  0.00     0.152 HD
ENDBRANCH   7   8
BRANCH   7  11
HETATM   11  O   UNK N   1      34.762  13.474  13.466  0.00  0.00    -0.372 OA
HETATM   12  H   UNK N   1      33.835  13.192  13.510  0.00  0.00     0.212 HD
ENDBRANCH   7  11
ENDBRANCH   5   7
BRANCH   5  13
HETATM   13  N   UNK N   1      37.763  13.770  11.407  0.00  0.00    -0.209 N 
ATOM     14  HN  UNK N   1      38.374  14.199  12.101  1.00  0.00     0.201 HD
BRANCH  13  15
HETATM   15  N   UNK N   1      38.232  13.286  10.388  0.00  0.00    -0.245 NA
BRANCH  15  16
HETATM   16  N   UNK N   1      38.701  12.786   9.381  0.00  0.00    -0.261 N 
HETATM   17  H   UNK N   1      39.241  13.332   8.765  0.00  0.00     0.193 HD
ATOM     18  HN  UNK N   1      38.534  11.801   9.176  1.00  0.00     0.193 HD
ENDBRANCH  15  16
ENDBRANCH  13  15
ENDBRANCH   5  13
BRANCH   4  19
HETATM   19  O   UNK N   1      36.747  16.056  10.945  0.00  0.00    -0.388 OA
HETATM   20  H   UNK N   1      37.330  16.793  10.708  0.00  0.00     0.210 HD
ENDBRANCH   4  19
BRANCH   3  21
HETATM   21  O   UNK N   1      33.339  15.178  11.132  0.00  0.00    -0.390 OA
HETATM   22  H   UNK N   1      32.761  15.060  11.901  0.00  0.00     0.210 HD
ENDBRANCH   3  21
BRANCH   1  23
HETATM   23  C   UNK N   1      34.654  11.788   8.938  0.00  0.00     0.198 C 
BRANCH  23  24
HETATM   24  O   UNK N   1      35.954  11.464   8.536  0.00  0.00    -0.398 OA
HETATM   25  H   UNK N   1      36.765  11.540   8.009  0.00  0.00     0.209 HD
ENDBRANCH  23  24
ENDBRANCH   1  23
BRANCH   2  26
HETATM   26  O   UNK N   1      33.433  14.330   8.556  0.00  0.00    -0.390 OA
HETATM   27  H   UNK N   1      32.796  15.061   8.586  0.00  0.00     0.210 HD
ENDBRANCH   2  26
TORSDOF 11
ENDMDL
MODEL 8
REMARK VINA RESULT:      -4.6     13.821     14.897
REMARK  11 active torsions:
REMARK  status: ('A' for Active; 'I' for Inactive)
REMARK    1  A    between atoms: C_2  and  C_1 
REMARK    2  A    between atoms: O_14  and  C_1 
REMARK    3  A    between atoms: C_3  and  O_15 
REMARK    4  A    between atoms: C_4  and  O_16 
REMARK    5  A    between atoms: C_5  and  O_17 
REMARK    6  A    between atoms: C_7  and  C_6 
REMARK    7  A    between atoms: N_8  and  C_6 
REMARK    8  A    between atoms: O_18  and  C_6 
REMARK    9  A    between atoms: C_7  and  N_11 
REMARK   10  A    between atoms: N_13  and  N_9 
REMARK   11  A    between atoms: N_13  and  N_11 
ROOT
HETATM    1  C   UNK N   1      42.740  20.449   1.498  0.00  0.00     0.179 C 
HETATM    2  C   UNK N   1      41.773  21.256   0.621  0.00  0.00     0.180 C 
HETATM    3  C   UNK N   1      41.205  22.385   1.455  0.00  0.00     0.183 C 
HETATM    4  C   UNK N   1      42.324  23.254   2.051  0.00  0.00     0.211 C 
HETATM    5  C   UNK N   1      43.697  22.522   2.405  0.00  0.00     0.232 C 
HETATM    6  O   UNK N   1      43.866  21.189   1.917  0.00  0.00    -0.343 OA
ENDROOT
BRANCH   5   7
HETATM    7  C   UNK N   1      43.935  22.536   3.939  0.00  0.00     0.272 C 
BRANCH   7   8
HETATM    8  N   UNK N   1      45.340  22.302   4.248  0.00  0.00    -0.402 N 
HETATM    9  H   UNK N   1      45.888  22.882   4.884  0.00  0.00     0.152 HD
HETATM   10  H   UNK N   1      45.803  21.511   3.801  0.00  0.00     0.152 HD
ENDBRANCH   7   8
BRANCH   7  11
HETATM   11  O   UNK N   1      43.537  23.753   4.488  0.00  0.00    -0.372 OA
HETATM   12  H   UNK N   1      43.569  24.720   4.561  0.00  0.00     0.212 HD
ENDBRANCH   7  11
ENDBRANCH   5   7
BRANCH   5  13
HETATM   13  N   UNK N   1      44.788  23.279   1.797  0.00  0.00    -0.209 N 
ATOM     14  HN  UNK N   1      45.322  22.880   1.025  1.00  0.00     0.201 HD
BRANCH  13  15
HETATM   15  N   UNK N   1      45.055  24.394   2.220  0.00  0.00    -0.245 NA
BRANCH  15  16
HETATM   16  N   UNK N   1      45.303  25.511   2.638  0.00  0.00    -0.261 N 
HETATM   17  H   UNK N   1      46.234  25.832   2.665  0.00  0.00     0.193 HD
ATOM     18  HN  UNK N   1      44.546  26.114   2.960  1.00  0.00     0.193 HD
ENDBRANCH  15  16
ENDBRANCH  13  15
ENDBRANCH   5  13
BRANCH   4  19
HETATM   19  O   UNK N   1      42.556  24.343   1.203  0.00  0.00    -0.388 OA
HETATM   20  H   UNK N   1      42.536  25.147   0.660  0.00  0.00     0.210 HD
ENDBRANCH   4  19
BRANCH   3  21
HETATM   21  O   UNK N   1      40.415  21.852   2.478  0.00  0.00    -0.390 OA
HETATM   22  H   UNK N   1      39.643  21.749   3.055  0.00  0.00     0.210 HD
ENDBRANCH   3  21
BRANCH   1  23
HETATM   23  C   UNK N   1      43.268  19.258   0.698  0.00  0.00     0.198 C 
BRANCH  23  24
HETATM   24  O   UNK N   1      42.404  18.164   0.805  0.00  0.00    -0.398 OA
HETATM   25  H   UNK N   1      41.608  17.685   1.088  0.00  0.00     0.209 HD
ENDBRANCH  23  24
ENDBRANCH   1  23
BRANCH   2  26
HETATM   26  O   UNK N   1      40.727  20.433   0.186  0.00  0.00    -0.390 OA
HETATM   27  H   UNK N   1      39.836  20.746  -0.036  0.00  0.00     0.210 HD
ENDBRANCH   2  26
TORSDOF 11
ENDMDL
MODEL 9
REMARK VINA RESULT:      -4.6      3.427      5.210
REMARK  11 active torsions:
REMARK  status: ('A' for Active; 'I' for Inactive)
REMARK    1  A    between atoms: C_2  and  C_1 
REMARK    2  A    between atoms: O_14  and  C_1 
REMARK    3  A    between atoms: C_3  and  O_15 
REMARK    4  A    between atoms: C_4  and  O_16 
REMARK    5  A    between atoms: C_5  and  O_17 
REMARK    6  A    between atoms: C_7  and  C_6 
REMARK    7  A    between atoms: N_8  and  C_6 
REMARK    8  A    between atoms: O_18  and  C_6 
REMARK    9  A    between atoms: C_7  and  N_11 
REMARK   10  A    between atoms: N_13  and  N_9 
REMARK   11  A    between atoms: N_13  and  N_11 
ROOT
HETATM    1  C   UNK N   1      35.385  15.662   8.940  0.00  0.00     0.179 C 
HETATM    2  C   UNK N   1      34.547  16.763   9.605  0.00  0.00     0.180 C 
HETATM    3  C   UNK N   1      33.869  17.567   8.515  0.00  0.00     0.183 C 
HETATM    4  C   UNK N   1      33.032  16.664   7.595  0.00  0.00     0.211 C 
HETATM    5  C   UNK N   1      33.557  15.174   7.372  0.00  0.00     0.232 C 
HETATM    6  O   UNK N   1      34.610  14.722   8.228  0.00  0.00    -0.343 OA
ENDROOT
BRANCH   5   7
HETATM    7  C   UNK N   1      33.980  14.967   5.893  0.00  0.00     0.272 C 
BRANCH   7   8
HETATM    8  N   UNK N   1      32.813  14.779   5.041  0.00  0.00    -0.402 N 
HETATM    9  H   UNK N   1      32.707  15.200   4.118  0.00  0.00     0.152 HD
HETATM   10  H   UNK N   1      32.056  14.190   5.389  0.00  0.00     0.152 HD
ENDBRANCH   7   8
BRANCH   7  11
HETATM   11  O   UNK N   1      34.716  16.058   5.434  0.00  0.00    -0.372 OA
HETATM   12  H   UNK N   1      34.821  16.876   4.925  0.00  0.00     0.212 HD
ENDBRANCH   7  11
ENDBRANCH   5   7
BRANCH   5  13
HETATM   13  N   UNK N   1      32.451  14.255   7.632  0.00  0.00    -0.209 N 
ATOM     14  HN  UNK N   1      31.597  14.311   7.078  1.00  0.00     0.201 HD
BRANCH  13  15
HETATM   15  N   UNK N   1      32.559  13.419   8.516  0.00  0.00    -0.245 NA
BRANCH  15  16
HETATM   16  N   UNK N   1      32.651  12.577   9.391  0.00  0.00    -0.261 N 
HETATM   17  H   UNK N   1      32.076  11.778   9.368  0.00  0.00     0.193 HD
ATOM     18  HN  UNK N   1      33.325  12.699  10.148  1.00  0.00     0.193 HD
ENDBRANCH  15  16
ENDBRANCH  13  15
ENDBRANCH   5  13
BRANCH   4  19
HETATM   19  O   UNK N   1      31.709  16.652   8.051  0.00  0.00    -0.388 OA
HETATM   20  H   UNK N   1      30.754  16.562   8.196  0.00  0.00     0.210 HD
ENDBRANCH   4  19
BRANCH   3  21
HETATM   21  O   UNK N   1      34.840  18.243   7.769  0.00  0.00    -0.390 OA
HETATM   22  H   UNK N   1      35.223  18.947   7.223  0.00  0.00     0.210 HD
ENDBRANCH   3  21
BRANCH   1  23
HETATM   23  C   UNK N   1      36.138  14.884  10.019  0.00  0.00     0.198 C 
BRANCH  23  24
HETATM   24  O   UNK N   1      37.214  15.631  10.512  0.00  0.00    -0.398 OA
HETATM   25  H   UNK N   1      37.919  15.867  11.135  0.00  0.00     0.209 HD
ENDBRANCH  23  24
ENDBRANCH   1  23
BRANCH   2  26
HETATM   26  O   UNK N   1      35.378  17.607  10.351  0.00  0.00    -0.390 OA
HETATM   27  H   UNK N   1      35.327  17.720  11.313  0.00  0.00     0.210 HD
ENDBRANCH   2  26
TORSDOF 11
ENDMDL
