MODEL 1
REMARK VINA RESULT:      -4.6      0.000      0.000
REMARK  2 active torsions:
REMARK  status: ('A' for Active; 'I' for Inactive)
REMARK    1  A    between atoms: N_1  and  C_2 
REMARK    2  A    between atoms: C_2  and  C_4 
ROOT
HETATM    1  C   UNK N   1      24.641  13.119   9.750  0.00  0.00     0.102 C 
HETATM    2  N   UNK N   1      25.595  13.336  10.575  0.00  0.00    -0.385 N 
HETATM    3  H   UNK N   1      25.417  13.347  11.543  0.00  0.00     0.157 HD
HETATM    4  H   UNK N   1      26.509  13.494  10.242  0.00  0.00     0.157 HD
ENDROOT
BRANCH   1   5
HETATM    5  N   UNK N   1      24.912  13.107   8.361  0.00  0.00    -0.385 N 
HETATM    6  H   UNK N   1      25.593  12.496   7.997  0.00  0.00     0.157 HD
HETATM    7  H   UNK N   1      24.420  13.710   7.758  0.00  0.00     0.157 HD
ENDBRANCH   1   5
BRANCH   1   8
HETATM    8  C   UNK N   1      23.269  12.882  10.243  0.00  0.00     0.007 A 
HETATM    9  C   UNK N   1      23.056  12.027  11.334  0.00  0.00     0.015 A 
HETATM   10  C   UNK N   1      21.764  11.796  11.808  0.00  0.00     0.001 A 
HETATM   11  C   UNK N   1      20.675  12.418  11.196  0.00  0.00     0.000 A 
HETATM   12  C   UNK N   1      20.876  13.272  10.108  0.00  0.00     0.001 A 
HETATM   13  C   UNK N   1      22.171  13.505   9.631  0.00  0.00     0.015 A 
ENDBRANCH   1   8
TORSDOF 2
ENDMDL
MODEL 2
REMARK VINA RESULT:      -4.4     13.221     14.170
REMARK  2 active torsions:
REMARK  status: ('A' for Active; 'I' for Inactive)
REMARK    1  A    between atoms: N_1  and  C_2 
REMARK    2  A    between atoms: C_2  and  C_4 
ROOT
HETATM    1  C   UNK N   1      35.279  13.476  18.661  0.00  0.00     0.102 C 
HETATM    2  N   UNK N   1      35.534  14.702  18.395  0.00  0.00    -0.385 N 
HETATM    3  H   UNK N   1      35.569  15.007  17.460  0.00  0.00     0.157 HD
HETATM    4  H   UNK N   1      35.696  15.342  19.127  0.00  0.00     0.157 HD
ENDROOT
BRANCH   1   5
HETATM    5  N   UNK N   1      35.232  13.053  20.011  0.00  0.00    -0.385 N 
HETATM    6  H   UNK N   1      34.812  13.625  20.693  0.00  0.00     0.157 HD
HETATM    7  H   UNK N   1      35.621  12.186  20.268  0.00  0.00     0.157 HD
ENDBRANCH   1   5
BRANCH   1   8
HETATM    8  C   UNK N   1      35.035  12.512  17.570  0.00  0.00     0.007 A 
HETATM    9  C   UNK N   1      35.192  11.138  17.803  0.00  0.00     0.015 A 
HETATM   10  C   UNK N   1      34.964  10.218  16.778  0.00  0.00     0.001 A 
HETATM   11  C   UNK N   1      34.577  10.664  15.513  0.00  0.00     0.000 A 
HETATM   12  C   UNK N   1      34.417  12.031  15.271  0.00  0.00     0.001 A 
HETATM   13  C   UNK N   1      34.646  12.955  16.297  0.00  0.00     0.015 A 
ENDBRANCH   1   8
TORSDOF 2
ENDMDL
MODEL 3
REMARK VINA RESULT:      -4.4     21.203     22.237
REMARK  2 active torsions:
REMARK  status: ('A' for Active; 'I' for Inactive)
REMARK    1  A    between atoms: N_1  and  C_2 
REMARK    2  A    between atoms: C_2  and  C_4 
ROOT
HETATM    1  C   UNK N   1      25.982  28.533  -3.832  0.00  0.00     0.102 C 
HETATM    2  N   UNK N   1      25.746  27.793  -2.814  0.00  0.00    -0.385 N 
HETATM    3  H   UNK N   1      25.706  26.815  -2.915  0.00  0.00     0.157 HD
HETATM    4  H   UNK N   1      25.605  28.202  -1.929  0.00  0.00     0.157 HD
ENDROOT
BRANCH   1   5
HETATM    5  N   UNK N   1      26.037  29.938  -3.672  0.00  0.00    -0.385 N 
HETATM    6  H   UNK N   1      25.516  30.522  -4.270  0.00  0.00     0.157 HD
HETATM    7  H   UNK N   1      26.596  30.331  -2.964  0.00  0.00     0.157 HD
ENDBRANCH   1   5
BRANCH   1   8
HETATM    8  C   UNK N   1      26.194  27.926  -5.161  0.00  0.00     0.007 A 
HETATM    9  C   UNK N   1      27.305  28.301  -5.932  0.00  0.00     0.015 A 
HETATM   10  C   UNK N   1      27.516  27.733  -7.190  0.00  0.00     0.001 A 
HETATM   11  C   UNK N   1      26.618  26.787  -7.687  0.00  0.00     0.000 A 
HETATM   12  C   UNK N   1      25.508  26.407  -6.927  0.00  0.00     0.001 A 
HETATM   13  C   UNK N   1      25.296  26.975  -5.667  0.00  0.00     0.015 A 
ENDBRANCH   1   8
TORSDOF 2
ENDMDL
MODEL 4
REMARK VINA RESULT:      -4.3     22.041     23.358
REMARK  2 active torsions:
REMARK  status: ('A' for Active; 'I' for Inactive)
REMARK    1  A    between atoms: N_1  and  C_2 
REMARK    2  A    between atoms: C_2  and  C_4 
ROOT
HETATM    1  C   UNK N   1      44.405  22.309   3.893  0.00  0.00     0.102 C 
HETATM    2  N   UNK N   1      45.649  22.396   4.181  0.00  0.00    -0.385 N 
HETATM    3  H   UNK N   1      46.224  21.599   4.127  0.00  0.00     0.157 HD
HETATM    4  H   UNK N   1      46.032  23.260   4.457  0.00  0.00     0.157 HD
ENDROOT
BRANCH   1   5
HETATM    5  N   UNK N   1      43.590  23.463   3.975  0.00  0.00    -0.385 N 
HETATM    6  H   UNK N   1      42.620  23.372   4.120  0.00  0.00     0.157 HD
HETATM    7  H   UNK N   1      43.992  24.357   3.886  0.00  0.00     0.157 HD
ENDBRANCH   1   5
BRANCH   1   8
HETATM    8  C   UNK N   1      43.824  21.016   3.478  0.00  0.00     0.007 A 
HETATM    9  C   UNK N   1      42.432  20.873   3.383  0.00  0.00     0.015 A 
HETATM   10  C   UNK N   1      41.873  19.655   2.992  0.00  0.00     0.001 A 
HETATM   11  C   UNK N   1      42.701  18.571   2.693  0.00  0.00     0.000 A 
HETATM   12  C   UNK N   1      44.089  18.704   2.784  0.00  0.00     0.001 A 
HETATM   13  C   UNK N   1      44.651  19.924   3.176  0.00  0.00     0.015 A 
ENDBRANCH   1   8
TORSDOF 2
ENDMDL
MODEL 5
REMARK VINA RESULT:      -4.3     19.842     20.971
REMARK  2 active torsions:
REMARK  status: ('A' for Active; 'I' for Inactive)
REMARK    1  A    between atoms: N_1  and  C_2 
REMARK    2  A    between atoms: C_2  and  C_4 
ROOT
HETATM    1  C   UNK N   1      26.488  28.951  -3.343  0.00  0.00     0.102 C 
HETATM    2  N   UNK N   1      26.008  30.050  -3.793  0.00  0.00    -0.385 N 
HETATM    3  H   UNK N   1      25.411  30.043  -4.575  0.00  0.00     0.157 HD
HETATM    4  H   UNK N   1      26.236  30.903  -3.356  0.00  0.00     0.157 HD
ENDROOT
BRANCH   1   5
HETATM    5  N   UNK N   1      27.345  28.977  -2.217  0.00  0.00    -0.385 N 
HETATM    6  H   UNK N   1      28.050  28.297  -2.119  0.00  0.00     0.157 HD
HETATM    7  H   UNK N   1      27.237  29.675  -1.531  0.00  0.00     0.157 HD
ENDBRANCH   1   5
BRANCH   1   8
HETATM    8  C   UNK N   1      26.151  27.669  -3.993  0.00  0.00     0.007 A 
HETATM    9  C   UNK N   1      25.347  27.659  -5.143  0.00  0.00     0.015 A 
HETATM   10  C   UNK N   1      25.022  26.452  -5.765  0.00  0.00     0.001 A 
HETATM   11  C   UNK N   1      25.498  25.248  -5.244  0.00  0.00     0.000 A 
HETATM   12  C   UNK N   1      26.299  25.248  -4.099  0.00  0.00     0.001 A 
HETATM   13  C   UNK N   1      26.626  26.456  -3.474  0.00  0.00     0.015 A 
ENDBRANCH   1   8
TORSDOF 2
ENDMDL
MODEL 6
REMARK VINA RESULT:      -4.2      1.945      2.786
REMARK  2 active torsions:
REMARK  status: ('A' for Active; 'I' for Inactive)
REMARK    1  A    between atoms: N_1  and  C_2 
REMARK    2  A    between atoms: C_2  and  C_4 
ROOT
HETATM    1  C   UNK N   1      23.477  12.039  11.459  0.00  0.00     0.102 C 
HETATM    2  N   UNK N   1      24.750  12.162  11.520  0.00  0.00    -0.385 N 
HETATM    3  H   UNK N   1      25.256  12.449  10.726  0.00  0.00     0.157 HD
HETATM    4  H   UNK N   1      25.224  11.968  12.362  0.00  0.00     0.157 HD
ENDROOT
BRANCH   1   5
HETATM    5  N   UNK N   1      22.762  11.625  12.607  0.00  0.00    -0.385 N 
HETATM    6  H   UNK N   1      21.778  11.640  12.607  0.00  0.00     0.157 HD
HETATM    7  H   UNK N   1      23.249  11.323  13.408  0.00  0.00     0.157 HD
ENDBRANCH   1   5
BRANCH   1   8
HETATM    8  C   UNK N   1      22.761  12.327  10.200  0.00  0.00     0.007 A 
HETATM    9  C   UNK N   1      23.108  11.642   9.026  0.00  0.00     0.015 A 
HETATM   10  C   UNK N   1      22.437  11.907   7.830  0.00  0.00     0.001 A 
HETATM   11  C   UNK N   1      21.415  12.858   7.799  0.00  0.00     0.000 A 
HETATM   12  C   UNK N   1      21.062  13.545   8.963  0.00  0.00     0.001 A 
HETATM   13  C   UNK N   1      21.733  13.281  10.162  0.00  0.00     0.015 A 
ENDBRANCH   1   8
TORSDOF 2
ENDMDL
MODEL 7
REMARK VINA RESULT:      -4.2      8.388      9.423
REMARK  2 active torsions:
REMARK  status: ('A' for Active; 'I' for Inactive)
REMARK    1  A    between atoms: N_1  and  C_2 
REMARK    2  A    between atoms: C_2  and  C_4 
ROOT
HETATM    1  C   UNK N   1      28.412  18.573   8.017  0.00  0.00     0.102 C 
HETATM    2  N   UNK N   1      27.647  18.534   9.042  0.00  0.00    -0.385 N 
HETATM    3  H   UNK N   1      26.745  18.925   8.999  0.00  0.00     0.157 HD
HETATM    4  H   UNK N   1      27.960  18.112   9.875  0.00  0.00     0.157 HD
ENDROOT
BRANCH   1   5
HETATM    5  N   UNK N   1      29.706  18.007   8.093  0.00  0.00    -0.385 N 
HETATM    6  H   UNK N   1      29.881  17.121   7.699  0.00  0.00     0.157 HD
HETATM    7  H   UNK N   1      30.433  18.497   8.541  0.00  0.00     0.157 HD
ENDBRANCH   1   5
BRANCH   1   8
HETATM    8  C   UNK N   1      27.949  19.205   6.765  0.00  0.00     0.007 A 
HETATM    9  C   UNK N   1      28.187  18.575   5.534  0.00  0.00     0.015 A 
HETATM   10  C   UNK N   1      27.753  19.163   4.345  0.00  0.00     0.001 A 
HETATM   11  C   UNK N   1      27.078  20.385   4.376  0.00  0.00     0.000 A 
HETATM   12  C   UNK N   1      26.837  21.020   5.597  0.00  0.00     0.001 A 
HETATM   13  C   UNK N   1      27.271  20.432   6.790  0.00  0.00     0.015 A 
ENDBRANCH   1   8
TORSDOF 2
ENDMDL
MODEL 8
REMARK VINA RESULT:      -4.2     10.459     11.804
REMARK  2 active torsions:
REMARK  status: ('A' for Active; 'I' for Inactive)
REMARK    1  A    between atoms: N_1  and  C_2 
REMARK    2  A    between atoms: C_2  and  C_4 
ROOT
HETATM    1  C   UNK N   1      33.946  17.759   8.405  0.00  0.00     0.102 C 
HETATM    2  N   UNK N   1      34.801  18.711   8.436  0.00  0.00    -0.385 N 
HETATM    3  H   UNK N   1      34.911  19.301   7.656  0.00  0.00     0.157 HD
HETATM    4  H   UNK N   1      35.351  18.854   9.241  0.00  0.00     0.157 HD
ENDROOT
BRANCH   1   5
HETATM    5  N   UNK N   1      33.799  16.919   9.534  0.00  0.00    -0.385 N 
HETATM    6  H   UNK N   1      34.528  16.846  10.191  0.00  0.00     0.157 HD
HETATM    7  H   UNK N   1      32.967  16.408   9.662  0.00  0.00     0.157 HD
ENDBRANCH   1   5
BRANCH   1   8
HETATM    8  C   UNK N   1      33.119  17.540   7.201  0.00  0.00     0.007 A 
HETATM    9  C   UNK N   1      33.707  17.601   5.929  0.00  0.00     0.015 A 
HETATM   10  C   UNK N   1      32.935  17.396   4.784  0.00  0.00     0.001 A 
HETATM   11  C   UNK N   1      31.571  17.127   4.902  0.00  0.00     0.000 A 
HETATM   12  C   UNK N   1      30.975  17.064   6.165  0.00  0.00     0.001 A 
HETATM   13  C   UNK N   1      31.748  17.270   7.313  0.00  0.00     0.015 A 
ENDBRANCH   1   8
TORSDOF 2
ENDMDL
MODEL 9
REMARK VINA RESULT:      -4.1     14.180     14.406
REMARK  2 active torsions:
REMARK  status: ('A' for Active; 'I' for Inactive)
REMARK    1  A    between atoms: N_1  and  C_2 
REMARK    2  A    between atoms: C_2  and  C_4 
ROOT
HETATM    1  C   UNK N   1      36.826  13.213  14.330  0.00  0.00     0.102 C 
HETATM    2  N   UNK N   1      36.746  14.465  14.071  0.00  0.00    -0.385 N 
HETATM    3  H   UNK N   1      36.325  15.076  14.718  0.00  0.00     0.157 HD
HETATM    4  H   UNK N   1      37.105  14.817  13.224  0.00  0.00     0.157 HD
ENDROOT
BRANCH   1   5
HETATM    5  N   UNK N   1      37.432  12.347  13.390  0.00  0.00    -0.385 N 
HETATM    6  H   UNK N   1      38.210  12.652  12.869  0.00  0.00     0.157 HD
HETATM    7  H   UNK N   1      37.077  11.438  13.257  0.00  0.00     0.157 HD
ENDBRANCH   1   5
BRANCH   1   8
HETATM    8  C   UNK N   1      36.290  12.679  15.598  0.00  0.00     0.007 A 
HETATM    9  C   UNK N   1      36.449  11.320  15.906  0.00  0.00     0.015 A 
HETATM   10  C   UNK N   1      35.946  10.804  17.102  0.00  0.00     0.001 A 
HETATM   11  C   UNK N   1      35.281  11.643  17.998  0.00  0.00     0.000 A 
HETATM   12  C   UNK N   1      35.117  12.998  17.700  0.00  0.00     0.001 A 
HETATM   13  C   UNK N   1      35.620  13.517  16.502  0.00  0.00     0.015 A 
ENDBRANCH   1   8
TORSDOF 2
ENDMDL
