REMARK  6 active torsions:
REMARK  status: ('A' for Active; 'I' for Inactive)
REMARK    1  A    between atoms: O_1  and  C_2 
REMARK    2  A    between atoms: C_5  and  C_8 
REMARK    3  A    between atoms: C_9  and  C_10 
REMARK    4  A    between atoms: C_10  and  C_12 
REMARK    5  A    between atoms: C_15  and  O_16 
REMARK    6  A    between atoms: C_18  and  O_19 
ROOT
HETATM    1  C   UNK N   1       2.741  -7.064  -0.096  0.00  0.00     0.184 C 
HETATM    2  O   UNK N   1       3.719  -7.806  -0.067  0.00  0.00    -0.287 OA
ENDROOT
BRANCH   1   3
HETATM    3  C   UNK N   1       2.915  -5.612  -0.124  0.00  0.00     0.056 C 
HETATM    4  C   UNK N   1       4.039  -4.899  -0.148  0.00  0.00     0.015 C 
BRANCH   4   5
HETATM    5  C   UNK N   1       3.906  -3.427  -0.125  0.00  0.00    -0.036 A 
HETATM    6  C   UNK N   1       5.037  -2.605  -0.180  0.00  0.00     0.014 A 
HETATM    7  C   UNK N   1       4.889  -1.211  -0.146  0.00  0.00     0.037 A 
HETATM    8  C   UNK N   1       3.614  -0.638  -0.054  0.00  0.00     0.065 A 
HETATM    9  C   UNK N   1       2.485  -1.453   0.002  0.00  0.00     0.037 A 
HETATM   10  C   UNK N   1       2.630  -2.836  -0.034  0.00  0.00     0.014 A 
BRANCH   8  11
HETATM   11  O   UNK N   1       3.473   0.696  -0.018  0.00  0.00    -0.361 OA
HETATM   12  H   UNK N   1       4.230   1.247   0.007  0.00  0.00     0.217 HD
ENDBRANCH   8  11
ENDBRANCH   4   5
ENDBRANCH   1   3
BRANCH   1  13
HETATM   13  C   UNK N   1       1.359  -7.628  -0.058  0.00  0.00     0.047 A 
HETATM   14  C   UNK N   1       1.183  -9.011   0.077  0.00  0.00     0.021 A 
HETATM   15  C   UNK N   1      -0.100  -9.566   0.137  0.00  0.00     0.037 A 
HETATM   16  C   UNK N   1      -1.225  -8.740   0.059  0.00  0.00     0.068 A 
HETATM   17  C   UNK N   1      -1.070  -7.367  -0.083  0.00  0.00     0.074 A 
HETATM   18  C   UNK N   1       0.201  -6.796  -0.143  0.00  0.00     0.082 A 
BRANCH  16  19
HETATM   19  O   UNK N   1      -2.456  -9.270   0.122  0.00  0.00    -0.361 OA
HETATM   20  H   UNK N   1      -3.206  -8.710   0.166  0.00  0.00     0.217 HD
ENDBRANCH  16  19
BRANCH  18  21
HETATM   21  O   UNK N   1       0.291  -5.465  -0.283  0.00  0.00    -0.360 OA
HETATM   22  H   UNK N   1       1.127  -5.055  -0.381  0.00  0.00     0.217 HD
ENDBRANCH  18  21
ENDBRANCH   1  13
TORSDOF 6
