MODEL 1
REMARK VINA RESULT:      -6.3      0.000      0.000
REMARK  15 active torsions:
REMARK  status: ('A' for Active; 'I' for Inactive)
REMARK    1  A    between atoms: C_12  and  C_2 
REMARK    2  A    between atoms: C_5  and  C_3 
REMARK    3  A    between atoms: N_15  and  C_3 
REMARK    4  A    between atoms: O_26  and  C_4 
REMARK    5  A    between atoms: O_26  and  C_5 
REMARK    6  A    between atoms: C_11  and  C_7 
REMARK    7  A    between atoms: N_18  and  C_7 
REMARK    8  A    between atoms: C_10  and  C_8 
REMARK    9  A    between atoms: O_27  and  C_8 
REMARK   10  A    between atoms: C_14  and  C_12 
REMARK   11  A    between atoms: O_20  and  C_13 
REMARK   12  A    between atoms: O_22  and  C_14 
REMARK   13  A    between atoms: P_28  and  O_23 
REMARK   14  A    between atoms: P_28  and  O_24 
REMARK   15  A    between atoms: P_28  and  O_27 
ROOT
HETATM    1  C   UNK N   1      37.185  11.994   8.058  0.00  0.00     0.071 C 
HETATM    2  C   UNK N   1      37.333  13.028  11.631  0.00  0.00     0.098 A 
HETATM    3  C   UNK N   1      36.883  12.719   9.325  0.00  0.00     0.039 A 
HETATM    4  C   UNK N   1      36.350  14.014  11.727  0.00  0.00    -0.008 A 
HETATM    5  C   UNK N   1      35.625  14.375  10.573  0.00  0.00     0.004 A 
HETATM    6  C   UNK N   1      35.896  13.715   9.361  0.00  0.00     0.096 A 
HETATM    7  N   UNK N   1      37.576  12.406  10.449  0.00  0.00    -0.367 N 
ATOM      8  HN  UNK N   1      38.297  11.685  10.406  1.00  0.00     0.165 HD
ENDROOT
BRANCH   5   9
HETATM    9  C   UNK N   1      34.574  15.443  10.624  0.00  0.00     0.162 C 
BRANCH   9  10
HETATM   10  N   UNK N   1      34.891  16.490   9.685  0.00  0.00    -0.380 N 
HETATM   11  C   UNK N   1      34.083  17.048   8.836  0.00  0.00     0.104 C 
ATOM     12  HN  UNK N   1      35.853  16.828   9.688  1.00  0.00     0.160 HD
BRANCH  11  13
HETATM   13  C   UNK N   1      32.634  16.666   8.625  0.00  0.00     0.060 C 
HETATM   14  C   UNK N   1      31.558  17.472   8.646  0.00  0.00     0.137 C 
BRANCH  14  15
HETATM   15  O   UNK N   1      30.332  16.936   8.448  0.00  0.00    -0.361 OA
BRANCH  15  16
HETATM   16  C   UNK N   1      29.272  17.248   9.267  0.00  0.00     0.193 C 
BRANCH  16  17
HETATM   17  C   UNK N   1      28.925  18.719   9.138  0.00  0.00     0.137 C 
BRANCH  17  18
HETATM   18  N   UNK N   1      27.540  18.870   8.736  0.00  0.00    -0.428 N 
HETATM   19  H   UNK N   1      26.936  18.128   8.380  0.00  0.00     0.149 HD
HETATM   20  H   UNK N   1      27.133  19.802   8.815  0.00  0.00     0.149 HD
ENDBRANCH  17  18
ENDBRANCH  16  17
ENDBRANCH  15  16
ENDBRANCH  14  15
ENDBRANCH  11  13
BRANCH  11  21
HETATM   21  C   UNK N   1      34.621  18.165   8.016  0.00  0.00     0.193 C 
HETATM   22  O   UNK N   1      34.481  18.155   6.801  0.00  0.00    -0.645 OA
BRANCH  21  23
HETATM   23  O   UNK N   1      35.264  19.197   8.594  0.00  0.00    -0.772 OA
HETATM   24  H   UNK N   1      35.984  19.662   8.216  0.00  0.00     0.167 HD
ENDBRANCH  21  23
ENDBRANCH  11  21
ENDBRANCH   9  10
ENDBRANCH   5   9
BRANCH   4  25
HETATM   25  C   UNK N   1      36.105  14.645  13.065  0.00  0.00     0.221 C 
BRANCH  25  26
HETATM   26  O   UNK N   1      35.339  13.795  13.872  0.00  0.00    -0.292 OA
BRANCH  26  27
HETATM   27  P   UNK N   1      36.297  13.446  15.292  0.00  0.00     0.391 P 
HETATM   28  O   UNK N   1      36.960  12.057  15.091  0.00  0.00    -0.632 OA
BRANCH  27  29
HETATM   29  O   UNK N   1      35.372  13.359  16.761  0.00  0.00    -0.307 OA
HETATM   30  H   UNK N   1      34.954  14.001  17.355  0.00  0.00     0.222 HD
ENDBRANCH  27  29
BRANCH  27  31
HETATM   31  O   UNK N   1      37.584  14.597  15.463  0.00  0.00    -0.307 OA
HETATM   32  H   UNK N   1      38.279  15.077  15.940  0.00  0.00     0.222 HD
ENDBRANCH  27  31
ENDBRANCH  26  27
ENDBRANCH  25  26
ENDBRANCH   4  25
BRANCH   6  33
HETATM   33  O   UNK N   1      35.211  14.030   8.245  0.00  0.00    -0.358 OA
HETATM   34  H   UNK N   1      35.363  13.902   7.329  0.00  0.00     0.217 HD
ENDBRANCH   6  33
TORSDOF 15
ENDMDL
MODEL 2
REMARK VINA RESULT:      -6.1      0.970      1.267
REMARK  15 active torsions:
REMARK  status: ('A' for Active; 'I' for Inactive)
REMARK    1  A    between atoms: C_12  and  C_2 
REMARK    2  A    between atoms: C_5  and  C_3 
REMARK    3  A    between atoms: N_15  and  C_3 
REMARK    4  A    between atoms: O_26  and  C_4 
REMARK    5  A    between atoms: O_26  and  C_5 
REMARK    6  A    between atoms: C_11  and  C_7 
REMARK    7  A    between atoms: N_18  and  C_7 
REMARK    8  A    between atoms: C_10  and  C_8 
REMARK    9  A    between atoms: O_27  and  C_8 
REMARK   10  A    between atoms: C_14  and  C_12 
REMARK   11  A    between atoms: O_20  and  C_13 
REMARK   12  A    between atoms: O_22  and  C_14 
REMARK   13  A    between atoms: P_28  and  O_23 
REMARK   14  A    between atoms: P_28  and  O_24 
REMARK   15  A    between atoms: P_28  and  O_27 
ROOT
HETATM    1  C   UNK N   1      35.045  11.196   8.111  0.00  0.00     0.071 C 
HETATM    2  C   UNK N   1      36.508  12.539  11.260  0.00  0.00     0.098 A 
HETATM    3  C   UNK N   1      35.292  12.094   9.275  0.00  0.00     0.039 A 
HETATM    4  C   UNK N   1      35.785  13.711  11.482  0.00  0.00    -0.008 A 
HETATM    5  C   UNK N   1      34.795  14.094  10.554  0.00  0.00     0.004 A 
HETATM    6  C   UNK N   1      34.548  13.271   9.441  0.00  0.00     0.096 A 
HETATM    7  N   UNK N   1      36.250  11.762  10.177  0.00  0.00    -0.367 N 
ATOM      8  HN  UNK N   1      36.790  10.907  10.039  1.00  0.00     0.165 HD
ENDROOT
BRANCH   5   9
HETATM    9  C   UNK N   1      34.008  15.356  10.742  0.00  0.00     0.162 C 
BRANCH   9  10
HETATM   10  N   UNK N   1      34.529  16.392   9.886  0.00  0.00    -0.380 N 
HETATM   11  C   UNK N   1      33.901  17.002   8.928  0.00  0.00     0.104 C 
ATOM     12  HN  UNK N   1      35.494  16.676  10.052  1.00  0.00     0.160 HD
BRANCH  11  13
HETATM   13  C   UNK N   1      32.488  16.704   8.477  0.00  0.00     0.060 C 
HETATM   14  C   UNK N   1      31.435  17.540   8.457  0.00  0.00     0.137 C 
BRANCH  14  15
HETATM   15  O   UNK N   1      30.238  17.079   8.029  0.00  0.00    -0.361 OA
BRANCH  15  16
HETATM   16  C   UNK N   1      29.225  17.938   7.670  0.00  0.00     0.193 C 
BRANCH  16  17
HETATM   17  C   UNK N   1      28.334  18.223   8.863  0.00  0.00     0.137 C 
BRANCH  17  18
HETATM   18  N   UNK N   1      27.388  19.274   8.537  0.00  0.00    -0.428 N 
HETATM   19  H   UNK N   1      27.483  20.260   8.779  0.00  0.00     0.149 HD
HETATM   20  H   UNK N   1      26.552  19.001   8.020  0.00  0.00     0.149 HD
ENDBRANCH  17  18
ENDBRANCH  16  17
ENDBRANCH  15  16
ENDBRANCH  14  15
ENDBRANCH  11  13
BRANCH  11  21
HETATM   21  C   UNK N   1      34.625  18.096   8.227  0.00  0.00     0.193 C 
HETATM   22  O   UNK N   1      34.560  18.190   7.010  0.00  0.00    -0.645 OA
BRANCH  21  23
HETATM   23  O   UNK N   1      35.355  18.992   8.917  0.00  0.00    -0.772 OA
HETATM   24  H   UNK N   1      35.067  19.444   9.685  0.00  0.00     0.167 HD
ENDBRANCH  21  23
ENDBRANCH  11  21
ENDBRANCH   9  10
ENDBRANCH   5   9
BRANCH   4  25
HETATM   25  C   UNK N   1      36.093  14.513  12.712  0.00  0.00     0.221 C 
BRANCH  25  26
HETATM   26  O   UNK N   1      35.411  13.991  13.818  0.00  0.00    -0.292 OA
BRANCH  26  27
HETATM   27  P   UNK N   1      36.615  13.651  15.039  0.00  0.00     0.391 P 
HETATM   28  O   UNK N   1      35.878  13.139  16.305  0.00  0.00    -0.632 OA
BRANCH  27  29
HETATM   29  O   UNK N   1      37.543  15.040  15.519  0.00  0.00    -0.307 OA
HETATM   30  H   UNK N   1      37.698  15.516  16.350  0.00  0.00     0.222 HD
ENDBRANCH  27  29
BRANCH  27  31
HETATM   31  O   UNK N   1      37.671  12.375  14.523  0.00  0.00    -0.307 OA
HETATM   32  H   UNK N   1      38.473  12.002  14.125  0.00  0.00     0.222 HD
ENDBRANCH  27  31
ENDBRANCH  26  27
ENDBRANCH  25  26
ENDBRANCH   4  25
BRANCH   6  33
HETATM   33  O   UNK N   1      33.600  13.605   8.544  0.00  0.00    -0.358 OA
HETATM   34  H   UNK N   1      32.689  13.402   8.453  0.00  0.00     0.217 HD
ENDBRANCH   6  33
TORSDOF 15
ENDMDL
MODEL 3
REMARK VINA RESULT:      -6.1     16.525     20.021
REMARK  15 active torsions:
REMARK  status: ('A' for Active; 'I' for Inactive)
REMARK    1  A    between atoms: C_12  and  C_2 
REMARK    2  A    between atoms: C_5  and  C_3 
REMARK    3  A    between atoms: N_15  and  C_3 
REMARK    4  A    between atoms: O_26  and  C_4 
REMARK    5  A    between atoms: O_26  and  C_5 
REMARK    6  A    between atoms: C_11  and  C_7 
REMARK    7  A    between atoms: N_18  and  C_7 
REMARK    8  A    between atoms: C_10  and  C_8 
REMARK    9  A    between atoms: O_27  and  C_8 
REMARK   10  A    between atoms: C_14  and  C_12 
REMARK   11  A    between atoms: O_20  and  C_13 
REMARK   12  A    between atoms: O_22  and  C_14 
REMARK   13  A    between atoms: P_28  and  O_23 
REMARK   14  A    between atoms: P_28  and  O_24 
REMARK   15  A    between atoms: P_28  and  O_27 
ROOT
HETATM    1  C   UNK N   1      25.769  21.250  -8.167  0.00  0.00     0.071 C 
HETATM    2  C   UNK N   1      25.613  24.876  -7.336  0.00  0.00     0.098 A 
HETATM    3  C   UNK N   1      26.157  22.588  -7.637  0.00  0.00     0.039 A 
HETATM    4  C   UNK N   1      26.829  25.117  -6.698  0.00  0.00    -0.008 A 
HETATM    5  C   UNK N   1      27.729  24.049  -6.508  0.00  0.00     0.004 A 
HETATM    6  C   UNK N   1      27.386  22.772  -6.987  0.00  0.00     0.096 A 
HETATM    7  N   UNK N   1      25.305  23.634  -7.790  0.00  0.00    -0.367 N 
ATOM      8  HN  UNK N   1      24.410  23.483  -8.258  1.00  0.00     0.165 HD
ENDROOT
BRANCH   5   9
HETATM    9  C   UNK N   1      29.039  24.258  -5.809  0.00  0.00     0.162 C 
BRANCH   9  10
HETATM   10  N   UNK N   1      28.890  24.001  -4.398  0.00  0.00    -0.380 N 
HETATM   11  C   UNK N   1      29.522  23.111  -3.696  0.00  0.00     0.104 C 
ATOM     12  HN  UNK N   1      28.216  24.581  -3.899  1.00  0.00     0.160 HD
BRANCH  11  13
HETATM   13  C   UNK N   1      30.520  22.113  -4.240  0.00  0.00     0.060 C 
HETATM   14  C   UNK N   1      30.638  20.811  -3.926  0.00  0.00     0.137 C 
BRANCH  14  15
HETATM   15  O   UNK N   1      31.613  20.079  -4.514  0.00  0.00    -0.361 OA
BRANCH  15  16
HETATM   16  C   UNK N   1      32.323  20.563  -5.588  0.00  0.00     0.193 C 
BRANCH  16  17
HETATM   17  C   UNK N   1      31.814  19.941  -6.875  0.00  0.00     0.137 C 
BRANCH  17  18
HETATM   18  N   UNK N   1      31.057  20.919  -7.634  0.00  0.00    -0.428 N 
HETATM   19  H   UNK N   1      30.779  20.831  -8.611  0.00  0.00     0.149 HD
HETATM   20  H   UNK N   1      30.777  21.770  -7.146  0.00  0.00     0.149 HD
ENDBRANCH  17  18
ENDBRANCH  16  17
ENDBRANCH  15  16
ENDBRANCH  14  15
ENDBRANCH  11  13
BRANCH  11  21
HETATM   21  C   UNK N   1      29.254  23.081  -2.234  0.00  0.00     0.193 C 
HETATM   22  O   UNK N   1      28.103  23.081  -1.822  0.00  0.00    -0.645 OA
BRANCH  21  23
HETATM   23  O   UNK N   1      30.268  23.053  -1.348  0.00  0.00    -0.772 OA
HETATM   24  H   UNK N   1      30.719  22.280  -1.072  0.00  0.00     0.167 HD
ENDBRANCH  21  23
ENDBRANCH  11  21
ENDBRANCH   9  10
ENDBRANCH   5   9
BRANCH   4  25
HETATM   25  C   UNK N   1      27.128  26.516  -6.246  0.00  0.00     0.221 C 
BRANCH  25  26
HETATM   26  O   UNK N   1      26.099  26.994  -5.425  0.00  0.00    -0.292 OA
BRANCH  26  27
HETATM   27  P   UNK N   1      26.600  26.719  -3.774  0.00  0.00     0.391 P 
HETATM   28  O   UNK N   1      28.120  27.015  -3.680  0.00  0.00    -0.632 OA
BRANCH  27  29
HETATM   29  O   UNK N   1      26.367  25.084  -3.231  0.00  0.00    -0.307 OA
HETATM   30  H   UNK N   1      25.627  24.457  -3.221  0.00  0.00     0.222 HD
ENDBRANCH  27  29
BRANCH  27  31
HETATM   31  O   UNK N   1      25.806  27.825  -2.698  0.00  0.00    -0.307 OA
HETATM   32  H   UNK N   1      25.413  28.673  -2.439  0.00  0.00     0.222 HD
ENDBRANCH  27  31
ENDBRANCH  26  27
ENDBRANCH  25  26
ENDBRANCH   4  25
BRANCH   6  33
HETATM   33  O   UNK N   1      28.231  21.736  -6.831  0.00  0.00    -0.358 OA
HETATM   34  H   UNK N   1      28.161  20.811  -6.970  0.00  0.00     0.217 HD
ENDBRANCH   6  33
TORSDOF 15
ENDMDL
MODEL 4
REMARK VINA RESULT:      -6.1     10.796     13.101
REMARK  15 active torsions:
REMARK  status: ('A' for Active; 'I' for Inactive)
REMARK    1  A    between atoms: C_12  and  C_2 
REMARK    2  A    between atoms: C_5  and  C_3 
REMARK    3  A    between atoms: N_15  and  C_3 
REMARK    4  A    between atoms: O_26  and  C_4 
REMARK    5  A    between atoms: O_26  and  C_5 
REMARK    6  A    between atoms: C_11  and  C_7 
REMARK    7  A    between atoms: N_18  and  C_7 
REMARK    8  A    between atoms: C_10  and  C_8 
REMARK    9  A    between atoms: O_27  and  C_8 
REMARK   10  A    between atoms: C_14  and  C_12 
REMARK   11  A    between atoms: O_20  and  C_13 
REMARK   12  A    between atoms: O_22  and  C_14 
REMARK   13  A    between atoms: P_28  and  O_23 
REMARK   14  A    between atoms: P_28  and  O_24 
REMARK   15  A    between atoms: P_28  and  O_27 
ROOT
HETATM    1  C   UNK N   1      23.222  11.841  13.183  0.00  0.00     0.071 C 
HETATM    2  C   UNK N   1      25.068  12.687  10.063  0.00  0.00     0.098 A 
HETATM    3  C   UNK N   1      23.488  12.187  11.758  0.00  0.00     0.039 A 
HETATM    4  C   UNK N   1      24.054  12.861   9.121  0.00  0.00    -0.008 A 
HETATM    5  C   UNK N   1      22.713  12.671   9.512  0.00  0.00     0.004 A 
HETATM    6  C   UNK N   1      22.432  12.333  10.848  0.00  0.00     0.096 A 
HETATM    7  N   UNK N   1      24.770  12.360  11.347  0.00  0.00    -0.367 N 
ATOM      8  HN  UNK N   1      25.530  12.242  12.019  1.00  0.00     0.165 HD
ENDROOT
BRANCH   5   9
HETATM    9  C   UNK N   1      21.593  12.828   8.528  0.00  0.00     0.162 C 
BRANCH   9  10
HETATM   10  N   UNK N   1      20.804  13.988   8.862  0.00  0.00    -0.380 N 
HETATM   11  C   UNK N   1      20.833  15.146   8.277  0.00  0.00     0.104 C 
ATOM     12  HN  UNK N   1      20.155  13.887   9.642  1.00  0.00     0.160 HD
BRANCH  11  13
HETATM   13  C   UNK N   1      21.754  15.531   7.140  0.00  0.00     0.060 C 
HETATM   14  C   UNK N   1      21.415  16.027   5.937  0.00  0.00     0.137 C 
BRANCH  14  15
HETATM   15  O   UNK N   1      22.391  16.298   5.040  0.00  0.00    -0.361 OA
BRANCH  15  16
HETATM   16  C   UNK N   1      22.275  17.335   4.145  0.00  0.00     0.193 C 
BRANCH  16  17
HETATM   17  C   UNK N   1      21.172  18.281   4.581  0.00  0.00     0.137 C 
BRANCH  17  18
HETATM   18  N   UNK N   1      21.267  19.528   3.845  0.00  0.00    -0.428 N 
HETATM   19  H   UNK N   1      21.122  19.644   2.843  0.00  0.00     0.149 HD
HETATM   20  H   UNK N   1      21.502  20.365   4.380  0.00  0.00     0.149 HD
ENDBRANCH  17  18
ENDBRANCH  16  17
ENDBRANCH  15  16
ENDBRANCH  14  15
ENDBRANCH  11  13
BRANCH  11  21
HETATM   21  C   UNK N   1      19.868  16.173   8.752  0.00  0.00     0.193 C 
HETATM   22  O   UNK N   1      18.716  15.857   9.012  0.00  0.00    -0.645 OA
BRANCH  21  23
HETATM   23  O   UNK N   1      20.247  17.457   8.902  0.00  0.00    -0.772 OA
HETATM   24  H   UNK N   1      19.692  18.200   8.769  0.00  0.00     0.167 HD
ENDBRANCH  21  23
ENDBRANCH  11  21
ENDBRANCH   9  10
ENDBRANCH   5   9
BRANCH   4  25
HETATM   25  C   UNK N   1      24.442  13.252   7.726  0.00  0.00     0.221 C 
BRANCH  25  26
HETATM   26  O   UNK N   1      25.443  14.230   7.753  0.00  0.00    -0.292 OA
BRANCH  26  27
HETATM   27  P   UNK N   1      25.526  14.913   6.146  0.00  0.00     0.391 P 
HETATM   28  O   UNK N   1      26.967  14.698   5.611  0.00  0.00    -0.632 OA
BRANCH  27  29
HETATM   29  O   UNK N   1      25.215  16.623   6.092  0.00  0.00    -0.307 OA
HETATM   30  H   UNK N   1      25.352  17.371   6.694  0.00  0.00     0.222 HD
ENDBRANCH  27  29
BRANCH  27  31
HETATM   31  O   UNK N   1      24.459  14.076   5.066  0.00  0.00    -0.307 OA
HETATM   32  H   UNK N   1      24.184  13.348   4.486  0.00  0.00     0.222 HD
ENDBRANCH  27  31
ENDBRANCH  26  27
ENDBRANCH  25  26
ENDBRANCH   4  25
BRANCH   6  33
HETATM   33  O   UNK N   1      21.160  12.158  11.253  0.00  0.00    -0.358 OA
HETATM   34  H   UNK N   1      20.763  11.909  12.065  0.00  0.00     0.217 HD
ENDBRANCH   6  33
TORSDOF 15
ENDMDL
MODEL 5
REMARK VINA RESULT:      -5.9     12.377     14.406
REMARK  15 active torsions:
REMARK  status: ('A' for Active; 'I' for Inactive)
REMARK    1  A    between atoms: C_12  and  C_2 
REMARK    2  A    between atoms: C_5  and  C_3 
REMARK    3  A    between atoms: N_15  and  C_3 
REMARK    4  A    between atoms: O_26  and  C_4 
REMARK    5  A    between atoms: O_26  and  C_5 
REMARK    6  A    between atoms: C_11  and  C_7 
REMARK    7  A    between atoms: N_18  and  C_7 
REMARK    8  A    between atoms: C_10  and  C_8 
REMARK    9  A    between atoms: O_27  and  C_8 
REMARK   10  A    between atoms: C_14  and  C_12 
REMARK   11  A    between atoms: O_20  and  C_13 
REMARK   12  A    between atoms: O_22  and  C_14 
REMARK   13  A    between atoms: P_28  and  O_23 
REMARK   14  A    between atoms: P_28  and  O_24 
REMARK   15  A    between atoms: P_28  and  O_27 
ROOT
HETATM    1  C   UNK N   1      21.829  11.969  12.041  0.00  0.00     0.071 C 
HETATM    2  C   UNK N   1      23.915  13.096   9.171  0.00  0.00     0.098 A 
HETATM    3  C   UNK N   1      22.210  12.574  10.733  0.00  0.00     0.039 A 
HETATM    4  C   UNK N   1      22.994  13.706   8.318  0.00  0.00    -0.008 A 
HETATM    5  C   UNK N   1      21.632  13.731   8.682  0.00  0.00     0.004 A 
HETATM    6  C   UNK N   1      21.241  13.159   9.905  0.00  0.00     0.096 A 
HETATM    7  N   UNK N   1      23.511  12.551  10.347  0.00  0.00    -0.367 N 
ATOM      8  HN  UNK N   1      24.204  12.114  10.955  1.00  0.00     0.165 HD
ENDROOT
BRANCH   5   9
HETATM    9  C   UNK N   1      20.606  14.358   7.787  0.00  0.00     0.162 C 
BRANCH   9  10
HETATM   10  N   UNK N   1      20.198  15.632   8.324  0.00  0.00    -0.380 N 
HETATM   11  C   UNK N   1      20.367  16.798   7.780  0.00  0.00     0.104 C 
ATOM     12  HN  UNK N   1      19.727  15.615   9.228  1.00  0.00     0.160 HD
BRANCH  11  13
HETATM   13  C   UNK N   1      21.085  17.061   6.475  0.00  0.00     0.060 C 
HETATM   14  C   UNK N   1      20.542  17.303   5.269  0.00  0.00     0.137 C 
BRANCH  14  15
HETATM   15  O   UNK N   1      21.358  17.501   4.208  0.00  0.00    -0.361 OA
BRANCH  15  16
HETATM   16  C   UNK N   1      20.855  17.691   2.943  0.00  0.00     0.193 C 
BRANCH  16  17
HETATM   17  C   UNK N   1      19.895  18.864   2.931  0.00  0.00     0.137 C 
BRANCH  17  18
HETATM   18  N   UNK N   1      18.663  18.493   2.261  0.00  0.00    -0.428 N 
HETATM   19  H   UNK N   1      17.931  19.134   1.957  0.00  0.00     0.149 HD
HETATM   20  H   UNK N   1      18.515  17.500   2.078  0.00  0.00     0.149 HD
ENDBRANCH  17  18
ENDBRANCH  16  17
ENDBRANCH  15  16
ENDBRANCH  14  15
ENDBRANCH  11  13
BRANCH  11  21
HETATM   21  C   UNK N   1      19.792  17.971   8.491  0.00  0.00     0.193 C 
HETATM   22  O   UNK N   1      20.348  19.059   8.425  0.00  0.00    -0.645 OA
BRANCH  21  23
HETATM   23  O   UNK N   1      18.660  17.854   9.210  0.00  0.00    -0.772 OA
HETATM   24  H   UNK N   1      18.302  17.047   9.521  0.00  0.00     0.167 HD
ENDBRANCH  21  23
ENDBRANCH  11  21
ENDBRANCH   9  10
ENDBRANCH   5   9
BRANCH   4  25
HETATM   25  C   UNK N   1      23.502  14.319   7.047  0.00  0.00     0.221 C 
BRANCH  25  26
HETATM   26  O   UNK N   1      23.421  13.399   5.995  0.00  0.00    -0.292 OA
BRANCH  26  27
HETATM   27  P   UNK N   1      23.251  14.327   4.523  0.00  0.00     0.391 P 
HETATM   28  O   UNK N   1      24.066  13.613   3.412  0.00  0.00    -0.632 OA
BRANCH  27  29
HETATM   29  O   UNK N   1      23.864  15.949   4.640  0.00  0.00    -0.307 OA
HETATM   30  H   UNK N   1      23.522  16.835   4.440  0.00  0.00     0.222 HD
ENDBRANCH  27  29
BRANCH  27  31
HETATM   31  O   UNK N   1      21.598  14.348   3.998  0.00  0.00    -0.307 OA
HETATM   32  H   UNK N   1      20.645  14.183   4.078  0.00  0.00     0.222 HD
ENDBRANCH  27  31
ENDBRANCH  26  27
ENDBRANCH  25  26
ENDBRANCH   4  25
BRANCH   6  33
HETATM   33  O   UNK N   1      19.949  13.178  10.284  0.00  0.00    -0.358 OA
HETATM   34  H   UNK N   1      19.141  13.334   9.836  0.00  0.00     0.217 HD
ENDBRANCH   6  33
TORSDOF 15
ENDMDL
MODEL 6
REMARK VINA RESULT:      -5.7      4.480      7.488
REMARK  15 active torsions:
REMARK  status: ('A' for Active; 'I' for Inactive)
REMARK    1  A    between atoms: C_12  and  C_2 
REMARK    2  A    between atoms: C_5  and  C_3 
REMARK    3  A    between atoms: N_15  and  C_3 
REMARK    4  A    between atoms: O_26  and  C_4 
REMARK    5  A    between atoms: O_26  and  C_5 
REMARK    6  A    between atoms: C_11  and  C_7 
REMARK    7  A    between atoms: N_18  and  C_7 
REMARK    8  A    between atoms: C_10  and  C_8 
REMARK    9  A    between atoms: O_27  and  C_8 
REMARK   10  A    between atoms: C_14  and  C_12 
REMARK   11  A    between atoms: O_20  and  C_13 
REMARK   12  A    between atoms: O_22  and  C_14 
REMARK   13  A    between atoms: P_28  and  O_23 
REMARK   14  A    between atoms: P_28  and  O_24 
REMARK   15  A    between atoms: P_28  and  O_27 
ROOT
HETATM    1  C   UNK N   1      35.829  14.955   9.573  0.00  0.00     0.071 C 
HETATM    2  C   UNK N   1      34.066  15.393   6.324  0.00  0.00     0.098 A 
HETATM    3  C   UNK N   1      34.905  15.499   8.538  0.00  0.00     0.039 A 
HETATM    4  C   UNK N   1      33.224  16.482   6.554  0.00  0.00    -0.008 A 
HETATM    5  C   UNK N   1      33.213  17.084   7.828  0.00  0.00     0.004 A 
HETATM    6  C   UNK N   1      34.067  16.585   8.828  0.00  0.00     0.096 A 
HETATM    7  N   UNK N   1      34.881  14.930   7.306  0.00  0.00    -0.367 N 
ATOM      8  HN  UNK N   1      35.490  14.134   7.113  1.00  0.00     0.165 HD
ENDROOT
BRANCH   5   9
HETATM    9  C   UNK N   1      32.311  18.244   8.125  0.00  0.00     0.162 C 
BRANCH   9  10
HETATM   10  N   UNK N   1      31.280  17.841   9.050  0.00  0.00    -0.380 N 
HETATM   11  C   UNK N   1      30.055  17.525   8.763  0.00  0.00     0.104 C 
ATOM     12  HN  UNK N   1      31.543  17.799  10.034  1.00  0.00     0.160 HD
BRANCH  11  13
HETATM   13  C   UNK N   1      29.438  17.570   7.382  0.00  0.00     0.060 C 
HETATM   14  C   UNK N   1      28.737  18.573   6.825  0.00  0.00     0.137 C 
BRANCH  14  15
HETATM   15  O   UNK N   1      28.250  18.417   5.572  0.00  0.00    -0.361 OA
BRANCH  15  16
HETATM   16  C   UNK N   1      27.715  19.474   4.874  0.00  0.00     0.193 C 
BRANCH  16  17
HETATM   17  C   UNK N   1      26.474  19.990   5.576  0.00  0.00     0.137 C 
BRANCH  17  18
HETATM   18  N   UNK N   1      25.412  19.004   5.500  0.00  0.00    -0.428 N 
HETATM   19  H   UNK N   1      25.502  18.011   5.718  0.00  0.00     0.149 HD
HETATM   20  H   UNK N   1      24.494  19.332   5.203  0.00  0.00     0.149 HD
ENDBRANCH  17  18
ENDBRANCH  16  17
ENDBRANCH  15  16
ENDBRANCH  14  15
ENDBRANCH  11  13
BRANCH  11  21
HETATM   21  C   UNK N   1      29.189  17.066   9.882  0.00  0.00     0.193 C 
HETATM   22  O   UNK N   1      27.980  17.245   9.833  0.00  0.00    -0.645 OA
BRANCH  21  23
HETATM   23  O   UNK N   1      29.720  16.451  10.956  0.00  0.00    -0.772 OA
HETATM   24  H   UNK N   1      30.471  15.891  10.939  0.00  0.00     0.167 HD
ENDBRANCH  21  23
ENDBRANCH  11  21
ENDBRANCH   9  10
ENDBRANCH   5   9
BRANCH   4  25
HETATM   25  C   UNK N   1      32.369  16.969   5.422  0.00  0.00     0.221 C 
BRANCH  25  26
HETATM   26  O   UNK N   1      31.371  16.033   5.126  0.00  0.00    -0.292 OA
BRANCH  26  27
HETATM   27  P   UNK N   1      31.046  16.163   3.414  0.00  0.00     0.391 P 
HETATM   28  O   UNK N   1      30.770  14.736   2.871  0.00  0.00    -0.632 OA
BRANCH  27  29
HETATM   29  O   UNK N   1      32.373  16.808   2.493  0.00  0.00    -0.307 OA
HETATM   30  H   UNK N   1      33.334  16.678   2.480  0.00  0.00     0.222 HD
ENDBRANCH  27  29
BRANCH  27  31
HETATM   31  O   UNK N   1      29.612  17.096   3.129  0.00  0.00    -0.307 OA
HETATM   32  H   UNK N   1      29.060  17.893   3.152  0.00  0.00     0.222 HD
ENDBRANCH  27  31
ENDBRANCH  26  27
ENDBRANCH  25  26
ENDBRANCH   4  25
BRANCH   6  33
HETATM   33  O   UNK N   1      34.086  17.148  10.051  0.00  0.00    -0.358 OA
HETATM   34  H   UNK N   1      33.647  16.967  10.858  0.00  0.00     0.217 HD
ENDBRANCH   6  33
TORSDOF 15
ENDMDL
MODEL 7
REMARK VINA RESULT:      -5.7     11.043     15.142
REMARK  15 active torsions:
REMARK  status: ('A' for Active; 'I' for Inactive)
REMARK    1  A    between atoms: C_12  and  C_2 
REMARK    2  A    between atoms: C_5  and  C_3 
REMARK    3  A    between atoms: N_15  and  C_3 
REMARK    4  A    between atoms: O_26  and  C_4 
REMARK    5  A    between atoms: O_26  and  C_5 
REMARK    6  A    between atoms: C_11  and  C_7 
REMARK    7  A    between atoms: N_18  and  C_7 
REMARK    8  A    between atoms: C_10  and  C_8 
REMARK    9  A    between atoms: O_27  and  C_8 
REMARK   10  A    between atoms: C_14  and  C_12 
REMARK   11  A    between atoms: O_20  and  C_13 
REMARK   12  A    between atoms: O_22  and  C_14 
REMARK   13  A    between atoms: P_28  and  O_23 
REMARK   14  A    between atoms: P_28  and  O_24 
REMARK   15  A    between atoms: P_28  and  O_27 
ROOT
HETATM    1  C   UNK N   1      19.270  16.421  -0.074  0.00  0.00     0.071 C 
HETATM    2  C   UNK N   1      21.307  14.721   2.537  0.00  0.00     0.098 A 
HETATM    3  C   UNK N   1      20.030  16.193   1.187  0.00  0.00     0.039 A 
HETATM    4  C   UNK N   1      21.439  15.691   3.531  0.00  0.00    -0.008 A 
HETATM    5  C   UNK N   1      20.861  16.961   3.332  0.00  0.00     0.004 A 
HETATM    6  C   UNK N   1      20.147  17.209   2.146  0.00  0.00     0.096 A 
HETATM    7  N   UNK N   1      20.613  14.985   1.401  0.00  0.00    -0.367 N 
ATOM      8  HN  UNK N   1      20.527  14.258   0.690  1.00  0.00     0.165 HD
ENDROOT
BRANCH   5   9
HETATM    9  C   UNK N   1      20.995  18.040   4.364  0.00  0.00     0.162 C 
BRANCH   9  10
HETATM   10  N   UNK N   1      21.531  19.234   3.760  0.00  0.00    -0.380 N 
HETATM   11  C   UNK N   1      22.778  19.485   3.501  0.00  0.00     0.104 C 
ATOM     12  HN  UNK N   1      20.859  19.959   3.510  1.00  0.00     0.160 HD
BRANCH  11  13
HETATM   13  C   UNK N   1      23.942  18.578   3.836  0.00  0.00     0.060 C 
HETATM   14  C   UNK N   1      24.758  18.645   4.903  0.00  0.00     0.137 C 
BRANCH  14  15
HETATM   15  O   UNK N   1      25.761  17.744   5.020  0.00  0.00    -0.361 OA
BRANCH  15  16
HETATM   16  C   UNK N   1      27.003  18.111   5.482  0.00  0.00     0.193 C 
BRANCH  16  17
HETATM   17  C   UNK N   1      27.807  18.756   4.370  0.00  0.00     0.137 C 
BRANCH  17  18
HETATM   18  N   UNK N   1      28.630  17.760   3.710  0.00  0.00    -0.428 N 
HETATM   19  H   UNK N   1      28.636  17.557   2.710  0.00  0.00     0.149 HD
HETATM   20  H   UNK N   1      29.260  17.214   4.298  0.00  0.00     0.149 HD
ENDBRANCH  17  18
ENDBRANCH  16  17
ENDBRANCH  15  16
ENDBRANCH  14  15
ENDBRANCH  11  13
BRANCH  11  21
HETATM   21  C   UNK N   1      23.086  20.761   2.802  0.00  0.00     0.193 C 
HETATM   22  O   UNK N   1      24.189  20.935   2.304  0.00  0.00    -0.645 OA
BRANCH  21  23
HETATM   23  O   UNK N   1      22.162  21.736   2.709  0.00  0.00    -0.772 OA
HETATM   24  H   UNK N   1      21.476  21.887   3.328  0.00  0.00     0.167 HD
ENDBRANCH  21  23
ENDBRANCH  11  21
ENDBRANCH   9  10
ENDBRANCH   5   9
BRANCH   4  25
HETATM   25  C   UNK N   1      22.191  15.332   4.778  0.00  0.00     0.221 C 
BRANCH  25  26
HETATM   26  O   UNK N   1      21.595  14.233   5.408  0.00  0.00    -0.292 OA
BRANCH  26  27
HETATM   27  P   UNK N   1      20.648  14.862   6.735  0.00  0.00     0.391 P 
HETATM   28  O   UNK N   1      19.249  15.246   6.184  0.00  0.00    -0.632 OA
BRANCH  27  29
HETATM   29  O   UNK N   1      21.318  16.293   7.460  0.00  0.00    -0.307 OA
HETATM   30  H   UNK N   1      22.126  16.817   7.341  0.00  0.00     0.222 HD
ENDBRANCH  27  29
BRANCH  27  31
HETATM   31  O   UNK N   1      20.395  13.643   7.943  0.00  0.00    -0.307 OA
HETATM   32  H   UNK N   1      20.653  13.059   8.673  0.00  0.00     0.222 HD
ENDBRANCH  27  31
ENDBRANCH  26  27
ENDBRANCH  25  26
ENDBRANCH   4  25
BRANCH   6  33
HETATM   33  O   UNK N   1      19.573  18.409   1.934  0.00  0.00    -0.358 OA
HETATM   34  H   UNK N   1      19.568  19.011   1.216  0.00  0.00     0.217 HD
ENDBRANCH   6  33
TORSDOF 15
ENDMDL
MODEL 8
REMARK VINA RESULT:      -5.7     17.372     21.286
REMARK  15 active torsions:
REMARK  status: ('A' for Active; 'I' for Inactive)
REMARK    1  A    between atoms: C_12  and  C_2 
REMARK    2  A    between atoms: C_5  and  C_3 
REMARK    3  A    between atoms: N_15  and  C_3 
REMARK    4  A    between atoms: O_26  and  C_4 
REMARK    5  A    between atoms: O_26  and  C_5 
REMARK    6  A    between atoms: C_11  and  C_7 
REMARK    7  A    between atoms: N_18  and  C_7 
REMARK    8  A    between atoms: C_10  and  C_8 
REMARK    9  A    between atoms: O_27  and  C_8 
REMARK   10  A    between atoms: C_14  and  C_12 
REMARK   11  A    between atoms: O_20  and  C_13 
REMARK   12  A    between atoms: O_22  and  C_14 
REMARK   13  A    between atoms: P_28  and  O_23 
REMARK   14  A    between atoms: P_28  and  O_24 
REMARK   15  A    between atoms: P_28  and  O_27 
ROOT
HETATM    1  C   UNK N   1      29.995  23.037  -2.129  0.00  0.00     0.071 C 
HETATM    2  C   UNK N   1      29.069  22.595  -5.708  0.00  0.00     0.098 A 
HETATM    3  C   UNK N   1      29.211  23.096  -3.395  0.00  0.00     0.039 A 
HETATM    4  C   UNK N   1      27.813  23.196  -5.796  0.00  0.00    -0.008 A 
HETATM    5  C   UNK N   1      27.232  23.747  -4.636  0.00  0.00     0.004 A 
HETATM    6  C   UNK N   1      27.944  23.697  -3.425  0.00  0.00     0.096 A 
HETATM    7  N   UNK N   1      29.736  22.559  -4.526  0.00  0.00    -0.367 N 
ATOM      8  HN  UNK N   1      30.655  22.118  -4.487  1.00  0.00     0.165 HD
ENDROOT
BRANCH   5   9
HETATM    9  C   UNK N   1      25.875  24.385  -4.680  0.00  0.00     0.162 C 
BRANCH   9  10
HETATM   10  N   UNK N   1      25.977  25.781  -4.335  0.00  0.00    -0.380 N 
HETATM   11  C   UNK N   1      25.864  26.793  -5.139  0.00  0.00     0.104 C 
ATOM     12  HN  UNK N   1      26.157  25.995  -3.355  1.00  0.00     0.160 HD
BRANCH  11  13
HETATM   13  C   UNK N   1      25.651  26.706  -6.634  0.00  0.00     0.060 C 
HETATM   14  C   UNK N   1      26.583  26.553  -7.592  0.00  0.00     0.137 C 
BRANCH  14  15
HETATM   15  O   UNK N   1      26.194  26.512  -8.887  0.00  0.00    -0.361 OA
BRANCH  15  16
HETATM   16  C   UNK N   1      27.111  26.504  -9.911  0.00  0.00     0.193 C 
BRANCH  16  17
HETATM   17  C   UNK N   1      27.552  25.084 -10.209  0.00  0.00     0.137 C 
BRANCH  17  18
HETATM   18  N   UNK N   1      26.469  24.348 -10.835  0.00  0.00    -0.428 N 
HETATM   19  H   UNK N   1      25.841  23.695 -10.365  0.00  0.00     0.149 HD
HETATM   20  H   UNK N   1      26.322  24.497 -11.833  0.00  0.00     0.149 HD
ENDBRANCH  17  18
ENDBRANCH  16  17
ENDBRANCH  15  16
ENDBRANCH  14  15
ENDBRANCH  11  13
BRANCH  11  21
HETATM   21  C   UNK N   1      25.932  28.152  -4.537  0.00  0.00     0.193 C 
HETATM   22  O   UNK N   1      26.544  29.043  -5.108  0.00  0.00    -0.645 OA
BRANCH  21  23
HETATM   23  O   UNK N   1      25.326  28.417  -3.365  0.00  0.00    -0.772 OA
HETATM   24  H   UNK N   1      25.515  27.991  -2.553  0.00  0.00     0.167 HD
ENDBRANCH  21  23
ENDBRANCH  11  21
ENDBRANCH   9  10
ENDBRANCH   5   9
BRANCH   4  25
HETATM   25  C   UNK N   1      27.137  23.234  -7.135  0.00  0.00     0.221 C 
BRANCH  25  26
HETATM   26  O   UNK N   1      26.810  21.939  -7.553  0.00  0.00    -0.292 OA
BRANCH  26  27
HETATM   27  P   UNK N   1      25.159  21.993  -8.125  0.00  0.00     0.391 P 
HETATM   28  O   UNK N   1      24.802  23.477  -8.410  0.00  0.00    -0.632 OA
BRANCH  27  29
HETATM   29  O   UNK N   1      23.996  21.404  -6.976  0.00  0.00    -0.307 OA
HETATM   30  H   UNK N   1      23.154  20.924  -7.026  0.00  0.00     0.222 HD
ENDBRANCH  27  29
BRANCH  27  31
HETATM   31  O   UNK N   1      25.000  21.141  -9.628  0.00  0.00    -0.307 OA
HETATM   32  H   UNK N   1      24.591  20.518 -10.248  0.00  0.00     0.222 HD
ENDBRANCH  27  31
ENDBRANCH  26  27
ENDBRANCH  25  26
ENDBRANCH   4  25
BRANCH   6  33
HETATM   33  O   UNK N   1      27.419  24.225  -2.303  0.00  0.00    -0.358 OA
HETATM   34  H   UNK N   1      27.255  25.101  -2.010  0.00  0.00     0.217 HD
ENDBRANCH   6  33
TORSDOF 15
ENDMDL
MODEL 9
REMARK VINA RESULT:      -5.7      4.990      6.934
REMARK  15 active torsions:
REMARK  status: ('A' for Active; 'I' for Inactive)
REMARK    1  A    between atoms: C_12  and  C_2 
REMARK    2  A    between atoms: C_5  and  C_3 
REMARK    3  A    between atoms: N_15  and  C_3 
REMARK    4  A    between atoms: O_26  and  C_4 
REMARK    5  A    between atoms: O_26  and  C_5 
REMARK    6  A    between atoms: C_11  and  C_7 
REMARK    7  A    between atoms: N_18  and  C_7 
REMARK    8  A    between atoms: C_10  and  C_8 
REMARK    9  A    between atoms: O_27  and  C_8 
REMARK   10  A    between atoms: C_14  and  C_12 
REMARK   11  A    between atoms: O_20  and  C_13 
REMARK   12  A    between atoms: O_22  and  C_14 
REMARK   13  A    between atoms: P_28  and  O_23 
REMARK   14  A    between atoms: P_28  and  O_24 
REMARK   15  A    between atoms: P_28  and  O_27 
ROOT
HETATM    1  C   UNK N   1      33.325  11.875   4.083  0.00  0.00     0.071 C 
HETATM    2  C   UNK N   1      33.986  14.944   6.084  0.00  0.00     0.098 A 
HETATM    3  C   UNK N   1      33.345  13.308   4.493  0.00  0.00     0.039 A 
HETATM    4  C   UNK N   1      33.395  15.959   5.331  0.00  0.00    -0.008 A 
HETATM    5  C   UNK N   1      32.775  15.634   4.107  0.00  0.00     0.004 A 
HETATM    6  C   UNK N   1      32.750  14.291   3.689  0.00  0.00     0.096 A 
HETATM    7  N   UNK N   1      33.948  13.655   5.658  0.00  0.00    -0.367 N 
ATOM      8  HN  UNK N   1      34.385  12.931   6.229  1.00  0.00     0.165 HD
ENDROOT
BRANCH   5   9
HETATM    9  C   UNK N   1      32.145  16.694   3.255  0.00  0.00     0.162 C 
BRANCH   9  10
HETATM   10  N   UNK N   1      30.764  16.366   3.003  0.00  0.00    -0.380 N 
HETATM   11  C   UNK N   1      29.747  16.632   3.764  0.00  0.00     0.104 C 
ATOM     12  HN  UNK N   1      30.566  15.871   2.134  1.00  0.00     0.160 HD
BRANCH  11  13
HETATM   13  C   UNK N   1      29.818  17.306   5.117  0.00  0.00     0.060 C 
HETATM   14  C   UNK N   1      29.880  16.721   6.327  0.00  0.00     0.137 C 
BRANCH  14  15
HETATM   15  O   UNK N   1      29.923  17.501   7.431  0.00  0.00    -0.361 OA
BRANCH  15  16
HETATM   16  C   UNK N   1      28.882  18.339   7.757  0.00  0.00     0.193 C 
BRANCH  16  17
HETATM   17  C   UNK N   1      28.820  18.539   9.259  0.00  0.00     0.137 C 
BRANCH  17  18
HETATM   18  N   UNK N   1      30.098  18.203   9.859  0.00  0.00    -0.428 N 
HETATM   19  H   UNK N   1      30.967  18.725   9.745  0.00  0.00     0.149 HD
HETATM   20  H   UNK N   1      30.130  17.370  10.446  0.00  0.00     0.149 HD
ENDBRANCH  17  18
ENDBRANCH  16  17
ENDBRANCH  15  16
ENDBRANCH  14  15
ENDBRANCH  11  13
BRANCH  11  21
HETATM   21  C   UNK N   1      28.400  16.258   3.257  0.00  0.00     0.193 C 
HETATM   22  O   UNK N   1      27.405  16.817   3.696  0.00  0.00    -0.645 OA
BRANCH  21  23
HETATM   23  O   UNK N   1      28.257  15.308   2.314  0.00  0.00    -0.772 OA
HETATM   24  H   UNK N   1      27.731  14.538   2.403  0.00  0.00     0.167 HD
ENDBRANCH  21  23
ENDBRANCH  11  21
ENDBRANCH   9  10
ENDBRANCH   5   9
BRANCH   4  25
HETATM   25  C   UNK N   1      33.440  17.359   5.867  0.00  0.00     0.221 C 
BRANCH  25  26
HETATM   26  O   UNK N   1      34.669  17.603   6.491  0.00  0.00    -0.292 OA
BRANCH  26  27
HETATM   27  P   UNK N   1      34.319  18.030   8.149  0.00  0.00     0.391 P 
HETATM   28  O   UNK N   1      35.074  19.346   8.473  0.00  0.00    -0.632 OA
BRANCH  27  29
HETATM   29  O   UNK N   1      34.845  16.845   9.307  0.00  0.00    -0.307 OA
HETATM   30  H   UNK N   1      34.881  15.876   9.338  0.00  0.00     0.222 HD
ENDBRANCH  27  29
BRANCH  27  31
HETATM   31  O   UNK N   1      32.628  18.358   8.355  0.00  0.00    -0.307 OA
HETATM   32  H   UNK N   1      31.777  18.339   8.821  0.00  0.00     0.222 HD
ENDBRANCH  27  31
ENDBRANCH  26  27
ENDBRANCH  25  26
ENDBRANCH   4  25
BRANCH   6  33
HETATM   33  O   UNK N   1      32.155  13.949   2.531  0.00  0.00    -0.358 OA
HETATM   34  H   UNK N   1      31.764  14.434   1.831  0.00  0.00     0.217 HD
ENDBRANCH   6  33
TORSDOF 15
ENDMDL
