MODEL 1
REMARK VINA RESULT:      -6.4      0.000      0.000
REMARK  15 active torsions:
REMARK  status: ('A' for Active; 'I' for Inactive)
REMARK    1  A    between atoms: C_8  and  C_4 
REMARK    2  A    between atoms: C_5  and  O_22 
REMARK    3  A    between atoms: C_6  and  O_23 
REMARK    4  A    between atoms: C_7  and  O_11 
REMARK    5  A    between atoms: O_13  and  C_8 
REMARK    6  A    between atoms: C_10  and  C_9 
REMARK    7  A    between atoms: O_15  and  C_9 
REMARK    8  A    between atoms: C_10  and  O_22 
REMARK    9  A    between atoms: O_24  and  C_10 
REMARK   10  A    between atoms: P_25  and  O_16 
REMARK   11  A    between atoms: P_25  and  O_17 
REMARK   12  A    between atoms: P_26  and  O_19 
REMARK   13  A    between atoms: P_26  and  O_20 
REMARK   14  A    between atoms: P_25  and  O_23 
REMARK   15  A    between atoms: P_26  and  O_24 
ROOT
HETATM    1  C   UNK N   1      21.022  18.241   6.803  0.00  0.00     0.080 C 
HETATM    2  C   UNK N   1      20.600  16.133   8.102  0.00  0.00     0.022 C 
HETATM    3  C   UNK N   1      20.375  17.453   7.941  0.00  0.00     0.017 C 
HETATM    4  C   UNK N   1      21.830  17.408   5.782  0.00  0.00     0.161 C 
HETATM    5  C   UNK N   1      21.496  15.355   7.170  0.00  0.00     0.188 C 
HETATM    6  C   UNK N   1      22.560  16.295   6.577  0.00  0.00     0.180 C 
ENDROOT
BRANCH   4   7
HETATM    7  O   UNK N   1      20.901  16.942   4.791  0.00  0.00    -0.338 OA
BRANCH   7   8
HETATM    8  C   UNK N   1      21.166  17.272   3.423  0.00  0.00     0.258 C 
HETATM    9  C   UNK N   1      21.980  16.113   2.875  0.00  0.00     0.092 C 
BRANCH   8  10
HETATM   10  C   UNK N   1      19.887  17.291   2.566  0.00  0.00     0.205 C 
HETATM   11  O   UNK N   1      19.894  16.858   1.425  0.00  0.00    -0.646 OA
BRANCH  10  12
HETATM   12  O   UNK N   1      18.773  17.905   3.010  0.00  0.00    -0.772 OA
HETATM   13  H   UNK N   1      17.952  17.748   2.587  0.00  0.00     0.167 HD
ENDBRANCH  10  12
ENDBRANCH   8  10
BRANCH   8  14
HETATM   14  O   UNK N   1      22.043  18.393   3.395  0.00  0.00    -0.249 OA
BRANCH  14  15
HETATM   15  P   UNK N   1      21.397  19.942   2.870  0.00  0.00     0.393 P 
HETATM   16  O   UNK N   1      20.383  20.450   3.930  0.00  0.00    -0.631 OA
BRANCH  15  17
HETATM   17  O   UNK N   1      20.628  19.904   1.315  0.00  0.00    -0.307 OA
HETATM   18  H   UNK N   1      20.205  20.672   0.899  0.00  0.00     0.222 HD
ENDBRANCH  15  17
BRANCH  15  19
HETATM   19  O   UNK N   1      22.681  21.110   2.849  0.00  0.00    -0.307 OA
HETATM   20  H   UNK N   1      23.418  21.012   2.226  0.00  0.00     0.222 HD
ENDBRANCH  15  19
ENDBRANCH  14  15
ENDBRANCH   8  14
ENDBRANCH   7   8
ENDBRANCH   4   7
BRANCH   6  21
HETATM   21  O   UNK N   1      23.481  15.596   5.804  0.00  0.00    -0.390 OA
HETATM   22  H   UNK N   1      23.379  15.520   4.843  0.00  0.00     0.210 HD
ENDBRANCH   6  21
BRANCH   3  23
HETATM   23  C   UNK N   1      19.573  18.175   8.956  0.00  0.00     0.171 C 
HETATM   24  O   UNK N   1      20.082  19.047   9.643  0.00  0.00    -0.646 OA
BRANCH  23  25
HETATM   25  O   UNK N   1      18.262  17.900   9.101  0.00  0.00    -0.773 OA
HETATM   26  H   UNK N   1      17.884  17.056   8.947  0.00  0.00     0.167 HD
ENDBRANCH  23  25
ENDBRANCH   3  23
BRANCH   5  27
HETATM   27  O   UNK N   1      22.024  14.179   7.762  0.00  0.00    -0.285 OA
BRANCH  27  28
HETATM   28  P   UNK N   1      21.206  13.774   9.257  0.00  0.00     0.391 P 
HETATM   29  O   UNK N   1      20.727  12.655   8.293  0.00  0.00    -0.632 OA
BRANCH  28  30
HETATM   30  O   UNK N   1      21.638  12.317  10.095  0.00  0.00    -0.307 OA
HETATM   31  H   UNK N   1      22.476  11.872   9.893  0.00  0.00     0.222 HD
ENDBRANCH  28  30
BRANCH  28  32
HETATM   32  O   UNK N   1      22.927  13.682   9.473  0.00  0.00    -0.307 OA
HETATM   33  H   UNK N   1      23.459  13.117   8.892  0.00  0.00     0.222 HD
ENDBRANCH  28  32
ENDBRANCH  27  28
ENDBRANCH   5  27
TORSDOF 15
ENDMDL
MODEL 2
REMARK VINA RESULT:      -6.3      8.122     10.172
REMARK  15 active torsions:
REMARK  status: ('A' for Active; 'I' for Inactive)
REMARK    1  A    between atoms: C_8  and  C_4 
REMARK    2  A    between atoms: C_5  and  O_22 
REMARK    3  A    between atoms: C_6  and  O_23 
REMARK    4  A    between atoms: C_7  and  O_11 
REMARK    5  A    between atoms: O_13  and  C_8 
REMARK    6  A    between atoms: C_10  and  C_9 
REMARK    7  A    between atoms: O_15  and  C_9 
REMARK    8  A    between atoms: C_10  and  O_22 
REMARK    9  A    between atoms: O_24  and  C_10 
REMARK   10  A    between atoms: P_25  and  O_16 
REMARK   11  A    between atoms: P_25  and  O_17 
REMARK   12  A    between atoms: P_26  and  O_19 
REMARK   13  A    between atoms: P_26  and  O_20 
REMARK   14  A    between atoms: P_25  and  O_23 
REMARK   15  A    between atoms: P_26  and  O_24 
ROOT
HETATM    1  C   UNK N   1      28.341  17.504   6.717  0.00  0.00     0.080 C 
HETATM    2  C   UNK N   1      30.633  17.577   7.741  0.00  0.00     0.022 C 
HETATM    3  C   UNK N   1      29.300  17.723   7.886  0.00  0.00     0.017 C 
HETATM    4  C   UNK N   1      28.979  16.977   5.412  0.00  0.00     0.161 C 
HETATM    5  C   UNK N   1      31.257  17.186   6.423  0.00  0.00     0.188 C 
HETATM    6  C   UNK N   1      30.360  17.666   5.269  0.00  0.00     0.180 C 
ENDROOT
BRANCH   4   7
HETATM    7  O   UNK N   1      29.018  15.545   5.512  0.00  0.00    -0.338 OA
BRANCH   7   8
HETATM    8  C   UNK N   1      28.304  14.789   4.527  0.00  0.00     0.258 C 
HETATM    9  C   UNK N   1      26.948  14.495   5.143  0.00  0.00     0.092 C 
BRANCH   8  10
HETATM   10  C   UNK N   1      27.990  15.617   3.268  0.00  0.00     0.205 C 
HETATM   11  O   UNK N   1      26.843  15.935   3.001  0.00  0.00    -0.646 OA
BRANCH  10  12
HETATM   12  O   UNK N   1      28.956  15.891   2.369  0.00  0.00    -0.772 OA
HETATM   13  H   UNK N   1      28.926  15.503   1.517  0.00  0.00     0.167 HD
ENDBRANCH  10  12
ENDBRANCH   8  10
BRANCH   8  14
HETATM   14  O   UNK N   1      28.937  13.521   4.391  0.00  0.00    -0.249 OA
BRANCH  14  15
HETATM   15  P   UNK N   1      30.688  13.447   4.532  0.00  0.00     0.393 P 
HETATM   16  O   UNK N   1      31.181  12.085   3.970  0.00  0.00    -0.631 OA
BRANCH  15  17
HETATM   17  O   UNK N   1      31.283  13.646   6.149  0.00  0.00    -0.307 OA
HETATM   18  H   UNK N   1      31.353  14.502   6.601  0.00  0.00     0.222 HD
ENDBRANCH  15  17
BRANCH  15  19
HETATM   19  O   UNK N   1      31.389  14.660   3.507  0.00  0.00    -0.307 OA
HETATM   20  H   UNK N   1      30.909  15.484   3.330  0.00  0.00     0.222 HD
ENDBRANCH  15  19
ENDBRANCH  14  15
ENDBRANCH   8  14
ENDBRANCH   7   8
ENDBRANCH   4   7
BRANCH   6  21
HETATM   21  O   UNK N   1      30.954  17.432   4.034  0.00  0.00    -0.390 OA
HETATM   22  H   UNK N   1      31.649  16.764   3.927  0.00  0.00     0.210 HD
ENDBRANCH   6  21
BRANCH   3  23
HETATM   23  C   UNK N   1      28.768  18.216   9.177  0.00  0.00     0.171 C 
HETATM   24  O   UNK N   1      29.509  18.737   9.996  0.00  0.00    -0.646 OA
BRANCH  23  25
HETATM   25  O   UNK N   1      27.448  18.130   9.441  0.00  0.00    -0.773 OA
HETATM   26  H   UNK N   1      27.042  18.492  10.204  0.00  0.00     0.167 HD
ENDBRANCH  23  25
ENDBRANCH   3  23
BRANCH   5  27
HETATM   27  O   UNK N   1      32.612  17.585   6.312  0.00  0.00    -0.285 OA
BRANCH  27  28
HETATM   28  P   UNK N   1      33.711  16.334   6.855  0.00  0.00     0.391 P 
HETATM   29  O   UNK N   1      33.280  15.822   5.454  0.00  0.00    -0.632 OA
BRANCH  28  30
HETATM   30  O   UNK N   1      35.222  16.112   6.031  0.00  0.00    -0.307 OA
HETATM   31  H   UNK N   1      35.732  16.883   5.736  0.00  0.00     0.222 HD
ENDBRANCH  28  30
BRANCH  28  32
HETATM   32  O   UNK N   1      34.553  17.846   6.707  0.00  0.00    -0.307 OA
HETATM   33  H   UNK N   1      34.529  18.488   7.434  0.00  0.00     0.222 HD
ENDBRANCH  28  32
ENDBRANCH  27  28
ENDBRANCH   5  27
TORSDOF 15
ENDMDL
MODEL 3
REMARK VINA RESULT:      -6.3     10.553     12.749
REMARK  15 active torsions:
REMARK  status: ('A' for Active; 'I' for Inactive)
REMARK    1  A    between atoms: C_8  and  C_4 
REMARK    2  A    between atoms: C_5  and  O_22 
REMARK    3  A    between atoms: C_6  and  O_23 
REMARK    4  A    between atoms: C_7  and  O_11 
REMARK    5  A    between atoms: O_13  and  C_8 
REMARK    6  A    between atoms: C_10  and  C_9 
REMARK    7  A    between atoms: O_15  and  C_9 
REMARK    8  A    between atoms: C_10  and  O_22 
REMARK    9  A    between atoms: O_24  and  C_10 
REMARK   10  A    between atoms: P_25  and  O_16 
REMARK   11  A    between atoms: P_25  and  O_17 
REMARK   12  A    between atoms: P_26  and  O_19 
REMARK   13  A    between atoms: P_26  and  O_20 
REMARK   14  A    between atoms: P_25  and  O_23 
REMARK   15  A    between atoms: P_26  and  O_24 
ROOT
HETATM    1  C   UNK N   1      30.947  17.171   6.738  0.00  0.00     0.080 C 
HETATM    2  C   UNK N   1      32.220  17.563   8.868  0.00  0.00     0.022 C 
HETATM    3  C   UNK N   1      31.068  17.678   8.174  0.00  0.00     0.017 C 
HETATM    4  C   UNK N   1      32.171  16.404   6.188  0.00  0.00     0.161 C 
HETATM    5  C   UNK N   1      33.452  16.926   8.273  0.00  0.00     0.188 C 
HETATM    6  C   UNK N   1      33.436  17.107   6.745  0.00  0.00     0.180 C 
ENDROOT
BRANCH   4   7
HETATM    7  O   UNK N   1      32.015  15.030   6.576  0.00  0.00    -0.338 OA
BRANCH   7   8
HETATM    8  C   UNK N   1      31.954  14.048   5.536  0.00  0.00     0.258 C 
HETATM    9  C   UNK N   1      30.490  13.965   5.142  0.00  0.00     0.092 C 
BRANCH   8  10
HETATM   10  C   UNK N   1      32.678  14.504   4.257  0.00  0.00     0.205 C 
HETATM   11  O   UNK N   1      33.895  14.572   4.220  0.00  0.00    -0.646 OA
BRANCH  10  12
HETATM   12  O   UNK N   1      31.979  14.962   3.199  0.00  0.00    -0.772 OA
HETATM   13  H   UNK N   1      31.212  14.507   2.913  0.00  0.00     0.167 HD
ENDBRANCH  10  12
ENDBRANCH   8  10
BRANCH   8  14
HETATM   14  O   UNK N   1      32.263  12.778   6.101  0.00  0.00    -0.249 OA
BRANCH  14  15
HETATM   15  P   UNK N   1      33.382  12.721   7.456  0.00  0.00     0.393 P 
HETATM   16  O   UNK N   1      33.995  11.296   7.543  0.00  0.00    -0.631 OA
BRANCH  15  17
HETATM   17  O   UNK N   1      32.672  13.131   8.985  0.00  0.00    -0.307 OA
HETATM   18  H   UNK N   1      32.232  13.976   9.171  0.00  0.00     0.222 HD
ENDBRANCH  15  17
BRANCH  15  19
HETATM   19  O   UNK N   1      34.713  13.788   7.134  0.00  0.00    -0.307 OA
HETATM   20  H   UNK N   1      35.613  13.435   7.065  0.00  0.00     0.222 HD
ENDBRANCH  15  19
ENDBRANCH  14  15
ENDBRANCH   8  14
ENDBRANCH   7   8
ENDBRANCH   4   7
BRANCH   6  21
HETATM   21  O   UNK N   1      34.611  16.639   6.167  0.00  0.00    -0.390 OA
HETATM   22  H   UNK N   1      34.738  15.698   5.972  0.00  0.00     0.210 HD
ENDBRANCH   6  21
BRANCH   3  23
HETATM   23  C   UNK N   1      29.934  18.413   8.781  0.00  0.00     0.171 C 
HETATM   24  O   UNK N   1      28.948  18.692   8.116  0.00  0.00    -0.646 OA
BRANCH  23  25
HETATM   25  O   UNK N   1      29.967  18.745  10.087  0.00  0.00    -0.773 OA
HETATM   26  H   UNK N   1      30.755  18.908  10.566  0.00  0.00     0.167 HD
ENDBRANCH  23  25
ENDBRANCH   3  23
BRANCH   5  27
HETATM   27  O   UNK N   1      34.651  17.351   8.897  0.00  0.00    -0.285 OA
BRANCH  27  28
HETATM   28  P   UNK N   1      35.059  16.357  10.280  0.00  0.00     0.391 P 
HETATM   29  O   UNK N   1      35.600  15.521   9.089  0.00  0.00    -0.632 OA
BRANCH  28  30
HETATM   30  O   UNK N   1      36.728  16.115  10.691  0.00  0.00    -0.307 OA
HETATM   31  H   UNK N   1      37.218  15.369  10.312  0.00  0.00     0.222 HD
ENDBRANCH  28  30
BRANCH  28  32
HETATM   32  O   UNK N   1      35.893  17.878  10.371  0.00  0.00    -0.307 OA
HETATM   33  H   UNK N   1      36.437  18.088  11.146  0.00  0.00     0.222 HD
ENDBRANCH  28  32
ENDBRANCH  27  28
ENDBRANCH   5  27
TORSDOF 15
ENDMDL
MODEL 4
REMARK VINA RESULT:      -6.2      8.726     10.903
REMARK  15 active torsions:
REMARK  status: ('A' for Active; 'I' for Inactive)
REMARK    1  A    between atoms: C_8  and  C_4 
REMARK    2  A    between atoms: C_5  and  O_22 
REMARK    3  A    between atoms: C_6  and  O_23 
REMARK    4  A    between atoms: C_7  and  O_11 
REMARK    5  A    between atoms: O_13  and  C_8 
REMARK    6  A    between atoms: C_10  and  C_9 
REMARK    7  A    between atoms: O_15  and  C_9 
REMARK    8  A    between atoms: C_10  and  O_22 
REMARK    9  A    between atoms: O_24  and  C_10 
REMARK   10  A    between atoms: P_25  and  O_16 
REMARK   11  A    between atoms: P_25  and  O_17 
REMARK   12  A    between atoms: P_26  and  O_19 
REMARK   13  A    between atoms: P_26  and  O_20 
REMARK   14  A    between atoms: P_25  and  O_23 
REMARK   15  A    between atoms: P_26  and  O_24 
ROOT
HETATM    1  C   UNK N   1      30.843  15.968   5.611  0.00  0.00     0.080 C 
HETATM    2  C   UNK N   1      32.692  17.565   6.195  0.00  0.00     0.022 C 
HETATM    3  C   UNK N   1      32.149  16.701   5.311  0.00  0.00     0.017 C 
HETATM    4  C   UNK N   1      30.123  16.378   6.916  0.00  0.00     0.161 C 
HETATM    5  C   UNK N   1      32.043  17.861   7.526  0.00  0.00     0.188 C 
HETATM    6  C   UNK N   1      31.221  16.642   7.978  0.00  0.00     0.180 C 
ENDROOT
BRANCH   4   7
HETATM    7  O   UNK N   1      29.294  17.508   6.600  0.00  0.00    -0.338 OA
BRANCH   7   8
HETATM    8  C   UNK N   1      27.929  17.472   7.030  0.00  0.00     0.258 C 
HETATM    9  C   UNK N   1      27.582  16.000   7.159  0.00  0.00     0.092 C 
BRANCH   8  10
HETATM   10  C   UNK N   1      27.746  18.043   8.448  0.00  0.00     0.205 C 
HETATM   11  O   UNK N   1      27.753  17.307   9.422  0.00  0.00    -0.646 OA
BRANCH  10  12
HETATM   12  O   UNK N   1      27.442  19.343   8.631  0.00  0.00    -0.772 OA
HETATM   13  H   UNK N   1      26.767  19.586   9.233  0.00  0.00     0.167 HD
ENDBRANCH  10  12
ENDBRANCH   8  10
BRANCH   8  14
HETATM   14  O   UNK N   1      27.113  17.958   5.970  0.00  0.00    -0.249 OA
BRANCH  14  15
HETATM   15  P   UNK N   1      27.741  19.257   4.965  0.00  0.00     0.393 P 
HETATM   16  O   UNK N   1      26.750  19.516   3.798  0.00  0.00    -0.631 OA
BRANCH  15  17
HETATM   17  O   UNK N   1      29.322  18.956   4.316  0.00  0.00    -0.307 OA
HETATM   18  H   UNK N   1      30.149  19.169   4.777  0.00  0.00     0.222 HD
ENDBRANCH  15  17
BRANCH  15  19
HETATM   19  O   UNK N   1      27.770  20.724   5.893  0.00  0.00    -0.307 OA
HETATM   20  H   UNK N   1      28.456  21.390   5.730  0.00  0.00     0.222 HD
ENDBRANCH  15  19
ENDBRANCH  14  15
ENDBRANCH   8  14
ENDBRANCH   7   8
ENDBRANCH   4   7
BRANCH   6  21
HETATM   21  O   UNK N   1      30.702  16.827   9.255  0.00  0.00    -0.390 OA
HETATM   22  H   UNK N   1      29.851  16.443   9.514  0.00  0.00     0.210 HD
ENDBRANCH   6  21
BRANCH   3  23
HETATM   23  C   UNK N   1      32.896  16.375   4.075  0.00  0.00     0.171 C 
HETATM   24  O   UNK N   1      33.868  15.636   4.114  0.00  0.00    -0.646 OA
BRANCH  23  25
HETATM   25  O   UNK N   1      32.481  16.861   2.888  0.00  0.00    -0.773 OA
HETATM   26  H   UNK N   1      33.032  16.942   2.134  0.00  0.00     0.167 HD
ENDBRANCH  23  25
ENDBRANCH   3  23
BRANCH   5  27
HETATM   27  O   UNK N   1      32.961  18.337   8.495  0.00  0.00    -0.285 OA
BRANCH  27  28
HETATM   28  P   UNK N   1      34.523  17.556   8.359  0.00  0.00     0.391 P 
HETATM   29  O   UNK N   1      34.898  19.062   8.396  0.00  0.00    -0.632 OA
BRANCH  28  30
HETATM   30  O   UNK N   1      35.641  17.654   9.682  0.00  0.00    -0.307 OA
HETATM   31  H   UNK N   1      36.380  18.281   9.649  0.00  0.00     0.222 HD
ENDBRANCH  28  30
BRANCH  28  32
HETATM   32  O   UNK N   1      33.752  17.094   9.845  0.00  0.00    -0.307 OA
HETATM   33  H   UNK N   1      34.159  16.422  10.414  0.00  0.00     0.222 HD
ENDBRANCH  28  32
ENDBRANCH  27  28
ENDBRANCH   5  27
TORSDOF 15
ENDMDL
MODEL 5
REMARK VINA RESULT:      -6.2      2.471      6.754
REMARK  15 active torsions:
REMARK  status: ('A' for Active; 'I' for Inactive)
REMARK    1  A    between atoms: C_8  and  C_4 
REMARK    2  A    between atoms: C_5  and  O_22 
REMARK    3  A    between atoms: C_6  and  O_23 
REMARK    4  A    between atoms: C_7  and  O_11 
REMARK    5  A    between atoms: O_13  and  C_8 
REMARK    6  A    between atoms: C_10  and  C_9 
REMARK    7  A    between atoms: O_15  and  C_9 
REMARK    8  A    between atoms: C_10  and  O_22 
REMARK    9  A    between atoms: O_24  and  C_10 
REMARK   10  A    between atoms: P_25  and  O_16 
REMARK   11  A    between atoms: P_25  and  O_17 
REMARK   12  A    between atoms: P_26  and  O_19 
REMARK   13  A    between atoms: P_26  and  O_20 
REMARK   14  A    between atoms: P_25  and  O_23 
REMARK   15  A    between atoms: P_26  and  O_24 
ROOT
HETATM    1  C   UNK N   1      21.234  15.237   2.600  0.00  0.00     0.080 C 
HETATM    2  C   UNK N   1      20.373  17.596   2.659  0.00  0.00     0.022 C 
HETATM    3  C   UNK N   1      20.437  16.407   2.025  0.00  0.00     0.017 C 
HETATM    4  C   UNK N   1      21.839  15.460   4.005  0.00  0.00     0.161 C 
HETATM    5  C   UNK N   1      21.077  17.842   3.972  0.00  0.00     0.188 C 
HETATM    6  C   UNK N   1      22.315  16.934   4.068  0.00  0.00     0.180 C 
ENDROOT
BRANCH   4   7
HETATM    7  O   UNK N   1      20.826  15.103   4.959  0.00  0.00    -0.338 OA
BRANCH   7   8
HETATM    8  C   UNK N   1      21.141  14.085   5.915  0.00  0.00     0.258 C 
HETATM    9  C   UNK N   1      20.786  12.771   5.242  0.00  0.00     0.092 C 
BRANCH   8  10
HETATM   10  C   UNK N   1      22.652  13.987   6.191  0.00  0.00     0.205 C 
HETATM   11  O   UNK N   1      23.296  13.026   5.803  0.00  0.00    -0.646 OA
BRANCH  10  12
HETATM   12  O   UNK N   1      23.265  14.893   6.979  0.00  0.00    -0.772 OA
HETATM   13  H   UNK N   1      24.165  15.107   6.833  0.00  0.00     0.167 HD
ENDBRANCH  10  12
ENDBRANCH   8  10
BRANCH   8  14
HETATM   14  O   UNK N   1      20.236  14.202   7.008  0.00  0.00    -0.249 OA
BRANCH  14  15
HETATM   15  P   UNK N   1      19.598  15.795   7.393  0.00  0.00     0.393 P 
HETATM   16  O   UNK N   1      19.100  15.796   8.864  0.00  0.00    -0.631 OA
BRANCH  15  17
HETATM   17  O   UNK N   1      18.310  16.317   6.354  0.00  0.00    -0.307 OA
HETATM   18  H   UNK N   1      18.081  17.247   6.198  0.00  0.00     0.222 HD
ENDBRANCH  15  17
BRANCH  15  19
HETATM   19  O   UNK N   1      20.892  16.950   7.333  0.00  0.00    -0.307 OA
HETATM   20  H   UNK N   1      21.810  16.659   7.444  0.00  0.00     0.222 HD
ENDBRANCH  15  19
ENDBRANCH  14  15
ENDBRANCH   8  14
ENDBRANCH   7   8
ENDBRANCH   4   7
BRANCH   6  21
HETATM   21  O   UNK N   1      23.060  17.212   5.209  0.00  0.00    -0.390 OA
HETATM   22  H   UNK N   1      23.715  17.926   5.222  0.00  0.00     0.210 HD
ENDBRANCH   6  21
BRANCH   3  23
HETATM   23  C   UNK N   1      19.816  16.271   0.688  0.00  0.00     0.171 C 
HETATM   24  O   UNK N   1      20.200  16.956  -0.248  0.00  0.00    -0.646 OA
BRANCH  23  25
HETATM   25  O   UNK N   1      18.845  15.358   0.484  0.00  0.00    -0.773 OA
HETATM   26  H   UNK N   1      17.928  15.552   0.524  0.00  0.00     0.167 HD
ENDBRANCH  23  25
ENDBRANCH   3  23
BRANCH   5  27
HETATM   27  O   UNK N   1      21.341  19.214   4.210  0.00  0.00    -0.285 OA
BRANCH  27  28
HETATM   28  P   UNK N   1      21.122  20.184   2.768  0.00  0.00     0.391 P 
HETATM   29  O   UNK N   1      20.208  20.898   3.800  0.00  0.00    -0.632 OA
BRANCH  28  30
HETATM   30  O   UNK N   1      21.702  21.819   2.747  0.00  0.00    -0.307 OA
HETATM   31  H   UNK N   1      22.178  22.156   1.972  0.00  0.00     0.222 HD
ENDBRANCH  28  30
BRANCH  28  32
HETATM   32  O   UNK N   1      22.778  20.251   3.288  0.00  0.00    -0.307 OA
HETATM   33  H   UNK N   1      23.122  19.583   3.902  0.00  0.00     0.222 HD
ENDBRANCH  28  32
ENDBRANCH  27  28
ENDBRANCH   5  27
TORSDOF 15
ENDMDL
MODEL 6
REMARK VINA RESULT:      -6.2     14.421     17.079
REMARK  15 active torsions:
REMARK  status: ('A' for Active; 'I' for Inactive)
REMARK    1  A    between atoms: C_8  and  C_4 
REMARK    2  A    between atoms: C_5  and  O_22 
REMARK    3  A    between atoms: C_6  and  O_23 
REMARK    4  A    between atoms: C_7  and  O_11 
REMARK    5  A    between atoms: O_13  and  C_8 
REMARK    6  A    between atoms: C_10  and  C_9 
REMARK    7  A    between atoms: O_15  and  C_9 
REMARK    8  A    between atoms: C_10  and  O_22 
REMARK    9  A    between atoms: O_24  and  C_10 
REMARK   10  A    between atoms: P_25  and  O_16 
REMARK   11  A    between atoms: P_25  and  O_17 
REMARK   12  A    between atoms: P_26  and  O_19 
REMARK   13  A    between atoms: P_26  and  O_20 
REMARK   14  A    between atoms: P_25  and  O_23 
REMARK   15  A    between atoms: P_26  and  O_24 
ROOT
HETATM    1  C   UNK N   1      27.545  27.818  -7.388  0.00  0.00     0.080 C 
HETATM    2  C   UNK N   1      26.942  25.702  -8.600  0.00  0.00     0.022 C 
HETATM    3  C   UNK N   1      27.591  26.885  -8.597  0.00  0.00     0.017 C 
HETATM    4  C   UNK N   1      26.829  27.263  -6.135  0.00  0.00     0.161 C 
HETATM    5  C   UNK N   1      26.138  25.227  -7.414  0.00  0.00     0.188 C 
HETATM    6  C   UNK N   1      25.611  26.443  -6.632  0.00  0.00     0.180 C 
ENDROOT
BRANCH   4   7
HETATM    7  O   UNK N   1      27.805  26.517  -5.391  0.00  0.00    -0.338 OA
BRANCH   7   8
HETATM    8  C   UNK N   1      28.124  26.971  -4.071  0.00  0.00     0.258 C 
HETATM    9  C   UNK N   1      29.326  27.885  -4.235  0.00  0.00     0.092 C 
BRANCH   8  10
HETATM   10  C   UNK N   1      27.026  27.873  -3.480  0.00  0.00     0.205 C 
HETATM   11  O   UNK N   1      27.203  29.074  -3.358  0.00  0.00    -0.646 OA
BRANCH  10  12
HETATM   12  O   UNK N   1      25.903  27.337  -2.963  0.00  0.00    -0.772 OA
HETATM   13  H   UNK N   1      25.070  27.539  -3.342  0.00  0.00     0.167 HD
ENDBRANCH  10  12
ENDBRANCH   8  10
BRANCH   8  14
HETATM   14  O   UNK N   1      28.598  25.860  -3.318  0.00  0.00    -0.249 OA
BRANCH  14  15
HETATM   15  P   UNK N   1      27.864  24.288  -3.603  0.00  0.00     0.393 P 
HETATM   16  O   UNK N   1      28.202  23.351  -2.411  0.00  0.00    -0.631 OA
BRANCH  15  17
HETATM   17  O   UNK N   1      28.356  23.529  -5.083  0.00  0.00    -0.307 OA
HETATM   18  H   UNK N   1      29.133  22.952  -5.166  0.00  0.00     0.222 HD
ENDBRANCH  15  17
BRANCH  15  19
HETATM   19  O   UNK N   1      26.137  24.462  -3.591  0.00  0.00    -0.307 OA
HETATM   20  H   UNK N   1      25.600  24.029  -4.273  0.00  0.00     0.222 HD
ENDBRANCH  15  19
ENDBRANCH  14  15
ENDBRANCH   8  14
ENDBRANCH   7   8
ENDBRANCH   4   7
BRANCH   6  21
HETATM   21  O   UNK N   1      24.766  26.053  -5.599  0.00  0.00    -0.390 OA
HETATM   22  H   UNK N   1      24.940  25.254  -5.079  0.00  0.00     0.210 HD
ENDBRANCH   6  21
BRANCH   3  23
HETATM   23  C   UNK N   1      28.268  27.336  -9.835  0.00  0.00     0.171 C 
HETATM   24  O   UNK N   1      28.953  28.347  -9.834  0.00  0.00    -0.646 OA
BRANCH  23  25
HETATM   25  O   UNK N   1      28.163  26.608 -10.965  0.00  0.00    -0.773 OA
HETATM   26  H   UNK N   1      28.000  26.977 -11.811  0.00  0.00     0.167 HD
ENDBRANCH  23  25
ENDBRANCH   3  23
BRANCH   5  27
HETATM   27  O   UNK N   1      25.140  24.283  -7.764  0.00  0.00    -0.285 OA
BRANCH  27  28
HETATM   28  P   UNK N   1      25.649  22.639  -7.436  0.00  0.00     0.391 P 
HETATM   29  O   UNK N   1      25.361  23.195  -6.015  0.00  0.00    -0.632 OA
BRANCH  28  30
HETATM   30  O   UNK N   1      24.503  21.506  -6.792  0.00  0.00    -0.307 OA
HETATM   31  H   UNK N   1      24.319  20.680  -7.265  0.00  0.00     0.222 HD
ENDBRANCH  28  30
BRANCH  28  32
HETATM   32  O   UNK N   1      24.194  22.636  -8.385  0.00  0.00    -0.307 OA
HETATM   33  H   UNK N   1      23.387  23.047  -8.037  0.00  0.00     0.222 HD
ENDBRANCH  28  32
ENDBRANCH  27  28
ENDBRANCH   5  27
TORSDOF 15
ENDMDL
MODEL 7
REMARK VINA RESULT:      -6.0      9.373     11.338
REMARK  15 active torsions:
REMARK  status: ('A' for Active; 'I' for Inactive)
REMARK    1  A    between atoms: C_8  and  C_4 
REMARK    2  A    between atoms: C_5  and  O_22 
REMARK    3  A    between atoms: C_6  and  O_23 
REMARK    4  A    between atoms: C_7  and  O_11 
REMARK    5  A    between atoms: O_13  and  C_8 
REMARK    6  A    between atoms: C_10  and  C_9 
REMARK    7  A    between atoms: O_15  and  C_9 
REMARK    8  A    between atoms: C_10  and  O_22 
REMARK    9  A    between atoms: O_24  and  C_10 
REMARK   10  A    between atoms: P_25  and  O_16 
REMARK   11  A    between atoms: P_25  and  O_17 
REMARK   12  A    between atoms: P_26  and  O_19 
REMARK   13  A    between atoms: P_26  and  O_20 
REMARK   14  A    between atoms: P_25  and  O_23 
REMARK   15  A    between atoms: P_26  and  O_24 
ROOT
HETATM    1  C   UNK N   1      34.020  16.429   6.691  0.00  0.00     0.080 C 
HETATM    2  C   UNK N   1      32.403  17.561   8.244  0.00  0.00     0.022 C 
HETATM    3  C   UNK N   1      33.671  17.411   7.808  0.00  0.00     0.017 C 
HETATM    4  C   UNK N   1      32.822  15.729   6.010  0.00  0.00     0.161 C 
HETATM    5  C   UNK N   1      31.256  16.775   7.656  0.00  0.00     0.188 C 
HETATM    6  C   UNK N   1      31.778  15.432   7.116  0.00  0.00     0.180 C 
ENDROOT
BRANCH   4   7
HETATM    7  O   UNK N   1      32.370  16.599   4.960  0.00  0.00    -0.338 OA
BRANCH   7   8
HETATM    8  C   UNK N   1      32.021  16.002   3.706  0.00  0.00     0.258 C 
HETATM    9  C   UNK N   1      31.932  17.153   2.719  0.00  0.00     0.092 C 
BRANCH   8  10
HETATM   10  C   UNK N   1      33.141  15.101   3.154  0.00  0.00     0.205 C 
HETATM   11  O   UNK N   1      33.940  15.528   2.337  0.00  0.00    -0.646 OA
BRANCH  10  12
HETATM   12  O   UNK N   1      33.179  13.790   3.461  0.00  0.00    -0.772 OA
HETATM   13  H   UNK N   1      33.759  13.482   4.129  0.00  0.00     0.167 HD
ENDBRANCH  10  12
ENDBRANCH   8  10
BRANCH   8  14
HETATM   14  O   UNK N   1      30.697  15.491   3.806  0.00  0.00    -0.249 OA
BRANCH  14  15
HETATM   15  P   UNK N   1      29.400  16.611   4.201  0.00  0.00     0.393 P 
HETATM   16  O   UNK N   1      28.462  16.750   2.971  0.00  0.00    -0.631 OA
BRANCH  15  17
HETATM   17  O   UNK N   1      29.942  18.186   4.687  0.00  0.00    -0.307 OA
HETATM   18  H   UNK N   1      30.739  18.618   4.339  0.00  0.00     0.222 HD
ENDBRANCH  15  17
BRANCH  15  19
HETATM   19  O   UNK N   1      28.425  15.923   5.462  0.00  0.00    -0.307 OA
HETATM   20  H   UNK N   1      27.489  16.161   5.538  0.00  0.00     0.222 HD
ENDBRANCH  15  19
ENDBRANCH  14  15
ENDBRANCH   8  14
ENDBRANCH   7   8
ENDBRANCH   4   7
BRANCH   6  21
HETATM   21  O   UNK N   1      30.737  14.624   6.673  0.00  0.00    -0.390 OA
HETATM   22  H   UNK N   1      30.650  13.705   6.968  0.00  0.00     0.210 HD
ENDBRANCH   6  21
BRANCH   3  23
HETATM   23  C   UNK N   1      34.760  18.132   8.505  0.00  0.00     0.171 C 
HETATM   24  O   UNK N   1      35.253  19.137   8.015  0.00  0.00    -0.646 OA
BRANCH  23  25
HETATM   25  O   UNK N   1      35.189  17.706   9.710  0.00  0.00    -0.773 OA
HETATM   26  H   UNK N   1      34.662  17.710  10.484  0.00  0.00     0.167 HD
ENDBRANCH  23  25
ENDBRANCH   3  23
BRANCH   5  27
HETATM   27  O   UNK N   1      30.154  16.658   8.539  0.00  0.00    -0.285 OA
BRANCH  27  28
HETATM   28  P   UNK N   1      29.435  18.214   8.899  0.00  0.00     0.391 P 
HETATM   29  O   UNK N   1      28.729  17.812   7.576  0.00  0.00    -0.632 OA
BRANCH  28  30
HETATM   30  O   UNK N   1      27.750  18.298   9.306  0.00  0.00    -0.307 OA
HETATM   31  H   UNK N   1      27.315  17.544   9.733  0.00  0.00     0.222 HD
ENDBRANCH  28  30
BRANCH  28  32
HETATM   32  O   UNK N   1      29.052  17.074  10.153  0.00  0.00    -0.307 OA
HETATM   33  H   UNK N   1      29.408  17.197  11.046  0.00  0.00     0.222 HD
ENDBRANCH  28  32
ENDBRANCH  27  28
ENDBRANCH   5  27
TORSDOF 15
ENDMDL
MODEL 8
REMARK VINA RESULT:      -6.0     11.101     14.251
REMARK  15 active torsions:
REMARK  status: ('A' for Active; 'I' for Inactive)
REMARK    1  A    between atoms: C_8  and  C_4 
REMARK    2  A    between atoms: C_5  and  O_22 
REMARK    3  A    between atoms: C_6  and  O_23 
REMARK    4  A    between atoms: C_7  and  O_11 
REMARK    5  A    between atoms: O_13  and  C_8 
REMARK    6  A    between atoms: C_10  and  C_9 
REMARK    7  A    between atoms: O_15  and  C_9 
REMARK    8  A    between atoms: C_10  and  O_22 
REMARK    9  A    between atoms: O_24  and  C_10 
REMARK   10  A    between atoms: P_25  and  O_16 
REMARK   11  A    between atoms: P_25  and  O_17 
REMARK   12  A    between atoms: P_26  and  O_19 
REMARK   13  A    between atoms: P_26  and  O_20 
REMARK   14  A    between atoms: P_25  and  O_23 
REMARK   15  A    between atoms: P_26  and  O_24 
ROOT
HETATM    1  C   UNK N   1      34.918  15.730   6.531  0.00  0.00     0.080 C 
HETATM    2  C   UNK N   1      32.602  16.702   6.503  0.00  0.00     0.022 C 
HETATM    3  C   UNK N   1      33.627  16.143   5.826  0.00  0.00     0.017 C 
HETATM    4  C   UNK N   1      34.919  15.866   8.071  0.00  0.00     0.161 C 
HETATM    5  C   UNK N   1      32.666  16.949   7.991  0.00  0.00     0.188 C 
HETATM    6  C   UNK N   1      34.130  17.155   8.415  0.00  0.00     0.180 C 
ENDROOT
BRANCH   4   7
HETATM    7  O   UNK N   1      34.365  14.651   8.600  0.00  0.00    -0.338 OA
BRANCH   7   8
HETATM    8  C   UNK N   1      34.988  14.084   9.757  0.00  0.00     0.258 C 
HETATM    9  C   UNK N   1      36.387  14.672   9.795  0.00  0.00     0.092 C 
BRANCH   8  10
HETATM   10  C   UNK N   1      34.331  14.556  11.067  0.00  0.00     0.205 C 
HETATM   11  O   UNK N   1      34.888  14.391  12.140  0.00  0.00    -0.646 OA
BRANCH  10  12
HETATM   12  O   UNK N   1      33.072  15.038  11.068  0.00  0.00    -0.772 OA
HETATM   13  H   UNK N   1      32.371  14.515  11.403  0.00  0.00     0.167 HD
ENDBRANCH  10  12
ENDBRANCH   8  10
BRANCH   8  14
HETATM   14  O   UNK N   1      35.172  12.691   9.530  0.00  0.00    -0.249 OA
BRANCH  14  15
HETATM   15  P   UNK N   1      33.747  11.664   9.457  0.00  0.00     0.393 P 
HETATM   16  O   UNK N   1      33.927  10.633   8.310  0.00  0.00    -0.631 OA
BRANCH  15  17
HETATM   17  O   UNK N   1      32.259  12.525   9.223  0.00  0.00    -0.307 OA
HETATM   18  H   UNK N   1      32.185  13.493   9.222  0.00  0.00     0.222 HD
ENDBRANCH  15  17
BRANCH  15  19
HETATM   19  O   UNK N   1      33.650  10.731  10.918  0.00  0.00    -0.307 OA
HETATM   20  H   UNK N   1      32.815  10.683  11.410  0.00  0.00     0.222 HD
ENDBRANCH  15  19
ENDBRANCH  14  15
ENDBRANCH   8  14
ENDBRANCH   7   8
ENDBRANCH   4   7
BRANCH   6  21
HETATM   21  O   UNK N   1      34.225  17.504   9.758  0.00  0.00    -0.390 OA
HETATM   22  H   UNK N   1      35.085  17.627  10.187  0.00  0.00     0.210 HD
ENDBRANCH   6  21
BRANCH   3  23
HETATM   23  C   UNK N   1      33.540  16.033   4.352  0.00  0.00     0.171 C 
HETATM   24  O   UNK N   1      33.069  16.944   3.688  0.00  0.00    -0.646 OA
BRANCH  23  25
HETATM   25  O   UNK N   1      34.019  14.938   3.727  0.00  0.00    -0.773 OA
HETATM   26  H   UNK N   1      34.305  14.165   4.173  0.00  0.00     0.167 HD
ENDBRANCH  23  25
ENDBRANCH   3  23
BRANCH   5  27
HETATM   27  O   UNK N   1      31.785  17.973   8.420  0.00  0.00    -0.285 OA
BRANCH  27  28
HETATM   28  P   UNK N   1      30.167  17.369   8.710  0.00  0.00     0.391 P 
HETATM   29  O   UNK N   1      31.060  16.244   9.299  0.00  0.00    -0.632 OA
BRANCH  28  30
HETATM   30  O   UNK N   1      29.594  17.221  10.341  0.00  0.00    -0.307 OA
HETATM   31  H   UNK N   1      29.731  17.945  10.971  0.00  0.00     0.222 HD
ENDBRANCH  28  30
BRANCH  28  32
HETATM   32  O   UNK N   1      30.416  18.851   9.581  0.00  0.00    -0.307 OA
HETATM   33  H   UNK N   1      31.316  19.134   9.809  0.00  0.00     0.222 HD
ENDBRANCH  28  32
ENDBRANCH  27  28
ENDBRANCH   5  27
TORSDOF 15
ENDMDL
MODEL 9
REMARK VINA RESULT:      -5.9     13.275     15.508
REMARK  15 active torsions:
REMARK  status: ('A' for Active; 'I' for Inactive)
REMARK    1  A    between atoms: C_8  and  C_4 
REMARK    2  A    between atoms: C_5  and  O_22 
REMARK    3  A    between atoms: C_6  and  O_23 
REMARK    4  A    between atoms: C_7  and  O_11 
REMARK    5  A    between atoms: O_13  and  C_8 
REMARK    6  A    between atoms: C_10  and  C_9 
REMARK    7  A    between atoms: O_15  and  C_9 
REMARK    8  A    between atoms: C_10  and  O_22 
REMARK    9  A    between atoms: O_24  and  C_10 
REMARK   10  A    between atoms: P_25  and  O_16 
REMARK   11  A    between atoms: P_25  and  O_17 
REMARK   12  A    between atoms: P_26  and  O_19 
REMARK   13  A    between atoms: P_26  and  O_20 
REMARK   14  A    between atoms: P_25  and  O_23 
REMARK   15  A    between atoms: P_26  and  O_24 
ROOT
HETATM    1  C   UNK N   1      36.011  12.649   9.024  0.00  0.00     0.080 C 
HETATM    2  C   UNK N   1      36.957  13.451  11.208  0.00  0.00     0.022 C 
HETATM    3  C   UNK N   1      37.077  12.665  10.118  0.00  0.00     0.017 C 
HETATM    4  C   UNK N   1      34.870  13.681   9.179  0.00  0.00     0.161 C 
HETATM    5  C   UNK N   1      35.771  14.362  11.411  0.00  0.00     0.188 C 
HETATM    6  C   UNK N   1      34.544  13.775  10.692  0.00  0.00     0.180 C 
ENDROOT
BRANCH   4   7
HETATM    7  O   UNK N   1      35.324  14.902   8.574  0.00  0.00    -0.338 OA
BRANCH   7   8
HETATM    8  C   UNK N   1      34.653  15.347   7.390  0.00  0.00     0.258 C 
HETATM    9  C   UNK N   1      35.377  14.676   6.236  0.00  0.00     0.092 C 
BRANCH   8  10
HETATM   10  C   UNK N   1      33.209  14.823   7.303  0.00  0.00     0.205 C 
HETATM   11  O   UNK N   1      32.851  14.132   6.363  0.00  0.00    -0.646 OA
BRANCH  10  12
HETATM   12  O   UNK N   1      32.278  15.226   8.190  0.00  0.00    -0.772 OA
HETATM   13  H   UNK N   1      31.402  15.396   7.905  0.00  0.00     0.167 HD
ENDBRANCH  10  12
ENDBRANCH   8  10
BRANCH   8  14
HETATM   14  O   UNK N   1      34.904  16.739   7.231  0.00  0.00    -0.249 OA
BRANCH  14  15
HETATM   15  P   UNK N   1      34.331  17.836   8.480  0.00  0.00     0.393 P 
HETATM   16  O   UNK N   1      35.108  19.176   8.369  0.00  0.00    -0.631 OA
BRANCH  15  17
HETATM   17  O   UNK N   1      34.483  17.219  10.095  0.00  0.00    -0.307 OA
HETATM   18  H   UNK N   1      34.815  16.333  10.309  0.00  0.00     0.222 HD
ENDBRANCH  15  17
BRANCH  15  19
HETATM   19  O   UNK N   1      32.668  18.228   8.167  0.00  0.00    -0.307 OA
HETATM   20  H   UNK N   1      32.291  18.079   7.287  0.00  0.00     0.222 HD
ENDBRANCH  15  19
ENDBRANCH  14  15
ENDBRANCH   8  14
ENDBRANCH   7   8
ENDBRANCH   4   7
BRANCH   6  21
HETATM   21  O   UNK N   1      33.400  14.522  10.951  0.00  0.00    -0.390 OA
HETATM   22  H   UNK N   1      32.782  14.270  11.655  0.00  0.00     0.210 HD
ENDBRANCH   6  21
BRANCH   3  23
HETATM   23  C   UNK N   1      38.210  11.715  10.039  0.00  0.00     0.171 C 
HETATM   24  O   UNK N   1      39.179  11.961   9.336  0.00  0.00    -0.646 OA
BRANCH  23  25
HETATM   25  O   UNK N   1      38.198  10.586  10.776  0.00  0.00    -0.773 OA
HETATM   26  H   UNK N   1      38.313   9.727  10.419  0.00  0.00     0.167 HD
ENDBRANCH  23  25
ENDBRANCH   3  23
BRANCH   5  27
HETATM   27  O   UNK N   1      35.548  14.686  12.773  0.00  0.00    -0.285 OA
BRANCH  27  28
HETATM   28  P   UNK N   1      36.374  13.583  13.853  0.00  0.00     0.391 P 
HETATM   29  O   UNK N   1      36.773  14.973  14.417  0.00  0.00    -0.632 OA
BRANCH  28  30
HETATM   30  O   UNK N   1      35.883  13.493  15.515  0.00  0.00    -0.307 OA
HETATM   31  H   UNK N   1      34.942  13.431  15.741  0.00  0.00     0.222 HD
ENDBRANCH  28  30
BRANCH  28  32
HETATM   32  O   UNK N   1      34.656  13.360  13.971  0.00  0.00    -0.307 OA
HETATM   33  H   UNK N   1      34.117  13.992  14.472  0.00  0.00     0.222 HD
ENDBRANCH  28  32
ENDBRANCH  27  28
ENDBRANCH   5  27
TORSDOF 15
ENDMDL
