MODEL 1
REMARK VINA RESULT:      -5.6      0.000      0.000
REMARK  10 active torsions:
REMARK  status: ('A' for Active; 'I' for Inactive)
REMARK    1  A    between atoms: C_5  and  N_8 
REMARK    2  A    between atoms: C_5  and  C_6 
REMARK    3  A    between atoms: C_5  and  C_7 
REMARK    4  A    between atoms: C_6  and  C_13 
REMARK       I    between atoms: C_7  and  N_14 
REMARK    5  A    between atoms: C_13  and  C_11 
REMARK    6  A    between atoms: C_16  and  C_17 
REMARK    7  A    between atoms: C_17  and  C_18 
REMARK    8  A    between atoms: C_18  and  C_21 
REMARK    9  A    between atoms: C_18  and  N_19 
REMARK   10  A    between atoms: C_21  and  O_20 
ROOT
HETATM    1  N   UNK N   1      33.269  15.068  10.143  0.00  0.00    -0.348 N 
ATOM      2  HN  UNK N   1      32.606  14.294  10.139  1.00  0.00     0.167 HD
HETATM    3  C   UNK N   1      35.014  16.380  10.564  0.00  0.00     0.114 A 
HETATM    4  C   UNK N   1      33.189  16.220   9.451  0.00  0.00     0.081 A 
HETATM    5  N   UNK N   1      34.236  17.040   9.685  0.00  0.00    -0.354 N 
HETATM    6  C   UNK N   1      34.410  15.165  10.837  0.00  0.00     0.028 A 
HETATM    7  H   UNK N   1      34.396  17.930   9.296  0.00  0.00     0.166 HD
ENDROOT
BRANCH   4   8
HETATM    8  C   UNK N   1      32.026  16.573   8.594  0.00  0.00     0.079 C 
BRANCH   8   9
HETATM    9  C   UNK N   1      32.085  15.674   7.373  0.00  0.00     0.051 C 
BRANCH   9  10
HETATM   10  C   UNK N   1      33.324  15.863   6.494  0.00  0.00     0.280 C 
BRANCH  10  11
HETATM   11  N   UNK N   1      34.210  14.699   6.254  0.00  0.00    -0.066 N 
HETATM   12  C   UNK N   1      34.593  14.616   4.852  0.00  0.00     0.272 C 
HETATM   13  C   UNK N   1      35.444  14.776   7.023  0.00  0.00     0.272 C 
HETATM   14  C   UNK N   1      33.526  13.468   6.612  0.00  0.00     0.272 C 
ENDBRANCH  10  11
BRANCH  10  15
HETATM   15  C   UNK N   1      33.696  17.229   5.976  0.00  0.00     0.246 C 
HETATM   16  O   UNK N   1      34.468  17.939   6.601  0.00  0.00    -0.271 OA
HETATM   17  N   UNK N   1      33.142  17.687   4.836  0.00  0.00    -0.368 N 
HETATM   18  H   UNK N   1      32.722  17.224   4.075  0.00  0.00     0.159 HD
HETATM   19  H   UNK N   1      33.163  18.667   4.746  0.00  0.00     0.159 HD
ENDBRANCH  10  15
ENDBRANCH   9  10
ENDBRANCH   8   9
ENDBRANCH   4   8
BRANCH   6  20
HETATM   20  C   UNK N   1      34.883  14.086  11.765  0.00  0.00     0.094 C 
BRANCH  20  21
HETATM   21  C   UNK N   1      36.191  14.389  12.491  0.00  0.00     0.178 C 
BRANCH  21  22
HETATM   22  C   UNK N   1      36.056  14.001  13.936  0.00  0.00     0.163 C 
HETATM   23  O   UNK N   1      35.024  13.481  14.333  0.00  0.00    -0.648 OA
BRANCH  22  24
HETATM   24  O   UNK N   1      37.063  14.224  14.804  0.00  0.00    -0.775 OA
HETATM   25  H   UNK N   1      37.872  14.663  14.633  0.00  0.00     0.167 HD
ENDBRANCH  22  24
ENDBRANCH  21  22
BRANCH  21  26
HETATM   26  N   UNK N   1      37.291  13.665  11.871  0.00  0.00    -0.417 N 
HETATM   27  H   UNK N   1      37.777  13.962  11.025  0.00  0.00     0.150 HD
HETATM   28  H   UNK N   1      37.597  12.799  12.315  0.00  0.00     0.150 HD
ENDBRANCH  21  26
ENDBRANCH  20  21
ENDBRANCH   6  20
TORSDOF 10
ENDMDL
MODEL 2
REMARK VINA RESULT:      -5.6     11.643     13.102
REMARK  10 active torsions:
REMARK  status: ('A' for Active; 'I' for Inactive)
REMARK    1  A    between atoms: C_5  and  N_8 
REMARK    2  A    between atoms: C_5  and  C_6 
REMARK    3  A    between atoms: C_5  and  C_7 
REMARK    4  A    between atoms: C_6  and  C_13 
REMARK       I    between atoms: C_7  and  N_14 
REMARK    5  A    between atoms: C_13  and  C_11 
REMARK    6  A    between atoms: C_16  and  C_17 
REMARK    7  A    between atoms: C_17  and  C_18 
REMARK    8  A    between atoms: C_18  and  C_21 
REMARK    9  A    between atoms: C_18  and  N_19 
REMARK   10  A    between atoms: C_21  and  O_20 
ROOT
HETATM    1  N   UNK N   1      21.655  13.937   9.925  0.00  0.00    -0.348 N 
ATOM      2  HN  UNK N   1      21.816  14.404  10.817  1.00  0.00     0.167 HD
HETATM    3  C   UNK N   1      21.588  12.437   8.285  0.00  0.00     0.114 A 
HETATM    4  C   UNK N   1      21.072  14.447   8.825  0.00  0.00     0.081 A 
HETATM    5  N   UNK N   1      21.016  13.560   7.809  0.00  0.00    -0.354 N 
HETATM    6  C   UNK N   1      21.975  12.681   9.592  0.00  0.00     0.028 A 
HETATM    7  H   UNK N   1      20.637  13.703   6.911  0.00  0.00     0.166 HD
ENDROOT
BRANCH   4   8
HETATM    8  C   UNK N   1      20.624  15.861   8.725  0.00  0.00     0.079 C 
BRANCH   8   9
HETATM    9  C   UNK N   1      19.723  15.956   7.506  0.00  0.00     0.051 C 
BRANCH   9  10
HETATM   10  C   UNK N   1      20.357  16.639   6.291  0.00  0.00     0.280 C 
BRANCH  10  11
HETATM   11  N   UNK N   1      20.052  16.111   4.940  0.00  0.00    -0.066 N 
HETATM   12  C   UNK N   1      19.943  17.192   3.971  0.00  0.00     0.272 C 
HETATM   13  C   UNK N   1      21.089  15.212   4.452  0.00  0.00     0.272 C 
HETATM   14  C   UNK N   1      18.792  15.388   4.958  0.00  0.00     0.272 C 
ENDBRANCH  10  11
BRANCH  10  15
HETATM   15  C   UNK N   1      21.356  17.754   6.473  0.00  0.00     0.246 C 
HETATM   16  O   UNK N   1      21.001  18.836   6.913  0.00  0.00    -0.271 OA
HETATM   17  N   UNK N   1      22.640  17.569   6.110  0.00  0.00    -0.368 N 
HETATM   18  H   UNK N   1      23.178  16.754   5.982  0.00  0.00     0.159 HD
HETATM   19  H   UNK N   1      23.133  18.404   5.942  0.00  0.00     0.159 HD
ENDBRANCH  10  15
ENDBRANCH   9  10
ENDBRANCH   8   9
ENDBRANCH   4   8
BRANCH   6  20
HETATM   20  C   UNK N   1      22.667  11.745  10.538  0.00  0.00     0.094 C 
BRANCH  20  21
HETATM   21  C   UNK N   1      23.584  12.419  11.555  0.00  0.00     0.178 C 
BRANCH  21  22
HETATM   22  C   UNK N   1      23.236  11.932  12.933  0.00  0.00     0.163 C 
HETATM   23  O   UNK N   1      23.876  12.325  13.897  0.00  0.00    -0.648 OA
BRANCH  22  24
HETATM   24  O   UNK N   1      22.224  11.062  13.118  0.00  0.00    -0.775 OA
HETATM   25  H   UNK N   1      21.386  11.068  12.700  0.00  0.00     0.167 HD
ENDBRANCH  22  24
ENDBRANCH  21  22
BRANCH  21  26
HETATM   26  N   UNK N   1      24.977  12.128  11.250  0.00  0.00    -0.417 N 
HETATM   27  H   UNK N   1      25.551  12.661  10.597  0.00  0.00     0.150 HD
HETATM   28  H   UNK N   1      25.409  11.334  11.723  0.00  0.00     0.150 HD
ENDBRANCH  21  26
ENDBRANCH  20  21
ENDBRANCH   6  20
TORSDOF 10
ENDMDL
MODEL 3
REMARK VINA RESULT:      -5.5      3.565      4.586
REMARK  10 active torsions:
REMARK  status: ('A' for Active; 'I' for Inactive)
REMARK    1  A    between atoms: C_5  and  N_8 
REMARK    2  A    between atoms: C_5  and  C_6 
REMARK    3  A    between atoms: C_5  and  C_7 
REMARK    4  A    between atoms: C_6  and  C_13 
REMARK       I    between atoms: C_7  and  N_14 
REMARK    5  A    between atoms: C_13  and  C_11 
REMARK    6  A    between atoms: C_16  and  C_17 
REMARK    7  A    between atoms: C_17  and  C_18 
REMARK    8  A    between atoms: C_18  and  C_21 
REMARK    9  A    between atoms: C_18  and  N_19 
REMARK   10  A    between atoms: C_21  and  O_20 
ROOT
HETATM    1  N   UNK N   1      32.933  16.623   9.028  0.00  0.00    -0.348 N 
ATOM      2  HN  UNK N   1      32.435  15.844   9.456  1.00  0.00     0.167 HD
HETATM    3  C   UNK N   1      34.523  17.972   8.257  0.00  0.00     0.114 A 
HETATM    4  C   UNK N   1      32.404  17.731   8.475  0.00  0.00     0.081 A 
HETATM    5  N   UNK N   1      33.345  18.572   7.997  0.00  0.00    -0.354 N 
HETATM    6  C   UNK N   1      34.256  16.771   8.890  0.00  0.00     0.028 A 
HETATM    7  H   UNK N   1      33.202  19.439   7.552  0.00  0.00     0.166 HD
ENDROOT
BRANCH   4   8
HETATM    8  C   UNK N   1      30.946  18.023   8.478  0.00  0.00     0.079 C 
BRANCH   8   9
HETATM    9  C   UNK N   1      30.315  17.140   7.416  0.00  0.00     0.051 C 
BRANCH   9  10
HETATM   10  C   UNK N   1      28.887  17.529   7.023  0.00  0.00     0.280 C 
BRANCH  10  11
HETATM   11  N   UNK N   1      28.271  16.875   5.845  0.00  0.00    -0.066 N 
HETATM   12  C   UNK N   1      26.849  16.648   6.059  0.00  0.00     0.272 C 
HETATM   13  C   UNK N   1      28.391  17.682   4.639  0.00  0.00     0.272 C 
HETATM   14  C   UNK N   1      28.904  15.590   5.598  0.00  0.00     0.272 C 
ENDBRANCH  10  11
BRANCH  10  15
HETATM   15  C   UNK N   1      28.165  18.633   7.753  0.00  0.00     0.246 C 
HETATM   16  O   UNK N   1      28.079  19.747   7.261  0.00  0.00    -0.271 OA
HETATM   17  N   UNK N   1      27.645  18.401   8.974  0.00  0.00    -0.368 N 
HETATM   18  H   UNK N   1      27.381  17.570   9.432  0.00  0.00     0.159 HD
HETATM   19  H   UNK N   1      27.500  19.215   9.509  0.00  0.00     0.159 HD
ENDBRANCH  10  15
ENDBRANCH   9  10
ENDBRANCH   8   9
ENDBRANCH   4   8
BRANCH   6  20
HETATM   20  C   UNK N   1      35.238  15.754   9.391  0.00  0.00     0.094 C 
BRANCH  20  21
HETATM   21  C   UNK N   1      35.481  15.779  10.897  0.00  0.00     0.178 C 
BRANCH  21  22
HETATM   22  C   UNK N   1      34.542  14.817  11.566  0.00  0.00     0.163 C 
HETATM   23  O   UNK N   1      34.958  14.064  12.434  0.00  0.00    -0.648 OA
BRANCH  22  24
HETATM   24  O   UNK N   1      33.241  14.772  11.216  0.00  0.00    -0.775 OA
HETATM   25  H   UNK N   1      32.810  15.290  10.567  0.00  0.00     0.167 HD
ENDBRANCH  22  24
ENDBRANCH  21  22
BRANCH  21  26
HETATM   26  N   UNK N   1      36.863  15.428  11.191  0.00  0.00    -0.417 N 
HETATM   27  H   UNK N   1      37.357  15.685  12.046  0.00  0.00     0.150 HD
HETATM   28  H   UNK N   1      37.373  14.888  10.492  0.00  0.00     0.150 HD
ENDBRANCH  21  26
ENDBRANCH  20  21
ENDBRANCH   6  20
TORSDOF 10
ENDMDL
MODEL 4
REMARK VINA RESULT:      -5.4      3.007      6.845
REMARK  10 active torsions:
REMARK  status: ('A' for Active; 'I' for Inactive)
REMARK    1  A    between atoms: C_5  and  N_8 
REMARK    2  A    between atoms: C_5  and  C_6 
REMARK    3  A    between atoms: C_5  and  C_7 
REMARK    4  A    between atoms: C_6  and  C_13 
REMARK       I    between atoms: C_7  and  N_14 
REMARK    5  A    between atoms: C_13  and  C_11 
REMARK    6  A    between atoms: C_16  and  C_17 
REMARK    7  A    between atoms: C_17  and  C_18 
REMARK    8  A    between atoms: C_18  and  C_21 
REMARK    9  A    between atoms: C_18  and  N_19 
REMARK   10  A    between atoms: C_21  and  O_20 
ROOT
HETATM    1  N   UNK N   1      32.771  16.461   9.382  0.00  0.00    -0.348 N 
ATOM      2  HN  UNK N   1      32.391  15.656   9.878  1.00  0.00     0.167 HD
HETATM    3  C   UNK N   1      32.996  18.266   8.104  0.00  0.00     0.114 A 
HETATM    4  C   UNK N   1      34.044  16.898   9.379  0.00  0.00     0.081 A 
HETATM    5  N   UNK N   1      34.214  17.996   8.611  0.00  0.00    -0.354 N 
HETATM    6  C   UNK N   1      32.114  17.315   8.588  0.00  0.00     0.028 A 
HETATM    7  H   UNK N   1      35.050  18.493   8.456  0.00  0.00     0.166 HD
ENDROOT
BRANCH   4   8
HETATM    8  C   UNK N   1      35.147  16.190  10.080  0.00  0.00     0.079 C 
BRANCH   8   9
HETATM    9  C   UNK N   1      34.559  14.917  10.662  0.00  0.00     0.051 C 
BRANCH   9  10
HETATM   10  C   UNK N   1      35.558  14.031  11.410  0.00  0.00     0.280 C 
BRANCH  10  11
HETATM   11  N   UNK N   1      36.366  13.060  10.635  0.00  0.00    -0.066 N 
HETATM   12  C   UNK N   1      35.718  12.730   9.374  0.00  0.00     0.272 C 
HETATM   13  C   UNK N   1      37.687  13.579  10.306  0.00  0.00     0.272 C 
HETATM   14  C   UNK N   1      36.535  11.832  11.394  0.00  0.00     0.272 C 
ENDBRANCH  10  11
BRANCH  10  15
HETATM   15  C   UNK N   1      35.638  14.068  12.915  0.00  0.00     0.246 C 
HETATM   16  O   UNK N   1      34.785  13.518  13.594  0.00  0.00    -0.271 OA
HETATM   17  N   UNK N   1      36.636  14.745  13.517  0.00  0.00    -0.368 N 
HETATM   18  H   UNK N   1      37.524  15.029  13.201  0.00  0.00     0.159 HD
HETATM   19  H   UNK N   1      36.441  15.002  14.447  0.00  0.00     0.159 HD
ENDBRANCH  10  15
ENDBRANCH   9  10
ENDBRANCH   8   9
ENDBRANCH   4   8
BRANCH   6  20
HETATM   20  C   UNK N   1      30.649  17.184   8.298  0.00  0.00     0.094 C 
BRANCH  20  21
HETATM   21  C   UNK N   1      29.798  18.377   8.723  0.00  0.00     0.178 C 
BRANCH  21  22
HETATM   22  C   UNK N   1      28.363  18.114   8.364  0.00  0.00     0.163 C 
HETATM   23  O   UNK N   1      28.042  17.983   7.192  0.00  0.00    -0.648 OA
BRANCH  22  24
HETATM   24  O   UNK N   1      27.421  18.024   9.324  0.00  0.00    -0.775 OA
HETATM   25  H   UNK N   1      27.135  17.251   9.768  0.00  0.00     0.167 HD
ENDBRANCH  22  24
ENDBRANCH  21  22
BRANCH  21  26
HETATM   26  N   UNK N   1      29.929  18.607  10.154  0.00  0.00    -0.417 N 
HETATM   27  H   UNK N   1      29.149  18.644  10.809  0.00  0.00     0.150 HD
HETATM   28  H   UNK N   1      30.869  18.742  10.526  0.00  0.00     0.150 HD
ENDBRANCH  21  26
ENDBRANCH  20  21
ENDBRANCH   6  20
TORSDOF 10
ENDMDL
MODEL 5
REMARK VINA RESULT:      -5.4      2.645      7.358
REMARK  10 active torsions:
REMARK  status: ('A' for Active; 'I' for Inactive)
REMARK    1  A    between atoms: C_5  and  N_8 
REMARK    2  A    between atoms: C_5  and  C_6 
REMARK    3  A    between atoms: C_5  and  C_7 
REMARK    4  A    between atoms: C_6  and  C_13 
REMARK       I    between atoms: C_7  and  N_14 
REMARK    5  A    between atoms: C_13  and  C_11 
REMARK    6  A    between atoms: C_16  and  C_17 
REMARK    7  A    between atoms: C_17  and  C_18 
REMARK    8  A    between atoms: C_18  and  C_21 
REMARK    9  A    between atoms: C_18  and  N_19 
REMARK   10  A    between atoms: C_21  and  O_20 
ROOT
HETATM    1  N   UNK N   1      35.127  15.239  11.195  0.00  0.00    -0.348 N 
ATOM      2  HN  UNK N   1      34.247  15.581  11.580  1.00  0.00     0.167 HD
HETATM    3  C   UNK N   1      36.788  14.709   9.816  0.00  0.00     0.114 A 
HETATM    4  C   UNK N   1      36.136  14.644  11.858  0.00  0.00     0.081 A 
HETATM    5  N   UNK N   1      37.162  14.309  11.047  0.00  0.00    -0.354 N 
HETATM    6  C   UNK N   1      35.533  15.283   9.920  0.00  0.00     0.028 A 
HETATM    7  H   UNK N   1      38.005  13.868  11.301  0.00  0.00     0.166 HD
ENDROOT
BRANCH   4   8
HETATM    8  C   UNK N   1      36.076  14.319  13.307  0.00  0.00     0.079 C 
BRANCH   8   9
HETATM    9  C   UNK N   1      35.083  13.182  13.466  0.00  0.00     0.051 C 
BRANCH   9  10
HETATM   10  C   UNK N   1      35.701  11.781  13.436  0.00  0.00     0.280 C 
BRANCH  10  11
HETATM   11  N   UNK N   1      34.824  10.611  13.677  0.00  0.00    -0.066 N 
HETATM   12  C   UNK N   1      35.591   9.478  14.173  0.00  0.00     0.272 C 
HETATM   13  C   UNK N   1      33.795  10.889  14.670  0.00  0.00     0.272 C 
HETATM   14  C   UNK N   1      34.171  10.213  12.442  0.00  0.00     0.272 C 
ENDBRANCH  10  11
BRANCH  10  15
HETATM   15  C   UNK N   1      37.190  11.603  13.273  0.00  0.00     0.246 C 
HETATM   16  O   UNK N   1      37.664  11.330  12.181  0.00  0.00    -0.271 OA
HETATM   17  N   UNK N   1      37.998  11.707  14.345  0.00  0.00    -0.368 N 
HETATM   18  H   UNK N   1      37.882  12.146  15.219  0.00  0.00     0.159 HD
HETATM   19  H   UNK N   1      38.870  11.261  14.235  0.00  0.00     0.159 HD
ENDBRANCH  10  15
ENDBRANCH   9  10
ENDBRANCH   8   9
ENDBRANCH   4   8
BRANCH   6  20
HETATM   20  C   UNK N   1      34.690  15.863   8.824  0.00  0.00     0.094 C 
BRANCH  20  21
HETATM   21  C   UNK N   1      34.102  17.240   9.122  0.00  0.00     0.178 C 
BRANCH  21  22
HETATM   22  C   UNK N   1      34.654  18.236   8.142  0.00  0.00     0.163 C 
HETATM   23  O   UNK N   1      35.281  19.204   8.545  0.00  0.00    -0.648 OA
BRANCH  22  24
HETATM   24  O   UNK N   1      34.461  18.075   6.818  0.00  0.00    -0.775 OA
HETATM   25  H   UNK N   1      34.023  18.660   6.233  0.00  0.00     0.167 HD
ENDBRANCH  22  24
ENDBRANCH  21  22
BRANCH  21  26
HETATM   26  N   UNK N   1      32.650  17.197   9.041  0.00  0.00    -0.417 N 
HETATM   27  H   UNK N   1      32.116  16.452   8.593  0.00  0.00     0.150 HD
HETATM   28  H   UNK N   1      32.130  17.968   9.460  0.00  0.00     0.150 HD
ENDBRANCH  21  26
ENDBRANCH  20  21
ENDBRANCH   6  20
TORSDOF 10
ENDMDL
MODEL 6
REMARK VINA RESULT:      -5.3      1.786      6.852
REMARK  10 active torsions:
REMARK  status: ('A' for Active; 'I' for Inactive)
REMARK    1  A    between atoms: C_5  and  N_8 
REMARK    2  A    between atoms: C_5  and  C_6 
REMARK    3  A    between atoms: C_5  and  C_7 
REMARK    4  A    between atoms: C_6  and  C_13 
REMARK       I    between atoms: C_7  and  N_14 
REMARK    5  A    between atoms: C_13  and  C_11 
REMARK    6  A    between atoms: C_16  and  C_17 
REMARK    7  A    between atoms: C_17  and  C_18 
REMARK    8  A    between atoms: C_18  and  C_21 
REMARK    9  A    between atoms: C_18  and  N_19 
REMARK   10  A    between atoms: C_21  and  O_20 
ROOT
HETATM    1  N   UNK N   1      34.112  16.042   8.724  0.00  0.00    -0.348 N 
ATOM      2  HN  UNK N   1      34.752  16.536   8.103  1.00  0.00     0.167 HD
HETATM    3  C   UNK N   1      32.363  14.947   9.552  0.00  0.00     0.114 A 
HETATM    4  C   UNK N   1      34.289  15.760  10.028  0.00  0.00     0.081 A 
HETATM    5  N   UNK N   1      33.243  15.094  10.561  0.00  0.00    -0.354 N 
HETATM    6  C   UNK N   1      32.911  15.533   8.424  0.00  0.00     0.028 A 
HETATM    7  H   UNK N   1      33.144  14.781  11.490  0.00  0.00     0.166 HD
ENDROOT
BRANCH   4   8
HETATM    8  C   UNK N   1      35.472  16.215  10.804  0.00  0.00     0.079 C 
BRANCH   8   9
HETATM    9  C   UNK N   1      36.588  15.221  10.535  0.00  0.00     0.051 C 
BRANCH   9  10
HETATM   10  C   UNK N   1      36.659  14.051  11.520  0.00  0.00     0.280 C 
BRANCH  10  11
HETATM   11  N   UNK N   1      37.288  12.785  11.078  0.00  0.00    -0.066 N 
HETATM   12  C   UNK N   1      37.554  11.911  12.211  0.00  0.00     0.272 C 
HETATM   13  C   UNK N   1      36.440  12.038  10.160  0.00  0.00     0.272 C 
HETATM   14  C   UNK N   1      38.550  13.060  10.411  0.00  0.00     0.272 C 
ENDBRANCH  10  11
BRANCH  10  15
HETATM   15  C   UNK N   1      36.002  14.150  12.875  0.00  0.00     0.246 C 
HETATM   16  O   UNK N   1      34.860  13.752  13.038  0.00  0.00    -0.271 OA
HETATM   17  N   UNK N   1      36.666  14.715  13.901  0.00  0.00    -0.368 N 
HETATM   18  H   UNK N   1      37.626  14.862  14.065  0.00  0.00     0.159 HD
HETATM   19  H   UNK N   1      36.083  15.041  14.625  0.00  0.00     0.159 HD
ENDBRANCH  10  15
ENDBRANCH   9  10
ENDBRANCH   8   9
ENDBRANCH   4   8
BRANCH   6  20
HETATM   20  C   UNK N   1      32.308  15.640   7.055  0.00  0.00     0.094 C 
BRANCH  20  21
HETATM   21  C   UNK N   1      32.037  17.065   6.579  0.00  0.00     0.178 C 
BRANCH  21  22
HETATM   22  C   UNK N   1      33.183  17.527   5.724  0.00  0.00     0.163 C 
HETATM   23  O   UNK N   1      33.061  17.560   4.508  0.00  0.00    -0.648 OA
BRANCH  22  24
HETATM   24  O   UNK N   1      34.349  17.904   6.285  0.00  0.00    -0.775 OA
HETATM   25  H   UNK N   1      34.503  18.122   7.182  0.00  0.00     0.167 HD
ENDBRANCH  22  24
ENDBRANCH  21  22
BRANCH  21  26
HETATM   26  N   UNK N   1      30.790  17.118   5.829  0.00  0.00    -0.417 N 
HETATM   27  H   UNK N   1      29.995  16.499   5.984  0.00  0.00     0.150 HD
HETATM   28  H   UNK N   1      30.708  17.824   5.098  0.00  0.00     0.150 HD
ENDBRANCH  21  26
ENDBRANCH  20  21
ENDBRANCH   6  20
TORSDOF 10
ENDMDL
MODEL 7
REMARK VINA RESULT:      -5.3      3.138      6.619
REMARK  10 active torsions:
REMARK  status: ('A' for Active; 'I' for Inactive)
REMARK    1  A    between atoms: C_5  and  N_8 
REMARK    2  A    between atoms: C_5  and  C_6 
REMARK    3  A    between atoms: C_5  and  C_7 
REMARK    4  A    between atoms: C_6  and  C_13 
REMARK       I    between atoms: C_7  and  N_14 
REMARK    5  A    between atoms: C_13  and  C_11 
REMARK    6  A    between atoms: C_16  and  C_17 
REMARK    7  A    between atoms: C_17  and  C_18 
REMARK    8  A    between atoms: C_18  and  C_21 
REMARK    9  A    between atoms: C_18  and  N_19 
REMARK   10  A    between atoms: C_21  and  O_20 
ROOT
HETATM    1  N   UNK N   1      32.898  16.474   9.333  0.00  0.00    -0.348 N 
ATOM      2  HN  UNK N   1      32.550  15.664   9.846  1.00  0.00     0.167 HD
HETATM    3  C   UNK N   1      33.056  18.256   8.014  0.00  0.00     0.114 A 
HETATM    4  C   UNK N   1      34.149  16.970   9.335  0.00  0.00     0.081 A 
HETATM    5  N   UNK N   1      34.278  18.055   8.542  0.00  0.00    -0.354 N 
HETATM    6  C   UNK N   1      32.213  17.277   8.511  0.00  0.00     0.028 A 
HETATM    7  H   UNK N   1      35.092  18.586   8.384  0.00  0.00     0.166 HD
ENDROOT
BRANCH   4   8
HETATM    8  C   UNK N   1      35.275  16.331  10.066  0.00  0.00     0.079 C 
BRANCH   8   9
HETATM    9  C   UNK N   1      34.663  15.427  11.121  0.00  0.00     0.051 C 
BRANCH   9  10
HETATM   10  C   UNK N   1      34.950  13.935  10.932  0.00  0.00     0.280 C 
BRANCH  10  11
HETATM   11  N   UNK N   1      35.754  13.229  11.958  0.00  0.00    -0.066 N 
HETATM   12  C   UNK N   1      35.646  13.890  13.250  0.00  0.00     0.272 C 
HETATM   13  C   UNK N   1      35.319  11.853  12.151  0.00  0.00     0.272 C 
HETATM   14  C   UNK N   1      37.155  13.214  11.571  0.00  0.00     0.272 C 
ENDBRANCH  10  11
BRANCH  10  15
HETATM   15  C   UNK N   1      34.517  13.224   9.674  0.00  0.00     0.246 C 
HETATM   16  O   UNK N   1      35.328  12.968   8.798  0.00  0.00    -0.271 OA
HETATM   17  N   UNK N   1      33.221  12.904   9.498  0.00  0.00    -0.368 N 
HETATM   18  H   UNK N   1      32.478  12.784  10.133  0.00  0.00     0.159 HD
HETATM   19  H   UNK N   1      32.968  12.761   8.557  0.00  0.00     0.159 HD
ENDBRANCH  10  15
ENDBRANCH   9  10
ENDBRANCH   8   9
ENDBRANCH   4   8
BRANCH   6  20
HETATM   20  C   UNK N   1      30.759  17.070   8.207  0.00  0.00     0.094 C 
BRANCH  20  21
HETATM   21  C   UNK N   1      29.840  18.209   8.643  0.00  0.00     0.178 C 
BRANCH  21  22
HETATM   22  C   UNK N   1      28.411  17.806   8.415  0.00  0.00     0.163 C 
HETATM   23  O   UNK N   1      28.107  17.184   7.409  0.00  0.00    -0.648 OA
BRANCH  22  24
HETATM   24  O   UNK N   1      27.457  18.128   9.311  0.00  0.00    -0.775 OA
HETATM   25  H   UNK N   1      27.533  18.716  10.035  0.00  0.00     0.167 HD
ENDBRANCH  22  24
ENDBRANCH  21  22
BRANCH  21  26
HETATM   26  N   UNK N   1      30.062  18.526  10.046  0.00  0.00    -0.417 N 
HETATM   27  H   UNK N   1      30.955  18.429  10.529  0.00  0.00     0.150 HD
HETATM   28  H   UNK N   1      29.266  18.871  10.584  0.00  0.00     0.150 HD
ENDBRANCH  21  26
ENDBRANCH  20  21
ENDBRANCH   6  20
TORSDOF 10
ENDMDL
MODEL 8
REMARK VINA RESULT:      -5.3      5.480      7.319
REMARK  10 active torsions:
REMARK  status: ('A' for Active; 'I' for Inactive)
REMARK    1  A    between atoms: C_5  and  N_8 
REMARK    2  A    between atoms: C_5  and  C_6 
REMARK    3  A    between atoms: C_5  and  C_7 
REMARK    4  A    between atoms: C_6  and  C_13 
REMARK       I    between atoms: C_7  and  N_14 
REMARK    5  A    between atoms: C_13  and  C_11 
REMARK    6  A    between atoms: C_16  and  C_17 
REMARK    7  A    between atoms: C_17  and  C_18 
REMARK    8  A    between atoms: C_18  and  C_21 
REMARK    9  A    between atoms: C_18  and  N_19 
REMARK   10  A    between atoms: C_21  and  O_20 
ROOT
HETATM    1  N   UNK N   1      30.287  17.127   7.357  0.00  0.00    -0.348 N 
ATOM      2  HN  UNK N   1      30.554  16.430   6.663  1.00  0.00     0.167 HD
HETATM    3  C   UNK N   1      30.304  18.555   9.061  0.00  0.00     0.114 A 
HETATM    4  C   UNK N   1      29.094  17.734   7.493  0.00  0.00     0.081 A 
HETATM    5  N   UNK N   1      29.071  18.609   8.521  0.00  0.00    -0.354 N 
HETATM    6  C   UNK N   1      31.046  17.640   8.333  0.00  0.00     0.028 A 
HETATM    7  H   UNK N   1      28.316  19.168   8.814  0.00  0.00     0.166 HD
ENDROOT
BRANCH   4   8
HETATM    8  C   UNK N   1      27.914  17.404   6.652  0.00  0.00     0.079 C 
BRANCH   8   9
HETATM    9  C   UNK N   1      27.977  18.299   5.427  0.00  0.00     0.051 C 
BRANCH   9  10
HETATM   10  C   UNK N   1      26.820  19.293   5.298  0.00  0.00     0.280 C 
BRANCH  10  11
HETATM   11  N   UNK N   1      25.777  19.041   4.275  0.00  0.00    -0.066 N 
HETATM   12  C   UNK N   1      25.684  20.152   3.340  0.00  0.00     0.272 C 
HETATM   13  C   UNK N   1      26.053  17.848   3.487  0.00  0.00     0.272 C 
HETATM   14  C   UNK N   1      24.481  18.876   4.914  0.00  0.00     0.272 C 
ENDBRANCH  10  11
BRANCH  10  15
HETATM   15  C   UNK N   1      26.801  20.559   6.117  0.00  0.00     0.246 C 
HETATM   16  O   UNK N   1      27.382  21.558   5.724  0.00  0.00    -0.271 OA
HETATM   17  N   UNK N   1      26.173  20.576   7.309  0.00  0.00    -0.368 N 
HETATM   18  H   UNK N   1      25.464  20.009   7.689  0.00  0.00     0.159 HD
HETATM   19  H   UNK N   1      26.479  21.291   7.913  0.00  0.00     0.159 HD
ENDBRANCH  10  15
ENDBRANCH   9  10
ENDBRANCH   8   9
ENDBRANCH   4   8
BRANCH   6  20
HETATM   20  C   UNK N   1      32.468  17.220   8.555  0.00  0.00     0.094 C 
BRANCH  20  21
HETATM   21  C   UNK N   1      33.506  18.024   7.776  0.00  0.00     0.178 C 
BRANCH  21  22
HETATM   22  C   UNK N   1      34.713  18.245   8.644  0.00  0.00     0.163 C 
HETATM   23  O   UNK N   1      35.035  17.400   9.465  0.00  0.00    -0.648 OA
BRANCH  22  24
HETATM   24  O   UNK N   1      35.445  19.371   8.528  0.00  0.00    -0.775 OA
HETATM   25  H   UNK N   1      35.347  20.164   9.016  0.00  0.00     0.167 HD
ENDBRANCH  22  24
ENDBRANCH  21  22
BRANCH  21  26
HETATM   26  N   UNK N   1      33.879  17.321   6.558  0.00  0.00    -0.417 N 
HETATM   27  H   UNK N   1      33.482  16.431   6.258  0.00  0.00     0.150 HD
HETATM   28  H   UNK N   1      34.587  17.750   5.962  0.00  0.00     0.150 HD
ENDBRANCH  21  26
ENDBRANCH  20  21
ENDBRANCH   6  20
TORSDOF 10
ENDMDL
MODEL 9
REMARK VINA RESULT:      -5.3      1.872      2.787
REMARK  10 active torsions:
REMARK  status: ('A' for Active; 'I' for Inactive)
REMARK    1  A    between atoms: C_5  and  N_8 
REMARK    2  A    between atoms: C_5  and  C_6 
REMARK    3  A    between atoms: C_5  and  C_7 
REMARK    4  A    between atoms: C_6  and  C_13 
REMARK       I    between atoms: C_7  and  N_14 
REMARK    5  A    between atoms: C_13  and  C_11 
REMARK    6  A    between atoms: C_16  and  C_17 
REMARK    7  A    between atoms: C_17  and  C_18 
REMARK    8  A    between atoms: C_18  and  C_21 
REMARK    9  A    between atoms: C_18  and  N_19 
REMARK   10  A    between atoms: C_21  and  O_20 
ROOT
HETATM    1  N   UNK N   1      34.690  15.163   9.298  0.00  0.00    -0.348 N 
ATOM      2  HN  UNK N   1      34.515  14.243   8.896  1.00  0.00     0.167 HD
HETATM    3  C   UNK N   1      35.125  16.828  10.705  0.00  0.00     0.114 A 
HETATM    4  C   UNK N   1      34.706  16.347   8.658  0.00  0.00     0.081 A 
HETATM    5  N   UNK N   1      34.968  17.381   9.487  0.00  0.00    -0.354 N 
HETATM    6  C   UNK N   1      34.953  15.461  10.576  0.00  0.00     0.028 A 
HETATM    7  H   UNK N   1      35.032  18.335   9.250  0.00  0.00     0.166 HD
ENDROOT
BRANCH   4   8
HETATM    8  C   UNK N   1      34.383  16.495   7.215  0.00  0.00     0.079 C 
BRANCH   8   9
HETATM    9  C   UNK N   1      33.410  17.654   7.094  0.00  0.00     0.051 C 
BRANCH   9  10
HETATM   10  C   UNK N   1      31.937  17.278   7.279  0.00  0.00     0.280 C 
BRANCH  10  11
HETATM   11  N   UNK N   1      31.162  16.834   6.097  0.00  0.00    -0.066 N 
HETATM   12  C   UNK N   1      31.750  17.344   4.866  0.00  0.00     0.272 C 
HETATM   13  C   UNK N   1      31.122  15.384   5.975  0.00  0.00     0.272 C 
HETATM   14  C   UNK N   1      29.796  17.323   6.183  0.00  0.00     0.272 C 
ENDBRANCH  10  11
BRANCH  10  15
HETATM   15  C   UNK N   1      31.261  17.460   8.615  0.00  0.00     0.246 C 
HETATM   16  O   UNK N   1      30.842  18.557   8.951  0.00  0.00    -0.271 OA
HETATM   17  N   UNK N   1      31.154  16.417   9.460  0.00  0.00    -0.368 N 
HETATM   18  H   UNK N   1      31.183  15.444   9.313  0.00  0.00     0.159 HD
HETATM   19  H   UNK N   1      31.020  16.675  10.401  0.00  0.00     0.159 HD
ENDBRANCH  10  15
ENDBRANCH   9  10
ENDBRANCH   8   9
ENDBRANCH   4   8
BRANCH   6  20
HETATM   20  C   UNK N   1      35.016  14.418  11.651  0.00  0.00     0.094 C 
BRANCH  20  21
HETATM   21  C   UNK N   1      36.308  14.406  12.464  0.00  0.00     0.178 C 
BRANCH  21  22
HETATM   22  C   UNK N   1      36.048  13.762  13.796  0.00  0.00     0.163 C 
HETATM   23  O   UNK N   1      34.906  13.479  14.123  0.00  0.00    -0.648 OA
BRANCH  22  24
HETATM   24  O   UNK N   1      37.066  13.495  14.639  0.00  0.00    -0.775 OA
HETATM   25  H   UNK N   1      37.088  13.638  15.565  0.00  0.00     0.167 HD
ENDBRANCH  22  24
ENDBRANCH  21  22
BRANCH  21  26
HETATM   26  N   UNK N   1      37.349  13.686  11.746  0.00  0.00    -0.417 N 
HETATM   27  H   UNK N   1      37.437  12.670  11.717  0.00  0.00     0.150 HD
HETATM   28  H   UNK N   1      38.040  14.237  11.236  0.00  0.00     0.150 HD
ENDBRANCH  21  26
ENDBRANCH  20  21
ENDBRANCH   6  20
TORSDOF 10
ENDMDL
