MODEL 1
REMARK VINA RESULT:      -6.4      0.000      0.000
REMARK WARNING: 32 MAX_TORS EXCEEDED!!!
REMARK  40 active torsions:
REMARK  status: ('A' for Active; 'I' for Inactive)
REMARK    1  A    between atoms: C_5  and  C_4 
REMARK    2  A    between atoms: C_6  and  C_5 
REMARK    3  A    between atoms: C_7  and  C_6 
REMARK    4  A    between atoms: C_8  and  C_7 
REMARK    5  A    between atoms: C_9  and  C_8 
REMARK    6  A    between atoms: C_19  and  C_9 
REMARK    7  A    between atoms: C_11  and  C_10 
REMARK    8  A    between atoms: C_21  and  C_10 
REMARK    9  A    between atoms: N_35  and  C_11 
REMARK   10  A    between atoms: C_13  and  C_12 
REMARK   11  A    between atoms: N_33  and  C_12 
REMARK   12  A    between atoms: S_65  and  C_13 
REMARK   13  A    between atoms: C_19  and  C_14 
REMARK   14  A    between atoms: C_22  and  C_14 
REMARK   15  A    between atoms: C_20  and  C_15 
REMARK   16  A    between atoms: O_57  and  C_15 
REMARK   17  A    between atoms: C_31  and  C_16 
REMARK   18  A    between atoms: O_58  and  C_16 
REMARK   19  A    between atoms: C_19  and  O_44 
REMARK   20  A    between atoms: N_33  and  C_21 
REMARK   21  A    between atoms: O_45  and  C_21 
REMARK   22  A    between atoms: S_65  and  C_22 
REMARK   23  A    between atoms: C_24  and  O_47 
REMARK   24  A    between atoms: C_25  and  O_60 
REMARK   25  A    between atoms: C_29  and  C_26 
REMARK   26  A    between atoms: C_31  and  C_26 
REMARK   27  A    between atoms: C_26  and  O_48 
REMARK   28  A    between atoms: N_32  and  C_27 
REMARK   29  A    between atoms: N_35  and  C_29 
REMARK   30  A    between atoms: O_49  and  C_29 
REMARK   31  A    between atoms: C_30  and  N_43 
REMARK   32  A    between atoms: P_62  and  O_50 
REMARK   33  A    between atoms: P_62  and  O_51 
REMARK   34  A    between atoms: P_63  and  O_53 
REMARK   35  A    between atoms: P_64  and  O_55 
REMARK   36  A    between atoms: P_63  and  O_57 
REMARK   37  A    between atoms: P_64  and  O_58 
REMARK   38  A    between atoms: P_62  and  O_60 
REMARK   39  A    between atoms: P_63  and  O_61 
REMARK   40  A    between atoms: P_64  and  O_61 
ROOT
HETATM    1  O   UNK N   1      19.151  17.493   8.820  0.00  0.00    -0.631 OA
HETATM    2  P   UNK N   1      19.918  16.319   8.146  0.00  0.00     0.401 P 
ENDROOT
BRANCH   2   3
HETATM    3  O   UNK N   1      18.596  15.688   9.066  0.00  0.00    -0.307 OA
HETATM    4  H   UNK N   1      17.972  15.017   8.750  0.00  0.00     0.222 HD
ENDBRANCH   2   3
BRANCH   2   5
HETATM    5  O   UNK N   1      19.959  14.677   8.677  0.00  0.00    -0.296 OA
BRANCH   5   6
HETATM    6  C   UNK N   1      21.131  14.562   9.406  0.00  0.00     0.192 C 
BRANCH   6   7
HETATM    7  C   UNK N   1      21.913  13.343   8.938  0.00  0.00     0.008 C 
HETATM    8  C   UNK N   1      21.895  12.307  10.053  0.00  0.00     0.020 C 
HETATM    9  C   UNK N   1      21.162  12.770   7.751  0.00  0.00     0.020 C 
BRANCH   7  10
HETATM   10  C   UNK N   1      23.392  13.676   8.573  0.00  0.00     0.202 C 
BRANCH  10  11
HETATM   11  C   UNK N   1      23.652  14.132   7.152  0.00  0.00     0.141 C 
BRANCH  11  12
HETATM   12  N   UNK N   1      24.249  13.369   6.301  0.00  0.00    -0.372 N 
ATOM     13  HN  UNK N   1      25.191  13.037   6.510  1.00  0.00     0.161 HD
BRANCH  12  14
HETATM   14  C   UNK N   1      23.624  12.968   5.063  0.00  0.00     0.129 C 
BRANCH  14  15
HETATM   15  C   UNK N   1      24.612  13.122   3.912  0.00  0.00     0.103 C 
BRANCH  15  16
HETATM   16  C   UNK N   1      24.667  14.517   3.358  0.00  0.00     0.112 C 
BRANCH  16  17
HETATM   17  N   UNK N   1      25.330  14.765   2.278  0.00  0.00    -0.374 N 
ATOM     18  HN  UNK N   1      24.971  14.396   1.397  1.00  0.00     0.161 HD
BRANCH  17  19
HETATM   19  C   UNK N   1      26.552  15.537   2.246  0.00  0.00     0.132 C 
BRANCH  19  20
HETATM   20  C   UNK N   1      27.591  14.999   3.202  0.00  0.00     0.102 C 
BRANCH  20  21
HETATM   21  S   UNK N   1      29.137  15.857   2.819  0.00  0.00    -0.091 SA
BRANCH  21  22
HETATM   22  C   UNK N   1      30.119  14.388   3.078  0.00  0.00     0.188 C 
HETATM   23  O   UNK N   1      29.988  13.432   2.332  0.00  0.00    -0.285 OA
BRANCH  22  24
HETATM   24  C   UNK N   1      31.079  14.314   4.226  0.00  0.00     0.122 C 
BRANCH  24  25
HETATM   25  C   UNK N   1      32.534  14.261   3.757  0.00  0.00     0.126 C 
BRANCH  25  26
HETATM   26  C   UNK N   1      33.375  15.312   4.479  0.00  0.00     0.032 C 
BRANCH  26  27
HETATM   27  C   UNK N   1      32.662  16.650   4.661  0.00  0.00     0.002 C 
BRANCH  27  28
HETATM   28  C   UNK N   1      33.460  17.596   5.542  0.00  0.00     0.000 C 
BRANCH  28  29
HETATM   29  C   UNK N   1      32.979  17.502   6.979  0.00  0.00     0.000 C 
BRANCH  29  30
HETATM   30  C   UNK N   1      33.936  18.205   7.925  0.00  0.00    -0.000 C 
BRANCH  30  31
HETATM   31  C   UNK N   1      34.399  17.261   9.023  0.00  0.00    -0.005 C 
HETATM   32  C   UNK N   1      33.702  15.922   8.892  0.00  0.00     0.005 C 
ENDBRANCH  30  31
ENDBRANCH  29  30
ENDBRANCH  28  29
ENDBRANCH  27  28
ENDBRANCH  26  27
ENDBRANCH  25  26
BRANCH  25  33
HETATM   33  O   UNK N   1      32.613  14.437   2.375  0.00  0.00    -0.395 OA
HETATM   34  H   UNK N   1      33.140  14.770   1.631  0.00  0.00     0.210 HD
ENDBRANCH  25  33
ENDBRANCH  24  25
ENDBRANCH  22  24
ENDBRANCH  21  22
ENDBRANCH  20  21
ENDBRANCH  19  20
ENDBRANCH  17  19
ENDBRANCH  16  17
BRANCH  16  35
HETATM   35  O   UNK N   1      24.021  15.503   4.014  0.00  0.00    -0.350 OA
HETATM   36  H   UNK N   1      23.478  15.452   4.775  0.00  0.00     0.219 HD
ENDBRANCH  16  35
ENDBRANCH  15  16
ENDBRANCH  14  15
ENDBRANCH  12  14
ENDBRANCH  11  12
BRANCH  11  37
HETATM   37  O   UNK N   1      23.221  15.356   6.775  0.00  0.00    -0.348 OA
HETATM   38  H   UNK N   1      23.099  16.246   7.040  0.00  0.00     0.219 HD
ENDBRANCH  11  37
ENDBRANCH  10  11
BRANCH  10  39
HETATM   39  O   UNK N   1      24.198  12.566   8.844  0.00  0.00    -0.387 OA
HETATM   40  H   UNK N   1      23.848  11.663   8.879  0.00  0.00     0.210 HD
ENDBRANCH  10  39
ENDBRANCH   7  10
ENDBRANCH   6   7
ENDBRANCH   5   6
ENDBRANCH   2   5
BRANCH   2  41
HETATM   41  O   UNK N   1      19.143  16.069   6.597  0.00  0.00    -0.195 OA
BRANCH  41  42
HETATM   42  P   UNK N   1      20.119  16.459   5.200  0.00  0.00     0.401 P 
HETATM   43  O   UNK N   1      20.916  15.231   4.680  0.00  0.00    -0.631 OA
BRANCH  42  44
HETATM   44  O   UNK N   1      19.168  17.106   3.906  0.00  0.00    -0.307 OA
HETATM   45  H   UNK N   1      18.260  17.442   3.873  0.00  0.00     0.222 HD
ENDBRANCH  42  44
BRANCH  42  46
HETATM   46  O   UNK N   1      21.257  17.649   5.752  0.00  0.00    -0.294 OA
BRANCH  46  47
HETATM   47  C   UNK N   1      21.240  18.713   4.845  0.00  0.00     0.215 C 
BRANCH  47  48
HETATM   48  C   UNK N   1      22.405  18.551   3.877  0.00  0.00     0.180 C 
HETATM   49  C   UNK N   1      22.620  19.723   2.879  0.00  0.00     0.197 C 
HETATM   50  C   UNK N   1      23.965  20.258   3.334  0.00  0.00     0.199 C 
HETATM   51  C   UNK N   1      24.586  18.952   3.787  0.00  0.00     0.262 C 
HETATM   52  O   UNK N   1      23.603  18.373   4.605  0.00  0.00    -0.353 OA
BRANCH  49  53
HETATM   53  O   UNK N   1      21.607  20.733   2.921  0.00  0.00    -0.286 OA
BRANCH  53  54
HETATM   54  P   UNK N   1      20.547  20.899   1.489  0.00  0.00     0.391 P 
HETATM   55  O   UNK N   1      19.763  19.738   2.161  0.00  0.00    -0.632 OA
BRANCH  54  56
HETATM   56  O   UNK N   1      20.573  19.573   0.368  0.00  0.00    -0.307 OA
HETATM   57  H   UNK N   1      20.570  19.224  -0.537  0.00  0.00     0.222 HD
ENDBRANCH  54  56
BRANCH  54  58
HETATM   58  O   UNK N   1      22.092  20.586   0.765  0.00  0.00    -0.307 OA
HETATM   59  H   UNK N   1      22.621  21.318   0.412  0.00  0.00     0.222 HD
ENDBRANCH  54  58
ENDBRANCH  53  54
ENDBRANCH  49  53
BRANCH  50  60
HETATM   60  O   UNK N   1      24.658  20.855   2.280  0.00  0.00    -0.388 OA
HETATM   61  H   UNK N   1      24.314  21.603   1.768  0.00  0.00     0.210 HD
ENDBRANCH  50  60
BRANCH  51  62
HETATM   62  N   UNK N   1      25.877  19.019   4.479  0.00  0.00    -0.297 N 
HETATM   63  C   UNK N   1      26.646  20.135   4.571  0.00  0.00     0.188 A 
HETATM   64  N   UNK N   1      27.632  19.988   5.501  0.00  0.00    -0.346 N 
HETATM   65  C   UNK N   1      27.434  18.756   5.999  0.00  0.00     0.122 A 
ATOM     66  HN  UNK N   1      28.354  20.659   5.759  1.00  0.00     0.167 HD
HETATM   67  C   UNK N   1      28.087  18.102   7.032  0.00  0.00     0.131 A 
HETATM   68  C   UNK N   1      26.390  18.170   5.383  0.00  0.00     0.142 A 
HETATM   69  N   UNK N   1      27.661  16.851   7.370  0.00  0.00    -0.337 N 
HETATM   70  C   UNK N   1      26.607  16.263   6.713  0.00  0.00     0.183 A 
ATOM     71  HN  UNK N   1      28.131  16.344   8.121  1.00  0.00     0.168 HD
HETATM   72  N   UNK N   1      25.948  16.937   5.722  0.00  0.00    -0.336 N 
ATOM     73  HN  UNK N   1      25.145  16.521   5.251  1.00  0.00     0.168 HD
BRANCH  67  74
HETATM   74  N   UNK N   1      29.130  18.724   7.747  0.00  0.00    -0.383 N 
HETATM   75  H   UNK N   1      29.336  18.439   8.667  0.00  0.00     0.157 HD
HETATM   76  H   UNK N   1      29.654  19.444   7.328  0.00  0.00     0.157 HD
ENDBRANCH  67  74
ENDBRANCH  51  62
ENDBRANCH  47  48
ENDBRANCH  46  47
ENDBRANCH  42  46
ENDBRANCH  41  42
ENDBRANCH   2  41
TORSDOF 40
ENDMDL
MODEL 2
REMARK VINA RESULT:      -6.3      3.215      7.677
REMARK WARNING: 32 MAX_TORS EXCEEDED!!!
REMARK  40 active torsions:
REMARK  status: ('A' for Active; 'I' for Inactive)
REMARK    1  A    between atoms: C_5  and  C_4 
REMARK    2  A    between atoms: C_6  and  C_5 
REMARK    3  A    between atoms: C_7  and  C_6 
REMARK    4  A    between atoms: C_8  and  C_7 
REMARK    5  A    between atoms: C_9  and  C_8 
REMARK    6  A    between atoms: C_19  and  C_9 
REMARK    7  A    between atoms: C_11  and  C_10 
REMARK    8  A    between atoms: C_21  and  C_10 
REMARK    9  A    between atoms: N_35  and  C_11 
REMARK   10  A    between atoms: C_13  and  C_12 
REMARK   11  A    between atoms: N_33  and  C_12 
REMARK   12  A    between atoms: S_65  and  C_13 
REMARK   13  A    between atoms: C_19  and  C_14 
REMARK   14  A    between atoms: C_22  and  C_14 
REMARK   15  A    between atoms: C_20  and  C_15 
REMARK   16  A    between atoms: O_57  and  C_15 
REMARK   17  A    between atoms: C_31  and  C_16 
REMARK   18  A    between atoms: O_58  and  C_16 
REMARK   19  A    between atoms: C_19  and  O_44 
REMARK   20  A    between atoms: N_33  and  C_21 
REMARK   21  A    between atoms: O_45  and  C_21 
REMARK   22  A    between atoms: S_65  and  C_22 
REMARK   23  A    between atoms: C_24  and  O_47 
REMARK   24  A    between atoms: C_25  and  O_60 
REMARK   25  A    between atoms: C_29  and  C_26 
REMARK   26  A    between atoms: C_31  and  C_26 
REMARK   27  A    between atoms: C_26  and  O_48 
REMARK   28  A    between atoms: N_32  and  C_27 
REMARK   29  A    between atoms: N_35  and  C_29 
REMARK   30  A    between atoms: O_49  and  C_29 
REMARK   31  A    between atoms: C_30  and  N_43 
REMARK   32  A    between atoms: P_62  and  O_50 
REMARK   33  A    between atoms: P_62  and  O_51 
REMARK   34  A    between atoms: P_63  and  O_53 
REMARK   35  A    between atoms: P_64  and  O_55 
REMARK   36  A    between atoms: P_63  and  O_57 
REMARK   37  A    between atoms: P_64  and  O_58 
REMARK   38  A    between atoms: P_62  and  O_60 
REMARK   39  A    between atoms: P_63  and  O_61 
REMARK   40  A    between atoms: P_64  and  O_61 
ROOT
HETATM    1  O   UNK N   1      27.473  21.802   6.402  0.00  0.00    -0.631 OA
HETATM    2  P   UNK N   1      27.217  20.515   5.568  0.00  0.00     0.401 P 
ENDROOT
BRANCH   2   3
HETATM    3  O   UNK N   1      26.776  20.229   7.216  0.00  0.00    -0.307 OA
HETATM    4  H   UNK N   1      26.996  20.814   7.957  0.00  0.00     0.222 HD
ENDBRANCH   2   3
BRANCH   2   5
HETATM    5  O   UNK N   1      27.163  18.896   6.164  0.00  0.00    -0.296 OA
BRANCH   5   6
HETATM    6  C   UNK N   1      27.935  18.909   7.315  0.00  0.00     0.192 C 
BRANCH   6   7
HETATM    7  C   UNK N   1      28.268  17.484   7.731  0.00  0.00     0.008 C 
HETATM    8  C   UNK N   1      27.983  17.342   9.220  0.00  0.00     0.020 C 
HETATM    9  C   UNK N   1      27.313  16.574   6.981  0.00  0.00     0.020 C 
BRANCH   7  10
HETATM   10  C   UNK N   1      29.755  17.104   7.457  0.00  0.00     0.202 C 
BRANCH  10  11
HETATM   11  C   UNK N   1      30.759  17.488   8.525  0.00  0.00     0.141 C 
BRANCH  11  12
HETATM   12  N   UNK N   1      31.565  16.618   9.031  0.00  0.00    -0.372 N 
ATOM     13  HN  UNK N   1      31.190  15.897   9.649  1.00  0.00     0.161 HD
BRANCH  12  14
HETATM   14  C   UNK N   1      32.981  16.632   8.750  0.00  0.00     0.129 C 
BRANCH  14  15
HETATM   15  C   UNK N   1      33.254  15.904   7.439  0.00  0.00     0.103 C 
BRANCH  15  16
HETATM   16  C   UNK N   1      33.568  16.831   6.299  0.00  0.00     0.112 C 
BRANCH  16  17
HETATM   17  N   UNK N   1      32.942  16.719   5.175  0.00  0.00    -0.374 N 
ATOM     18  HN  UNK N   1      32.518  17.557   4.774  1.00  0.00     0.161 HD
BRANCH  17  19
HETATM   19  C   UNK N   1      32.809  15.474   4.451  0.00  0.00     0.132 C 
BRANCH  19  20
HETATM   20  C   UNK N   1      31.371  15.173   4.096  0.00  0.00     0.102 C 
BRANCH  20  21
HETATM   21  S   UNK N   1      30.868  16.418   2.883  0.00  0.00    -0.091 SA
BRANCH  21  22
HETATM   22  C   UNK N   1      29.155  16.337   3.380  0.00  0.00     0.188 C 
HETATM   23  O   UNK N   1      28.565  17.358   3.694  0.00  0.00    -0.285 OA
BRANCH  22  24
HETATM   24  C   UNK N   1      28.448  15.018   3.442  0.00  0.00     0.122 C 
BRANCH  24  25
HETATM   25  C   UNK N   1      27.990  14.545   2.061  0.00  0.00     0.126 C 
BRANCH  25  26
HETATM   26  C   UNK N   1      26.542  14.958   1.800  0.00  0.00     0.032 C 
BRANCH  26  27
HETATM   27  C   UNK N   1      25.566  14.491   2.878  0.00  0.00     0.002 C 
BRANCH  27  28
HETATM   28  C   UNK N   1      24.216  14.119   2.289  0.00  0.00     0.000 C 
BRANCH  28  29
HETATM   29  C   UNK N   1      24.213  14.368   0.791  0.00  0.00     0.000 C 
BRANCH  29  30
HETATM   30  C   UNK N   1      23.597  13.200   0.042  0.00  0.00    -0.000 C 
BRANCH  30  31
HETATM   31  C   UNK N   1      22.296  12.765   0.697  0.00  0.00    -0.005 C 
HETATM   32  C   UNK N   1      22.185  11.253   0.693  0.00  0.00     0.005 C 
ENDBRANCH  30  31
ENDBRANCH  29  30
ENDBRANCH  28  29
ENDBRANCH  27  28
ENDBRANCH  26  27
ENDBRANCH  25  26
BRANCH  25  33
HETATM   33  O   UNK N   1      28.133  13.162   1.940  0.00  0.00    -0.395 OA
HETATM   34  H   UNK N   1      28.535  12.430   1.446  0.00  0.00     0.210 HD
ENDBRANCH  25  33
ENDBRANCH  24  25
ENDBRANCH  22  24
ENDBRANCH  21  22
ENDBRANCH  20  21
ENDBRANCH  19  20
ENDBRANCH  17  19
ENDBRANCH  16  17
BRANCH  16  35
HETATM   35  O   UNK N   1      34.520  17.772   6.469  0.00  0.00    -0.350 OA
HETATM   36  H   UNK N   1      34.593  18.618   6.075  0.00  0.00     0.219 HD
ENDBRANCH  16  35
ENDBRANCH  15  16
ENDBRANCH  14  15
ENDBRANCH  12  14
ENDBRANCH  11  12
BRANCH  11  37
HETATM   37  O   UNK N   1      30.817  18.776   8.926  0.00  0.00    -0.348 OA
HETATM   38  H   UNK N   1      31.302  19.411   9.415  0.00  0.00     0.219 HD
ENDBRANCH  11  37
ENDBRANCH  10  11
BRANCH  10  39
HETATM   39  O   UNK N   1      30.159  17.660   6.240  0.00  0.00    -0.387 OA
HETATM   40  H   UNK N   1      30.914  17.320   5.735  0.00  0.00     0.210 HD
ENDBRANCH  10  39
ENDBRANCH   7  10
ENDBRANCH   6   7
ENDBRANCH   5   6
ENDBRANCH   2   5
BRANCH   2  41
HETATM   41  O   UNK N   1      25.566  20.634   5.000  0.00  0.00    -0.195 OA
BRANCH  41  42
HETATM   42  P   UNK N   1      25.235  19.827   3.485  0.00  0.00     0.401 P 
HETATM   43  O   UNK N   1      25.613  20.702   2.259  0.00  0.00    -0.631 OA
BRANCH  42  44
HETATM   44  O   UNK N   1      26.057  18.306   3.370  0.00  0.00    -0.307 OA
HETATM   45  H   UNK N   1      26.571  17.899   2.656  0.00  0.00     0.222 HD
ENDBRANCH  42  44
BRANCH  42  46
HETATM   46  O   UNK N   1      23.518  19.574   3.463  0.00  0.00    -0.294 OA
BRANCH  46  47
HETATM   47  C   UNK N   1      23.259  18.328   4.042  0.00  0.00     0.215 C 
BRANCH  47  48
HETATM   48  C   UNK N   1      21.879  18.364   4.687  0.00  0.00     0.180 C 
HETATM   49  C   UNK N   1      20.759  17.601   3.926  0.00  0.00     0.197 C 
HETATM   50  C   UNK N   1      20.435  16.491   4.908  0.00  0.00     0.199 C 
HETATM   51  C   UNK N   1      20.696  17.246   6.196  0.00  0.00     0.262 C 
HETATM   52  O   UNK N   1      21.954  17.836   5.995  0.00  0.00    -0.353 OA
BRANCH  49  53
HETATM   53  O   UNK N   1      21.154  17.082   2.652  0.00  0.00    -0.286 OA
BRANCH  53  54
HETATM   54  P   UNK N   1      19.917  17.034   1.360  0.00  0.00     0.391 P 
HETATM   55  O   UNK N   1      20.917  16.053   0.689  0.00  0.00    -0.632 OA
BRANCH  54  56
HETATM   56  O   UNK N   1      20.371  17.753  -0.154  0.00  0.00    -0.307 OA
HETATM   57  H   UNK N   1      20.801  18.455  -0.667  0.00  0.00     0.222 HD
ENDBRANCH  54  56
BRANCH  54  58
HETATM   58  O   UNK N   1      20.295  18.725   1.440  0.00  0.00    -0.307 OA
HETATM   59  H   UNK N   1      20.963  19.103   0.846  0.00  0.00     0.222 HD
ENDBRANCH  54  58
ENDBRANCH  53  54
ENDBRANCH  49  53
BRANCH  50  60
HETATM   60  O   UNK N   1      19.110  16.070   4.781  0.00  0.00    -0.388 OA
HETATM   61  H   UNK N   1      18.700  15.410   5.361  0.00  0.00     0.210 HD
ENDBRANCH  50  60
BRANCH  51  62
HETATM   62  N   UNK N   1      20.665  16.483   7.447  0.00  0.00    -0.297 N 
HETATM   63  C   UNK N   1      19.627  16.482   8.325  0.00  0.00     0.188 A 
HETATM   64  N   UNK N   1      19.746  15.478   9.239  0.00  0.00    -0.346 N 
HETATM   65  C   UNK N   1      20.875  14.842   8.885  0.00  0.00     0.122 A 
ATOM     66  HN  UNK N   1      19.120  15.259  10.014  1.00  0.00     0.167 HD
HETATM   67  C   UNK N   1      21.447  13.693   9.409  0.00  0.00     0.131 A 
HETATM   68  C   UNK N   1      21.432  15.447   7.818  0.00  0.00     0.142 A 
HETATM   69  N   UNK N   1      22.594  13.228   8.835  0.00  0.00    -0.337 N 
HETATM   70  C   UNK N   1      23.157  13.874   7.761  0.00  0.00     0.183 A 
ATOM     71  HN  UNK N   1      23.040  12.389   9.208  1.00  0.00     0.168 HD
HETATM   72  N   UNK N   1      22.559  14.985   7.231  0.00  0.00    -0.336 N 
ATOM     73  HN  UNK N   1      22.953  15.451   6.414  1.00  0.00     0.168 HD
BRANCH  67  74
HETATM   74  N   UNK N   1      20.841  12.995  10.473  0.00  0.00    -0.383 N 
HETATM   75  H   UNK N   1      20.297  12.195  10.291  0.00  0.00     0.157 HD
HETATM   76  H   UNK N   1      20.961  13.307  11.399  0.00  0.00     0.157 HD
ENDBRANCH  67  74
ENDBRANCH  51  62
ENDBRANCH  47  48
ENDBRANCH  46  47
ENDBRANCH  42  46
ENDBRANCH  41  42
ENDBRANCH   2  41
TORSDOF 40
ENDMDL
MODEL 3
REMARK VINA RESULT:      -6.2      4.288      9.904
REMARK WARNING: 32 MAX_TORS EXCEEDED!!!
REMARK  40 active torsions:
REMARK  status: ('A' for Active; 'I' for Inactive)
REMARK    1  A    between atoms: C_5  and  C_4 
REMARK    2  A    between atoms: C_6  and  C_5 
REMARK    3  A    between atoms: C_7  and  C_6 
REMARK    4  A    between atoms: C_8  and  C_7 
REMARK    5  A    between atoms: C_9  and  C_8 
REMARK    6  A    between atoms: C_19  and  C_9 
REMARK    7  A    between atoms: C_11  and  C_10 
REMARK    8  A    between atoms: C_21  and  C_10 
REMARK    9  A    between atoms: N_35  and  C_11 
REMARK   10  A    between atoms: C_13  and  C_12 
REMARK   11  A    between atoms: N_33  and  C_12 
REMARK   12  A    between atoms: S_65  and  C_13 
REMARK   13  A    between atoms: C_19  and  C_14 
REMARK   14  A    between atoms: C_22  and  C_14 
REMARK   15  A    between atoms: C_20  and  C_15 
REMARK   16  A    between atoms: O_57  and  C_15 
REMARK   17  A    between atoms: C_31  and  C_16 
REMARK   18  A    between atoms: O_58  and  C_16 
REMARK   19  A    between atoms: C_19  and  O_44 
REMARK   20  A    between atoms: N_33  and  C_21 
REMARK   21  A    between atoms: O_45  and  C_21 
REMARK   22  A    between atoms: S_65  and  C_22 
REMARK   23  A    between atoms: C_24  and  O_47 
REMARK   24  A    between atoms: C_25  and  O_60 
REMARK   25  A    between atoms: C_29  and  C_26 
REMARK   26  A    between atoms: C_31  and  C_26 
REMARK   27  A    between atoms: C_26  and  O_48 
REMARK   28  A    between atoms: N_32  and  C_27 
REMARK   29  A    between atoms: N_35  and  C_29 
REMARK   30  A    between atoms: O_49  and  C_29 
REMARK   31  A    between atoms: C_30  and  N_43 
REMARK   32  A    between atoms: P_62  and  O_50 
REMARK   33  A    between atoms: P_62  and  O_51 
REMARK   34  A    between atoms: P_63  and  O_53 
REMARK   35  A    between atoms: P_64  and  O_55 
REMARK   36  A    between atoms: P_63  and  O_57 
REMARK   37  A    between atoms: P_64  and  O_58 
REMARK   38  A    between atoms: P_62  and  O_60 
REMARK   39  A    between atoms: P_63  and  O_61 
REMARK   40  A    between atoms: P_64  and  O_61 
ROOT
HETATM    1  O   UNK N   1      29.344  16.533   2.711  0.00  0.00    -0.631 OA
HETATM    2  P   UNK N   1      29.651  15.235   3.511  0.00  0.00     0.401 P 
ENDROOT
BRANCH   2   3
HETATM    3  O   UNK N   1      29.190  14.819   1.895  0.00  0.00    -0.307 OA
HETATM    4  H   UNK N   1      29.523  14.051   1.406  0.00  0.00     0.222 HD
ENDBRANCH   2   3
BRANCH   2   5
HETATM    5  O   UNK N   1      29.039  13.654   3.181  0.00  0.00    -0.296 OA
BRANCH   5   6
HETATM    6  C   UNK N   1      28.283  13.320   4.291  0.00  0.00     0.192 C 
BRANCH   6   7
HETATM    7  C   UNK N   1      26.855  13.005   3.870  0.00  0.00     0.008 C 
HETATM    8  C   UNK N   1      26.903  12.247   2.550  0.00  0.00     0.020 C 
HETATM    9  C   UNK N   1      26.282  12.077   4.924  0.00  0.00     0.020 C 
BRANCH   7  10
HETATM   10  C   UNK N   1      25.979  14.282   3.694  0.00  0.00     0.202 C 
BRANCH  10  11
HETATM   11  C   UNK N   1      24.486  14.111   3.893  0.00  0.00     0.141 C 
BRANCH  11  12
HETATM   12  N   UNK N   1      23.706  13.827   2.907  0.00  0.00    -0.372 N 
ATOM     13  HN  UNK N   1      23.915  14.211   1.985  1.00  0.00     0.161 HD
BRANCH  12  14
HETATM   14  C   UNK N   1      22.547  12.982   3.067  0.00  0.00     0.129 C 
BRANCH  14  15
HETATM   15  C   UNK N   1      21.280  13.790   2.813  0.00  0.00     0.103 C 
BRANCH  15  16
HETATM   16  C   UNK N   1      21.492  14.954   1.887  0.00  0.00     0.112 C 
BRANCH  16  17
HETATM   17  N   UNK N   1      21.093  16.136   2.222  0.00  0.00    -0.374 N 
ATOM     18  HN  UNK N   1      21.123  16.873   1.516  1.00  0.00     0.161 HD
BRANCH  17  19
HETATM   19  C   UNK N   1      20.606  16.475   3.541  0.00  0.00     0.132 C 
BRANCH  19  20
HETATM   20  C   UNK N   1      21.732  16.691   4.526  0.00  0.00     0.102 C 
BRANCH  20  21
HETATM   21  S   UNK N   1      21.623  18.416   5.063  0.00  0.00    -0.091 SA
BRANCH  21  22
HETATM   22  C   UNK N   1      21.065  17.964   6.698  0.00  0.00     0.188 C 
HETATM   23  O   UNK N   1      20.731  18.832   7.486  0.00  0.00    -0.285 OA
BRANCH  22  24
HETATM   24  C   UNK N   1      21.037  16.525   7.115  0.00  0.00     0.122 C 
BRANCH  24  25
HETATM   25  C   UNK N   1      20.240  16.316   8.404  0.00  0.00     0.126 C 
BRANCH  25  26
HETATM   26  C   UNK N   1      20.554  14.953   9.020  0.00  0.00     0.032 C 
BRANCH  26  27
HETATM   27  C   UNK N   1      21.857  14.337   8.517  0.00  0.00     0.002 C 
BRANCH  27  28
HETATM   28  C   UNK N   1      22.482  13.422   9.555  0.00  0.00     0.000 C 
BRANCH  28  29
HETATM   29  C   UNK N   1      21.444  12.451  10.090  0.00  0.00     0.000 C 
BRANCH  29  30
HETATM   30  C   UNK N   1      21.647  12.191  11.572  0.00  0.00    -0.000 C 
BRANCH  30  31
HETATM   31  C   UNK N   1      23.104  11.878  11.870  0.00  0.00    -0.005 C 
HETATM   32  C   UNK N   1      23.378  12.017  13.354  0.00  0.00     0.005 C 
ENDBRANCH  30  31
ENDBRANCH  29  30
ENDBRANCH  28  29
ENDBRANCH  27  28
ENDBRANCH  26  27
ENDBRANCH  25  26
BRANCH  25  33
HETATM   33  O   UNK N   1      18.871  16.440   8.164  0.00  0.00    -0.395 OA
HETATM   34  H   UNK N   1      18.123  17.046   8.044  0.00  0.00     0.210 HD
ENDBRANCH  25  33
ENDBRANCH  24  25
ENDBRANCH  22  24
ENDBRANCH  21  22
ENDBRANCH  20  21
ENDBRANCH  19  20
ENDBRANCH  17  19
ENDBRANCH  16  17
BRANCH  16  35
HETATM   35  O   UNK N   1      22.095  14.739   0.700  0.00  0.00    -0.350 OA
HETATM   36  H   UNK N   1      22.342  15.357   0.041  0.00  0.00     0.219 HD
ENDBRANCH  16  35
ENDBRANCH  15  16
ENDBRANCH  14  15
ENDBRANCH  12  14
ENDBRANCH  11  12
BRANCH  11  37
HETATM   37  O   UNK N   1      23.981  14.236   5.140  0.00  0.00    -0.348 OA
HETATM   38  H   UNK N   1      23.498  14.785   5.725  0.00  0.00     0.219 HD
ENDBRANCH  11  37
ENDBRANCH  10  11
BRANCH  10  39
HETATM   39  O   UNK N   1      26.203  14.828   2.427  0.00  0.00    -0.387 OA
HETATM   40  H   UNK N   1      26.350  15.776   2.285  0.00  0.00     0.210 HD
ENDBRANCH  10  39
ENDBRANCH   7  10
ENDBRANCH   6   7
ENDBRANCH   5   6
ENDBRANCH   2   5
BRANCH   2  41
HETATM   41  O   UNK N   1      31.352  14.910   3.260  0.00  0.00    -0.195 OA
BRANCH  41  42
HETATM   42  P   UNK N   1      32.414  16.284   3.463  0.00  0.00     0.401 P 
HETATM   43  O   UNK N   1      33.371  16.470   2.254  0.00  0.00    -0.631 OA
BRANCH  42  44
HETATM   44  O   UNK N   1      31.531  17.752   3.717  0.00  0.00    -0.307 OA
HETATM   45  H   UNK N   1      30.594  17.923   3.895  0.00  0.00     0.222 HD
ENDBRANCH  42  44
BRANCH  42  46
HETATM   46  O   UNK N   1      33.373  15.920   4.863  0.00  0.00    -0.294 OA
BRANCH  46  47
HETATM   47  C   UNK N   1      33.008  16.810   5.878  0.00  0.00     0.215 C 
BRANCH  47  48
HETATM   48  C   UNK N   1      31.779  16.262   6.591  0.00  0.00     0.180 C 
HETATM   49  C   UNK N   1      31.913  16.090   8.130  0.00  0.00     0.197 C 
HETATM   50  C   UNK N   1      30.906  17.107   8.632  0.00  0.00     0.199 C 
HETATM   51  C   UNK N   1      29.896  16.999   7.507  0.00  0.00     0.262 C 
HETATM   52  O   UNK N   1      30.673  17.105   6.343  0.00  0.00    -0.353 OA
BRANCH  49  53
HETATM   53  O   UNK N   1      33.224  16.345   8.644  0.00  0.00    -0.286 OA
BRANCH  53  54
HETATM   54  P   UNK N   1      34.013  15.040   9.580  0.00  0.00     0.391 P 
HETATM   55  O   UNK N   1      32.585  14.429   9.586  0.00  0.00    -0.632 OA
BRANCH  54  56
HETATM   56  O   UNK N   1      33.541  14.908  11.246  0.00  0.00    -0.307 OA
HETATM   57  H   UNK N   1      32.958  15.138  11.985  0.00  0.00     0.222 HD
ENDBRANCH  54  56
BRANCH  54  58
HETATM   58  O   UNK N   1      34.353  16.439  10.548  0.00  0.00    -0.307 OA
HETATM   59  H   UNK N   1      35.149  16.466  11.101  0.00  0.00     0.222 HD
ENDBRANCH  54  58
ENDBRANCH  53  54
ENDBRANCH  49  53
BRANCH  50  60
HETATM   60  O   UNK N   1      30.382  16.736   9.872  0.00  0.00    -0.388 OA
HETATM   61  H   UNK N   1      30.925  16.600  10.664  0.00  0.00     0.210 HD
ENDBRANCH  50  60
BRANCH  51  62
HETATM   62  N   UNK N   1      28.790  17.961   7.493  0.00  0.00    -0.297 N 
HETATM   63  C   UNK N   1      28.248  18.530   8.602  0.00  0.00     0.188 A 
HETATM   64  N   UNK N   1      27.446  19.585   8.282  0.00  0.00    -0.346 N 
HETATM   65  C   UNK N   1      27.528  19.668   6.944  0.00  0.00     0.122 A 
ATOM     66  HN  UNK N   1      26.908  20.177   8.915  1.00  0.00     0.167 HD
HETATM   67  C   UNK N   1      26.984  20.603   6.079  0.00  0.00     0.131 A 
HETATM   68  C   UNK N   1      28.324  18.691   6.468  0.00  0.00     0.142 A 
HETATM   69  N   UNK N   1      27.253  20.478   4.747  0.00  0.00    -0.337 N 
HETATM   70  C   UNK N   1      28.050  19.461   4.281  0.00  0.00     0.183 A 
ATOM     71  HN  UNK N   1      26.857  21.149   4.088  1.00  0.00     0.168 HD
HETATM   72  N   UNK N   1      28.611  18.568   5.152  0.00  0.00    -0.336 N 
ATOM     73  HN  UNK N   1      29.230  17.829   4.818  1.00  0.00     0.168 HD
BRANCH  67  74
HETATM   74  N   UNK N   1      26.214  21.682   6.559  0.00  0.00    -0.383 N 
HETATM   75  H   UNK N   1      26.098  22.489   6.007  0.00  0.00     0.157 HD
HETATM   76  H   UNK N   1      25.791  21.629   7.446  0.00  0.00     0.157 HD
ENDBRANCH  67  74
ENDBRANCH  51  62
ENDBRANCH  47  48
ENDBRANCH  46  47
ENDBRANCH  42  46
ENDBRANCH  41  42
ENDBRANCH   2  41
TORSDOF 40
ENDMDL
MODEL 4
REMARK VINA RESULT:      -6.0      4.804     10.197
REMARK WARNING: 32 MAX_TORS EXCEEDED!!!
REMARK  40 active torsions:
REMARK  status: ('A' for Active; 'I' for Inactive)
REMARK    1  A    between atoms: C_5  and  C_4 
REMARK    2  A    between atoms: C_6  and  C_5 
REMARK    3  A    between atoms: C_7  and  C_6 
REMARK    4  A    between atoms: C_8  and  C_7 
REMARK    5  A    between atoms: C_9  and  C_8 
REMARK    6  A    between atoms: C_19  and  C_9 
REMARK    7  A    between atoms: C_11  and  C_10 
REMARK    8  A    between atoms: C_21  and  C_10 
REMARK    9  A    between atoms: N_35  and  C_11 
REMARK   10  A    between atoms: C_13  and  C_12 
REMARK   11  A    between atoms: N_33  and  C_12 
REMARK   12  A    between atoms: S_65  and  C_13 
REMARK   13  A    between atoms: C_19  and  C_14 
REMARK   14  A    between atoms: C_22  and  C_14 
REMARK   15  A    between atoms: C_20  and  C_15 
REMARK   16  A    between atoms: O_57  and  C_15 
REMARK   17  A    between atoms: C_31  and  C_16 
REMARK   18  A    between atoms: O_58  and  C_16 
REMARK   19  A    between atoms: C_19  and  O_44 
REMARK   20  A    between atoms: N_33  and  C_21 
REMARK   21  A    between atoms: O_45  and  C_21 
REMARK   22  A    between atoms: S_65  and  C_22 
REMARK   23  A    between atoms: C_24  and  O_47 
REMARK   24  A    between atoms: C_25  and  O_60 
REMARK   25  A    between atoms: C_29  and  C_26 
REMARK   26  A    between atoms: C_31  and  C_26 
REMARK   27  A    between atoms: C_26  and  O_48 
REMARK   28  A    between atoms: N_32  and  C_27 
REMARK   29  A    between atoms: N_35  and  C_29 
REMARK   30  A    between atoms: O_49  and  C_29 
REMARK   31  A    between atoms: C_30  and  N_43 
REMARK   32  A    between atoms: P_62  and  O_50 
REMARK   33  A    between atoms: P_62  and  O_51 
REMARK   34  A    between atoms: P_63  and  O_53 
REMARK   35  A    between atoms: P_64  and  O_55 
REMARK   36  A    between atoms: P_63  and  O_57 
REMARK   37  A    between atoms: P_64  and  O_58 
REMARK   38  A    between atoms: P_62  and  O_60 
REMARK   39  A    between atoms: P_63  and  O_61 
REMARK   40  A    between atoms: P_64  and  O_61 
ROOT
HETATM    1  O   UNK N   1      26.453  15.855   6.799  0.00  0.00    -0.631 OA
HETATM    2  P   UNK N   1      27.188  16.823   5.828  0.00  0.00     0.401 P 
ENDROOT
BRANCH   2   3
HETATM    3  O   UNK N   1      25.517  17.261   5.919  0.00  0.00    -0.307 OA
HETATM    4  H   UNK N   1      24.834  16.968   5.296  0.00  0.00     0.222 HD
ENDBRANCH   2   3
BRANCH   2   5
HETATM    5  O   UNK N   1      26.476  17.729   4.544  0.00  0.00    -0.296 OA
BRANCH   5   6
HETATM    6  C   UNK N   1      25.774  18.748   5.165  0.00  0.00     0.192 C 
BRANCH   6   7
HETATM    7  C   UNK N   1      26.031  20.066   4.450  0.00  0.00     0.008 C 
HETATM    8  C   UNK N   1      26.267  21.142   5.502  0.00  0.00     0.020 C 
HETATM    9  C   UNK N   1      27.314  19.892   3.660  0.00  0.00     0.020 C 
BRANCH   7  10
HETATM   10  C   UNK N   1      24.847  20.500   3.533  0.00  0.00     0.202 C 
BRANCH  10  11
HETATM   11  C   UNK N   1      23.663  19.557   3.466  0.00  0.00     0.141 C 
BRANCH  11  12
HETATM   12  N   UNK N   1      22.474  19.990   3.219  0.00  0.00    -0.372 N 
ATOM     13  HN  UNK N   1      22.362  20.825   2.643  1.00  0.00     0.161 HD
BRANCH  12  14
HETATM   14  C   UNK N   1      21.297  19.330   3.731  0.00  0.00     0.129 C 
BRANCH  14  15
HETATM   15  C   UNK N   1      20.199  19.338   2.673  0.00  0.00     0.103 C 
BRANCH  15  16
HETATM   16  C   UNK N   1      19.587  17.986   2.440  0.00  0.00     0.112 C 
BRANCH  16  17
HETATM   17  N   UNK N   1      19.543  17.485   1.251  0.00  0.00    -0.374 N 
ATOM     18  HN  UNK N   1      19.547  18.127   0.457  1.00  0.00     0.161 HD
BRANCH  17  19
HETATM   19  C   UNK N   1      19.487  16.066   0.979  0.00  0.00     0.132 C 
BRANCH  19  20
HETATM   20  C   UNK N   1      20.836  15.402   1.136  0.00  0.00     0.102 C 
BRANCH  20  21
HETATM   21  S   UNK N   1      20.663  14.193   2.471  0.00  0.00    -0.091 SA
BRANCH  21  22
HETATM   22  C   UNK N   1      21.833  15.048   3.515  0.00  0.00     0.188 C 
HETATM   23  O   UNK N   1      22.422  16.028   3.090  0.00  0.00    -0.285 OA
BRANCH  22  24
HETATM   24  C   UNK N   1      22.117  14.547   4.898  0.00  0.00     0.122 C 
BRANCH  24  25
HETATM   25  C   UNK N   1      22.061  15.668   5.938  0.00  0.00     0.126 C 
BRANCH  25  26
HETATM   26  C   UNK N   1      22.072  15.094   7.354  0.00  0.00     0.032 C 
BRANCH  26  27
HETATM   27  C   UNK N   1      20.684  14.761   7.893  0.00  0.00     0.002 C 
BRANCH  27  28
HETATM   28  C   UNK N   1      20.730  14.368   9.360  0.00  0.00     0.000 C 
BRANCH  28  29
HETATM   29  C   UNK N   1      21.197  12.931   9.502  0.00  0.00     0.000 C 
BRANCH  29  30
HETATM   30  C   UNK N   1      22.360  12.824  10.473  0.00  0.00    -0.000 C 
BRANCH  30  31
HETATM   31  C   UNK N   1      23.461  11.948   9.901  0.00  0.00    -0.005 C 
HETATM   32  C   UNK N   1      23.154  11.591   8.460  0.00  0.00     0.005 C 
ENDBRANCH  30  31
ENDBRANCH  29  30
ENDBRANCH  28  29
ENDBRANCH  27  28
ENDBRANCH  26  27
ENDBRANCH  25  26
BRANCH  25  33
HETATM   33  O   UNK N   1      20.932  16.465   5.744  0.00  0.00    -0.395 OA
HETATM   34  H   UNK N   1      19.964  16.521   5.786  0.00  0.00     0.210 HD
ENDBRANCH  25  33
ENDBRANCH  24  25
ENDBRANCH  22  24
ENDBRANCH  21  22
ENDBRANCH  20  21
ENDBRANCH  19  20
ENDBRANCH  17  19
ENDBRANCH  16  17
BRANCH  16  35
HETATM   35  O   UNK N   1      19.077  17.313   3.492  0.00  0.00    -0.350 OA
HETATM   36  H   UNK N   1      19.374  17.289   4.380  0.00  0.00     0.219 HD
ENDBRANCH  16  35
ENDBRANCH  15  16
ENDBRANCH  14  15
ENDBRANCH  12  14
ENDBRANCH  11  12
BRANCH  11  37
HETATM   37  O   UNK N   1      23.877  18.235   3.646  0.00  0.00    -0.348 OA
HETATM   38  H   UNK N   1      24.386  17.494   3.385  0.00  0.00     0.219 HD
ENDBRANCH  11  37
ENDBRANCH  10  11
BRANCH  10  39
HETATM   39  O   UNK N   1      25.321  20.719   2.236  0.00  0.00    -0.387 OA
HETATM   40  H   UNK N   1      25.038  21.473   1.697  0.00  0.00     0.210 HD
ENDBRANCH  10  39
ENDBRANCH   7  10
ENDBRANCH   6   7
ENDBRANCH   5   6
ENDBRANCH   2   5
BRANCH   2  41
HETATM   41  O   UNK N   1      27.738  18.161   6.813  0.00  0.00    -0.195 OA
BRANCH  41  42
HETATM   42  P   UNK N   1      28.534  17.715   8.304  0.00  0.00     0.401 P 
HETATM   43  O   UNK N   1      29.212  18.931   8.994  0.00  0.00    -0.631 OA
BRANCH  42  44
HETATM   44  O   UNK N   1      27.443  16.967   9.422  0.00  0.00    -0.307 OA
HETATM   45  H   UNK N   1      26.557  17.215   9.729  0.00  0.00     0.222 HD
ENDBRANCH  42  44
BRANCH  42  46
HETATM   46  O   UNK N   1      29.774  16.591   7.845  0.00  0.00    -0.294 OA
BRANCH  46  47
HETATM   47  C   UNK N   1      30.903  16.851   8.629  0.00  0.00     0.215 C 
BRANCH  47  48
HETATM   48  C   UNK N   1      31.921  15.741   8.407  0.00  0.00     0.180 C 
HETATM   49  C   UNK N   1      32.898  15.950   7.217  0.00  0.00     0.197 C 
HETATM   50  C   UNK N   1      34.224  16.085   7.940  0.00  0.00     0.199 C 
HETATM   51  C   UNK N   1      33.945  15.149   9.100  0.00  0.00     0.262 C 
HETATM   52  O   UNK N   1      32.692  15.565   9.577  0.00  0.00    -0.353 OA
BRANCH  49  53
HETATM   53  O   UNK N   1      32.616  17.098   6.410  0.00  0.00    -0.286 OA
BRANCH  53  54
HETATM   54  P   UNK N   1      32.448  16.847   4.646  0.00  0.00     0.391 P 
HETATM   55  O   UNK N   1      33.402  18.070   4.565  0.00  0.00    -0.632 OA
BRANCH  54  56
HETATM   56  O   UNK N   1      31.590  18.085   3.782  0.00  0.00    -0.307 OA
HETATM   57  H   UNK N   1      31.559  18.944   3.334  0.00  0.00     0.222 HD
ENDBRANCH  54  56
BRANCH  54  58
HETATM   58  O   UNK N   1      30.800  17.074   5.141  0.00  0.00    -0.307 OA
HETATM   59  H   UNK N   1      30.467  17.966   5.328  0.00  0.00     0.222 HD
ENDBRANCH  54  58
ENDBRANCH  53  54
ENDBRANCH  49  53
BRANCH  50  60
HETATM   60  O   UNK N   1      35.287  15.660   7.140  0.00  0.00    -0.388 OA
HETATM   61  H   UNK N   1      35.711  16.218   6.471  0.00  0.00     0.210 HD
ENDBRANCH  50  60
BRANCH  51  62
HETATM   62  N   UNK N   1      34.932  15.098  10.183  0.00  0.00    -0.297 N 
HETATM   63  C   UNK N   1      35.623  16.171  10.649  0.00  0.00     0.188 A 
HETATM   64  N   UNK N   1      36.245  15.892  11.829  0.00  0.00    -0.346 N 
HETATM   65  C   UNK N   1      35.899  14.621  12.091  0.00  0.00     0.122 A 
ATOM     66  HN  UNK N   1      36.838  16.507  12.385  1.00  0.00     0.167 HD
HETATM   67  C   UNK N   1      36.175  13.838  13.201  0.00  0.00     0.131 A 
HETATM   68  C   UNK N   1      35.120  14.139  11.103  0.00  0.00     0.142 A 
HETATM   69  N   UNK N   1      35.666  12.572  13.236  0.00  0.00    -0.337 N 
HETATM   70  C   UNK N   1      34.893  12.094  12.206  0.00  0.00     0.183 A 
ATOM     71  HN  UNK N   1      35.863  11.972  14.037  1.00  0.00     0.168 HD
HETATM   72  N   UNK N   1      34.597  12.893  11.135  0.00  0.00    -0.336 N 
ATOM     73  HN  UNK N   1      33.998  12.558  10.382  1.00  0.00     0.168 HD
BRANCH  67  74
HETATM   74  N   UNK N   1      36.919  14.344  14.286  0.00  0.00    -0.383 N 
HETATM   75  H   UNK N   1      37.766  13.915  14.546  0.00  0.00     0.157 HD
HETATM   76  H   UNK N   1      36.592  15.127  14.784  0.00  0.00     0.157 HD
ENDBRANCH  67  74
ENDBRANCH  51  62
ENDBRANCH  47  48
ENDBRANCH  46  47
ENDBRANCH  42  46
ENDBRANCH  41  42
ENDBRANCH   2  41
TORSDOF 40
ENDMDL
MODEL 5
REMARK VINA RESULT:      -6.0      2.931      6.068
REMARK WARNING: 32 MAX_TORS EXCEEDED!!!
REMARK  40 active torsions:
REMARK  status: ('A' for Active; 'I' for Inactive)
REMARK    1  A    between atoms: C_5  and  C_4 
REMARK    2  A    between atoms: C_6  and  C_5 
REMARK    3  A    between atoms: C_7  and  C_6 
REMARK    4  A    between atoms: C_8  and  C_7 
REMARK    5  A    between atoms: C_9  and  C_8 
REMARK    6  A    between atoms: C_19  and  C_9 
REMARK    7  A    between atoms: C_11  and  C_10 
REMARK    8  A    between atoms: C_21  and  C_10 
REMARK    9  A    between atoms: N_35  and  C_11 
REMARK   10  A    between atoms: C_13  and  C_12 
REMARK   11  A    between atoms: N_33  and  C_12 
REMARK   12  A    between atoms: S_65  and  C_13 
REMARK   13  A    between atoms: C_19  and  C_14 
REMARK   14  A    between atoms: C_22  and  C_14 
REMARK   15  A    between atoms: C_20  and  C_15 
REMARK   16  A    between atoms: O_57  and  C_15 
REMARK   17  A    between atoms: C_31  and  C_16 
REMARK   18  A    between atoms: O_58  and  C_16 
REMARK   19  A    between atoms: C_19  and  O_44 
REMARK   20  A    between atoms: N_33  and  C_21 
REMARK   21  A    between atoms: O_45  and  C_21 
REMARK   22  A    between atoms: S_65  and  C_22 
REMARK   23  A    between atoms: C_24  and  O_47 
REMARK   24  A    between atoms: C_25  and  O_60 
REMARK   25  A    between atoms: C_29  and  C_26 
REMARK   26  A    between atoms: C_31  and  C_26 
REMARK   27  A    between atoms: C_26  and  O_48 
REMARK   28  A    between atoms: N_32  and  C_27 
REMARK   29  A    between atoms: N_35  and  C_29 
REMARK   30  A    between atoms: O_49  and  C_29 
REMARK   31  A    between atoms: C_30  and  N_43 
REMARK   32  A    between atoms: P_62  and  O_50 
REMARK   33  A    between atoms: P_62  and  O_51 
REMARK   34  A    between atoms: P_63  and  O_53 
REMARK   35  A    between atoms: P_64  and  O_55 
REMARK   36  A    between atoms: P_63  and  O_57 
REMARK   37  A    between atoms: P_64  and  O_58 
REMARK   38  A    between atoms: P_62  and  O_60 
REMARK   39  A    between atoms: P_63  and  O_61 
REMARK   40  A    between atoms: P_64  and  O_61 
ROOT
HETATM    1  O   UNK N   1      19.773  14.059   6.188  0.00  0.00    -0.631 OA
HETATM    2  P   UNK N   1      20.113  15.011   5.006  0.00  0.00     0.401 P 
ENDROOT
BRANCH   2   3
HETATM    3  O   UNK N   1      18.440  14.576   4.931  0.00  0.00    -0.307 OA
HETATM    4  H   UNK N   1      17.706  15.208   4.897  0.00  0.00     0.222 HD
ENDBRANCH   2   3
BRANCH   2   5
HETATM    5  O   UNK N   1      19.272  15.126   3.504  0.00  0.00    -0.296 OA
BRANCH   5   6
HETATM    6  C   UNK N   1      20.158  15.748   2.639  0.00  0.00     0.192 C 
BRANCH   6   7
HETATM    7  C   UNK N   1      20.005  15.173   1.239  0.00  0.00     0.008 C 
HETATM    8  C   UNK N   1      19.754  16.325   0.275  0.00  0.00     0.020 C 
HETATM    9  C   UNK N   1      21.335  14.540   0.878  0.00  0.00     0.020 C 
BRANCH   7  10
HETATM   10  C   UNK N   1      18.834  14.149   1.128  0.00  0.00     0.202 C 
BRANCH  10  11
HETATM   11  C   UNK N   1      19.204  12.684   1.249  0.00  0.00     0.141 C 
BRANCH  11  12
HETATM   12  N   UNK N   1      19.414  12.139   2.398  0.00  0.00    -0.372 N 
ATOM     13  HN  UNK N   1      19.600  12.738   3.203  1.00  0.00     0.161 HD
BRANCH  12  14
HETATM   14  C   UNK N   1      19.396  10.707   2.580  0.00  0.00     0.129 C 
BRANCH  14  15
HETATM   15  C   UNK N   1      20.643  10.266   3.337  0.00  0.00     0.103 C 
BRANCH  15  16
HETATM   16  C   UNK N   1      21.852  10.121   2.458  0.00  0.00     0.112 C 
BRANCH  16  17
HETATM   17  N   UNK N   1      22.961   9.665   2.941  0.00  0.00    -0.374 N 
ATOM     18  HN  UNK N   1      23.000   8.682   3.210  1.00  0.00     0.161 HD
BRANCH  17  19
HETATM   19  C   UNK N   1      24.148  10.470   3.120  0.00  0.00     0.132 C 
BRANCH  19  20
HETATM   20  C   UNK N   1      23.827  11.853   3.637  0.00  0.00     0.102 C 
BRANCH  20  21
HETATM   21  S   UNK N   1      24.940  12.994   2.781  0.00  0.00    -0.091 SA
BRANCH  21  22
HETATM   22  C   UNK N   1      24.640  14.307   3.954  0.00  0.00     0.188 C 
HETATM   23  O   UNK N   1      24.779  15.469   3.613  0.00  0.00    -0.285 OA
BRANCH  22  24
HETATM   24  C   UNK N   1      24.250  13.984   5.365  0.00  0.00     0.122 C 
BRANCH  24  25
HETATM   25  C   UNK N   1      25.177  14.649   6.384  0.00  0.00     0.126 C 
BRANCH  25  26
HETATM   26  C   UNK N   1      25.053  13.975   7.750  0.00  0.00     0.032 C 
BRANCH  26  27
HETATM   27  C   UNK N   1      24.416  12.588   7.695  0.00  0.00     0.002 C 
BRANCH  27  28
HETATM   28  C   UNK N   1      23.047  12.574   8.351  0.00  0.00     0.000 C 
BRANCH  28  29
HETATM   29  C   UNK N   1      22.966  11.449   9.368  0.00  0.00     0.000 C 
BRANCH  29  30
HETATM   30  C   UNK N   1      22.536  11.968  10.728  0.00  0.00    -0.000 C 
BRANCH  30  31
HETATM   31  C   UNK N   1      23.724  12.058  11.671  0.00  0.00    -0.005 C 
HETATM   32  C   UNK N   1      23.270  11.876  13.106  0.00  0.00     0.005 C 
ENDBRANCH  30  31
ENDBRANCH  29  30
ENDBRANCH  28  29
ENDBRANCH  27  28
ENDBRANCH  26  27
ENDBRANCH  25  26
BRANCH  25  33
HETATM   33  O   UNK N   1      24.901  16.013   6.486  0.00  0.00    -0.395 OA
HETATM   34  H   UNK N   1      24.269  16.691   6.774  0.00  0.00     0.210 HD
ENDBRANCH  25  33
ENDBRANCH  24  25
ENDBRANCH  22  24
ENDBRANCH  21  22
ENDBRANCH  20  21
ENDBRANCH  19  20
ENDBRANCH  17  19
ENDBRANCH  16  17
BRANCH  16  35
HETATM   35  O   UNK N   1      21.762  10.484   1.162  0.00  0.00    -0.350 OA
HETATM   36  H   UNK N   1      22.287  11.090   0.678  0.00  0.00     0.219 HD
ENDBRANCH  16  35
ENDBRANCH  15  16
ENDBRANCH  14  15
ENDBRANCH  12  14
ENDBRANCH  11  12
BRANCH  11  37
HETATM   37  O   UNK N   1      19.284  11.942   0.123  0.00  0.00    -0.348 OA
HETATM   38  H   UNK N   1      18.924  11.790  -0.728  0.00  0.00     0.219 HD
ENDBRANCH  11  37
ENDBRANCH  10  11
BRANCH  10  39
HETATM   39  O   UNK N   1      18.160  14.345  -0.080  0.00  0.00    -0.387 OA
HETATM   40  H   UNK N   1      18.449  13.940  -0.912  0.00  0.00     0.210 HD
ENDBRANCH  10  39
ENDBRANCH   7  10
ENDBRANCH   6   7
ENDBRANCH   5   6
ENDBRANCH   2   5
BRANCH   2  41
HETATM   41  O   UNK N   1      19.811  16.631   5.595  0.00  0.00    -0.195 OA
BRANCH  41  42
HETATM   42  P   UNK N   1      20.886  17.180   6.860  0.00  0.00     0.401 P 
HETATM   43  O   UNK N   1      20.120  17.566   8.154  0.00  0.00    -0.631 OA
BRANCH  42  44
HETATM   44  O   UNK N   1      22.089  15.995   7.246  0.00  0.00    -0.307 OA
HETATM   45  H   UNK N   1      22.696  15.908   7.997  0.00  0.00     0.222 HD
ENDBRANCH  42  44
BRANCH  42  46
HETATM   46  O   UNK N   1      21.644  18.610   6.231  0.00  0.00    -0.294 OA
BRANCH  46  47
HETATM   47  C   UNK N   1      21.273  18.738   4.888  0.00  0.00     0.215 C 
BRANCH  47  48
HETATM   48  C   UNK N   1      22.510  18.558   4.019  0.00  0.00     0.180 C 
HETATM   49  C   UNK N   1      22.774  19.685   2.981  0.00  0.00     0.197 C 
HETATM   50  C   UNK N   1      24.069  20.276   3.506  0.00  0.00     0.199 C 
HETATM   51  C   UNK N   1      24.683  19.010   4.069  0.00  0.00     0.262 C 
HETATM   52  O   UNK N   1      23.654  18.448   4.841  0.00  0.00    -0.353 OA
BRANCH  49  53
HETATM   53  O   UNK N   1      21.739  20.669   2.896  0.00  0.00    -0.286 OA
BRANCH  53  54
HETATM   54  P   UNK N   1      20.437  20.397   1.698  0.00  0.00     0.391 P 
HETATM   55  O   UNK N   1      21.424  19.336   1.136  0.00  0.00    -0.632 OA
BRANCH  54  56
HETATM   56  O   UNK N   1      20.796  20.873   0.067  0.00  0.00    -0.307 OA
HETATM   57  H   UNK N   1      21.098  20.669  -0.832  0.00  0.00     0.222 HD
ENDBRANCH  54  56
BRANCH  54  58
HETATM   58  O   UNK N   1      20.780  22.085   1.488  0.00  0.00    -0.307 OA
HETATM   59  H   UNK N   1      20.058  22.732   1.493  0.00  0.00     0.222 HD
ENDBRANCH  54  58
ENDBRANCH  53  54
ENDBRANCH  49  53
BRANCH  50  60
HETATM   60  O   UNK N   1      24.826  20.838   2.476  0.00  0.00    -0.388 OA
HETATM   61  H   UNK N   1      25.520  20.359   1.998  0.00  0.00     0.210 HD
ENDBRANCH  50  60
BRANCH  51  62
HETATM   62  N   UNK N   1      25.916  19.145   4.851  0.00  0.00    -0.297 N 
HETATM   63  C   UNK N   1      26.141  20.114   5.776  0.00  0.00     0.188 A 
HETATM   64  N   UNK N   1      27.233  19.831   6.542  0.00  0.00    -0.346 N 
HETATM   65  C   UNK N   1      27.663  18.646   6.078  0.00  0.00     0.122 A 
ATOM     66  HN  UNK N   1      27.632  20.392   7.294  1.00  0.00     0.167 HD
HETATM   67  C   UNK N   1      28.691  17.836   6.534  0.00  0.00     0.131 A 
HETATM   68  C   UNK N   1      26.882  18.237   5.059  0.00  0.00     0.142 A 
HETATM   69  N   UNK N   1      28.899  16.646   5.899  0.00  0.00    -0.337 N 
HETATM   70  C   UNK N   1      28.104  16.259   4.848  0.00  0.00     0.183 A 
ATOM     71  HN  UNK N   1      29.655  16.035   6.209  1.00  0.00     0.168 HD
HETATM   72  N   UNK N   1      27.069  17.052   4.435  0.00  0.00    -0.336 N 
ATOM     73  HN  UNK N   1      26.454  16.758   3.676  1.00  0.00     0.168 HD
BRANCH  67  74
HETATM   74  N   UNK N   1      29.471  18.202   7.649  0.00  0.00    -0.383 N 
HETATM   75  H   UNK N   1      29.444  17.659   8.469  0.00  0.00     0.157 HD
HETATM   76  H   UNK N   1      30.044  19.002   7.608  0.00  0.00     0.157 HD
ENDBRANCH  67  74
ENDBRANCH  51  62
ENDBRANCH  47  48
ENDBRANCH  46  47
ENDBRANCH  42  46
ENDBRANCH  41  42
ENDBRANCH   2  41
TORSDOF 40
ENDMDL
MODEL 6
REMARK VINA RESULT:      -6.0      2.769      4.680
REMARK WARNING: 32 MAX_TORS EXCEEDED!!!
REMARK  40 active torsions:
REMARK  status: ('A' for Active; 'I' for Inactive)
REMARK    1  A    between atoms: C_5  and  C_4 
REMARK    2  A    between atoms: C_6  and  C_5 
REMARK    3  A    between atoms: C_7  and  C_6 
REMARK    4  A    between atoms: C_8  and  C_7 
REMARK    5  A    between atoms: C_9  and  C_8 
REMARK    6  A    between atoms: C_19  and  C_9 
REMARK    7  A    between atoms: C_11  and  C_10 
REMARK    8  A    between atoms: C_21  and  C_10 
REMARK    9  A    between atoms: N_35  and  C_11 
REMARK   10  A    between atoms: C_13  and  C_12 
REMARK   11  A    between atoms: N_33  and  C_12 
REMARK   12  A    between atoms: S_65  and  C_13 
REMARK   13  A    between atoms: C_19  and  C_14 
REMARK   14  A    between atoms: C_22  and  C_14 
REMARK   15  A    between atoms: C_20  and  C_15 
REMARK   16  A    between atoms: O_57  and  C_15 
REMARK   17  A    between atoms: C_31  and  C_16 
REMARK   18  A    between atoms: O_58  and  C_16 
REMARK   19  A    between atoms: C_19  and  O_44 
REMARK   20  A    between atoms: N_33  and  C_21 
REMARK   21  A    between atoms: O_45  and  C_21 
REMARK   22  A    between atoms: S_65  and  C_22 
REMARK   23  A    between atoms: C_24  and  O_47 
REMARK   24  A    between atoms: C_25  and  O_60 
REMARK   25  A    between atoms: C_29  and  C_26 
REMARK   26  A    between atoms: C_31  and  C_26 
REMARK   27  A    between atoms: C_26  and  O_48 
REMARK   28  A    between atoms: N_32  and  C_27 
REMARK   29  A    between atoms: N_35  and  C_29 
REMARK   30  A    between atoms: O_49  and  C_29 
REMARK   31  A    between atoms: C_30  and  N_43 
REMARK   32  A    between atoms: P_62  and  O_50 
REMARK   33  A    between atoms: P_62  and  O_51 
REMARK   34  A    between atoms: P_63  and  O_53 
REMARK   35  A    between atoms: P_64  and  O_55 
REMARK   36  A    between atoms: P_63  and  O_57 
REMARK   37  A    between atoms: P_64  and  O_58 
REMARK   38  A    between atoms: P_62  and  O_60 
REMARK   39  A    between atoms: P_63  and  O_61 
REMARK   40  A    between atoms: P_64  and  O_61 
ROOT
HETATM    1  O   UNK N   1      19.464  13.980   9.830  0.00  0.00    -0.631 OA
HETATM    2  P   UNK N   1      20.777  14.522   9.197  0.00  0.00     0.401 P 
ENDROOT
BRANCH   2   3
HETATM    3  O   UNK N   1      20.857  12.797   9.298  0.00  0.00    -0.307 OA
HETATM    4  H   UNK N   1      20.857  12.198   8.535  0.00  0.00     0.222 HD
ENDBRANCH   2   3
BRANCH   2   5
HETATM    5  O   UNK N   1      22.316  13.741   9.194  0.00  0.00    -0.296 OA
BRANCH   5   6
HETATM    6  C   UNK N   1      22.430  13.169   7.938  0.00  0.00     0.192 C 
BRANCH   6   7
HETATM    7  C   UNK N   1      23.880  13.212   7.478  0.00  0.00     0.008 C 
HETATM    8  C   UNK N   1      24.764  13.387   8.705  0.00  0.00     0.020 C 
HETATM    9  C   UNK N   1      24.186  11.858   6.868  0.00  0.00     0.020 C 
BRANCH   7  10
HETATM   10  C   UNK N   1      24.163  14.371   6.474  0.00  0.00     0.202 C 
BRANCH  10  11
HETATM   11  C   UNK N   1      25.594  14.866   6.399  0.00  0.00     0.141 C 
BRANCH  11  12
HETATM   12  N   UNK N   1      25.932  16.011   6.885  0.00  0.00    -0.372 N 
ATOM     13  HN  UNK N   1      25.212  16.608   7.294  1.00  0.00     0.161 HD
BRANCH  12  14
HETATM   14  C   UNK N   1      27.299  16.475   6.869  0.00  0.00     0.129 C 
BRANCH  14  15
HETATM   15  C   UNK N   1      27.742  16.826   8.285  0.00  0.00     0.103 C 
BRANCH  15  16
HETATM   16  C   UNK N   1      28.206  18.248   8.428  0.00  0.00     0.112 C 
BRANCH  16  17
HETATM   17  N   UNK N   1      29.460  18.540   8.329  0.00  0.00    -0.374 N 
ATOM     18  HN  UNK N   1      29.738  19.247   7.647  1.00  0.00     0.161 HD
BRANCH  17  19
HETATM   19  C   UNK N   1      30.494  17.921   9.129  0.00  0.00     0.132 C 
BRANCH  19  20
HETATM   20  C   UNK N   1      31.789  17.767   8.367  0.00  0.00     0.102 C 
BRANCH  20  21
HETATM   21  S   UNK N   1      31.664  16.216   7.444  0.00  0.00    -0.091 SA
BRANCH  21  22
HETATM   22  C   UNK N   1      31.457  17.060   5.883  0.00  0.00     0.188 C 
HETATM   23  O   UNK N   1      30.395  17.600   5.621  0.00  0.00    -0.285 OA
BRANCH  22  24
HETATM   24  C   UNK N   1      32.571  17.079   4.882  0.00  0.00     0.122 C 
BRANCH  24  25
HETATM   25  C   UNK N   1      32.179  16.391   3.572  0.00  0.00     0.126 C 
BRANCH  25  26
HETATM   26  C   UNK N   1      33.421  15.997   2.774  0.00  0.00     0.032 C 
BRANCH  26  27
HETATM   27  C   UNK N   1      33.942  14.599   3.098  0.00  0.00     0.002 C 
BRANCH  27  28
HETATM   28  C   UNK N   1      32.893  13.761   3.808  0.00  0.00     0.000 C 
BRANCH  28  29
HETATM   29  C   UNK N   1      33.561  12.668   4.624  0.00  0.00     0.000 C 
BRANCH  29  30
HETATM   30  C   UNK N   1      34.813  13.183   5.311  0.00  0.00    -0.000 C 
BRANCH  30  31
HETATM   31  C   UNK N   1      34.481  13.748   6.682  0.00  0.00    -0.005 C 
HETATM   32  C   UNK N   1      35.289  15.004   6.942  0.00  0.00     0.005 C 
ENDBRANCH  30  31
ENDBRANCH  29  30
ENDBRANCH  28  29
ENDBRANCH  27  28
ENDBRANCH  26  27
ENDBRANCH  25  26
BRANCH  25  33
HETATM   33  O   UNK N   1      31.351  17.216   2.810  0.00  0.00    -0.395 OA
HETATM   34  H   UNK N   1      30.890  18.068   2.753  0.00  0.00     0.210 HD
ENDBRANCH  25  33
ENDBRANCH  24  25
ENDBRANCH  22  24
ENDBRANCH  21  22
ENDBRANCH  20  21
ENDBRANCH  19  20
ENDBRANCH  17  19
ENDBRANCH  16  17
BRANCH  16  35
HETATM   35  O   UNK N   1      27.291  19.209   8.671  0.00  0.00    -0.350 OA
HETATM   36  H   UNK N   1      27.205  20.057   8.284  0.00  0.00     0.219 HD
ENDBRANCH  16  35
ENDBRANCH  15  16
ENDBRANCH  14  15
ENDBRANCH  12  14
ENDBRANCH  11  12
BRANCH  11  37
HETATM   37  O   UNK N   1      26.526  14.069   5.834  0.00  0.00    -0.348 OA
HETATM   38  H   UNK N   1      27.438  13.860   5.789  0.00  0.00     0.219 HD
ENDBRANCH  11  37
ENDBRANCH  10  11
BRANCH  10  39
HETATM   39  O   UNK N   1      23.327  15.452   6.765  0.00  0.00    -0.387 OA
HETATM   40  H   UNK N   1      22.481  15.349   7.226  0.00  0.00     0.210 HD
ENDBRANCH  10  39
ENDBRANCH   7  10
ENDBRANCH   6   7
ENDBRANCH   5   6
ENDBRANCH   2   5
BRANCH   2  41
HETATM   41  O   UNK N   1      20.499  14.549   7.469  0.00  0.00    -0.195 OA
BRANCH  41  42
HETATM   42  P   UNK N   1      19.646  15.952   6.870  0.00  0.00     0.401 P 
HETATM   43  O   UNK N   1      18.536  16.426   7.848  0.00  0.00    -0.631 OA
BRANCH  42  44
HETATM   44  O   UNK N   1      20.718  17.273   6.549  0.00  0.00    -0.307 OA
HETATM   45  H   UNK N   1      21.450  17.654   7.059  0.00  0.00     0.222 HD
ENDBRANCH  42  44
BRANCH  42  46
HETATM   46  O   UNK N   1      18.886  15.434   5.398  0.00  0.00    -0.294 OA
BRANCH  46  47
HETATM   47  C   UNK N   1      19.564  16.031   4.331  0.00  0.00     0.215 C 
BRANCH  47  48
HETATM   48  C   UNK N   1      20.761  15.164   3.964  0.00  0.00     0.180 C 
HETATM   49  C   UNK N   1      20.786  14.632   2.504  0.00  0.00     0.197 C 
HETATM   50  C   UNK N   1      22.003  15.348   1.947  0.00  0.00     0.199 C 
HETATM   51  C   UNK N   1      22.837  15.392   3.211  0.00  0.00     0.262 C 
HETATM   52  O   UNK N   1      21.955  15.888   4.183  0.00  0.00    -0.353 OA
BRANCH  49  53
HETATM   53  O   UNK N   1      19.608  14.922   1.745  0.00  0.00    -0.286 OA
BRANCH  53  54
HETATM   54  P   UNK N   1      18.971  13.630   0.683  0.00  0.00     0.391 P 
HETATM   55  O   UNK N   1      18.322  14.822  -0.072  0.00  0.00    -0.632 OA
BRANCH  54  56
HETATM   56  O   UNK N   1      17.254  13.376   0.744  0.00  0.00    -0.307 OA
HETATM   57  H   UNK N   1      16.364  13.489   0.377  0.00  0.00     0.222 HD
ENDBRANCH  54  56
BRANCH  54  58
HETATM   58  O   UNK N   1      18.357  13.162   2.237  0.00  0.00    -0.307 OA
HETATM   59  H   UNK N   1      18.621  13.650   3.032  0.00  0.00     0.222 HD
ENDBRANCH  54  58
ENDBRANCH  53  54
ENDBRANCH  49  53
BRANCH  50  60
HETATM   60  O   UNK N   1      22.602  14.612   0.923  0.00  0.00    -0.388 OA
HETATM   61  H   UNK N   1      23.320  13.977   1.070  0.00  0.00     0.210 HD
ENDBRANCH  50  60
BRANCH  51  62
HETATM   62  N   UNK N   1      24.078  16.172   3.178  0.00  0.00    -0.297 N 
HETATM   63  C   UNK N   1      24.261  17.359   3.812  0.00  0.00     0.188 A 
HETATM   64  N   UNK N   1      25.578  17.710   3.848  0.00  0.00    -0.346 N 
HETATM   65  C   UNK N   1      26.207  16.693   3.238  0.00  0.00     0.122 A 
ATOM     66  HN  UNK N   1      25.991  18.553   4.247  1.00  0.00     0.167 HD
HETATM   67  C   UNK N   1      27.563  16.469   3.057  0.00  0.00     0.131 A 
HETATM   68  C   UNK N   1      25.311  15.774   2.827  0.00  0.00     0.142 A 
HETATM   69  N   UNK N   1      27.945  15.321   2.427  0.00  0.00    -0.337 N 
HETATM   70  C   UNK N   1      27.013  14.408   1.996  0.00  0.00     0.183 A 
ATOM     71  HN  UNK N   1      28.937  15.137   2.273  1.00  0.00     0.168 HD
HETATM   72  N   UNK N   1      25.680  14.625   2.217  0.00  0.00    -0.336 N 
ATOM     73  HN  UNK N   1      24.984  13.938   1.929  1.00  0.00     0.168 HD
BRANCH  67  74
HETATM   74  N   UNK N   1      28.524  17.374   3.549  0.00  0.00    -0.383 N 
HETATM   75  H   UNK N   1      28.483  17.678   4.484  0.00  0.00     0.157 HD
HETATM   76  H   UNK N   1      29.239  17.703   2.957  0.00  0.00     0.157 HD
ENDBRANCH  67  74
ENDBRANCH  51  62
ENDBRANCH  47  48
ENDBRANCH  46  47
ENDBRANCH  42  46
ENDBRANCH  41  42
ENDBRANCH   2  41
TORSDOF 40
ENDMDL
MODEL 7
REMARK VINA RESULT:      -5.9      4.159      8.139
REMARK WARNING: 32 MAX_TORS EXCEEDED!!!
REMARK  40 active torsions:
REMARK  status: ('A' for Active; 'I' for Inactive)
REMARK    1  A    between atoms: C_5  and  C_4 
REMARK    2  A    between atoms: C_6  and  C_5 
REMARK    3  A    between atoms: C_7  and  C_6 
REMARK    4  A    between atoms: C_8  and  C_7 
REMARK    5  A    between atoms: C_9  and  C_8 
REMARK    6  A    between atoms: C_19  and  C_9 
REMARK    7  A    between atoms: C_11  and  C_10 
REMARK    8  A    between atoms: C_21  and  C_10 
REMARK    9  A    between atoms: N_35  and  C_11 
REMARK   10  A    between atoms: C_13  and  C_12 
REMARK   11  A    between atoms: N_33  and  C_12 
REMARK   12  A    between atoms: S_65  and  C_13 
REMARK   13  A    between atoms: C_19  and  C_14 
REMARK   14  A    between atoms: C_22  and  C_14 
REMARK   15  A    between atoms: C_20  and  C_15 
REMARK   16  A    between atoms: O_57  and  C_15 
REMARK   17  A    between atoms: C_31  and  C_16 
REMARK   18  A    between atoms: O_58  and  C_16 
REMARK   19  A    between atoms: C_19  and  O_44 
REMARK   20  A    between atoms: N_33  and  C_21 
REMARK   21  A    between atoms: O_45  and  C_21 
REMARK   22  A    between atoms: S_65  and  C_22 
REMARK   23  A    between atoms: C_24  and  O_47 
REMARK   24  A    between atoms: C_25  and  O_60 
REMARK   25  A    between atoms: C_29  and  C_26 
REMARK   26  A    between atoms: C_31  and  C_26 
REMARK   27  A    between atoms: C_26  and  O_48 
REMARK   28  A    between atoms: N_32  and  C_27 
REMARK   29  A    between atoms: N_35  and  C_29 
REMARK   30  A    between atoms: O_49  and  C_29 
REMARK   31  A    between atoms: C_30  and  N_43 
REMARK   32  A    between atoms: P_62  and  O_50 
REMARK   33  A    between atoms: P_62  and  O_51 
REMARK   34  A    between atoms: P_63  and  O_53 
REMARK   35  A    between atoms: P_64  and  O_55 
REMARK   36  A    between atoms: P_63  and  O_57 
REMARK   37  A    between atoms: P_64  and  O_58 
REMARK   38  A    between atoms: P_62  and  O_60 
REMARK   39  A    between atoms: P_63  and  O_61 
REMARK   40  A    between atoms: P_64  and  O_61 
ROOT
HETATM    1  O   UNK N   1      19.376  14.558   1.825  0.00  0.00    -0.631 OA
HETATM    2  P   UNK N   1      20.619  15.134   2.560  0.00  0.00     0.401 P 
ENDROOT
BRANCH   2   3
HETATM    3  O   UNK N   1      19.211  16.020   3.033  0.00  0.00    -0.307 OA
HETATM    4  H   UNK N   1      18.794  15.971   3.907  0.00  0.00     0.222 HD
ENDBRANCH   2   3
BRANCH   2   5
HETATM    5  O   UNK N   1      20.792  16.730   3.192  0.00  0.00    -0.296 OA
BRANCH   5   6
HETATM    6  C   UNK N   1      21.976  16.709   3.911  0.00  0.00     0.192 C 
BRANCH   6   7
HETATM    7  C   UNK N   1      22.058  17.933   4.811  0.00  0.00     0.008 C 
HETATM    8  C   UNK N   1      23.491  18.447   4.787  0.00  0.00     0.020 C 
HETATM    9  C   UNK N   1      21.169  18.993   4.189  0.00  0.00     0.020 C 
BRANCH   7  10
HETATM   10  C   UNK N   1      21.647  17.632   6.284  0.00  0.00     0.202 C 
BRANCH  10  11
HETATM   11  C   UNK N   1      20.716  16.455   6.500  0.00  0.00     0.141 C 
BRANCH  11  12
HETATM   12  N   UNK N   1      21.071  15.443   7.215  0.00  0.00    -0.372 N 
ATOM     13  HN  UNK N   1      21.291  14.562   6.750  1.00  0.00     0.161 HD
BRANCH  12  14
HETATM   14  C   UNK N   1      21.166  15.519   8.654  0.00  0.00     0.129 C 
BRANCH  14  15
HETATM   15  C   UNK N   1      20.122  14.608   9.289  0.00  0.00     0.103 C 
BRANCH  15  16
HETATM   16  C   UNK N   1      20.720  13.505  10.116  0.00  0.00     0.112 C 
BRANCH  16  17
HETATM   17  N   UNK N   1      21.998  13.320  10.133  0.00  0.00    -0.374 N 
ATOM     18  HN  UNK N   1      22.602  14.115   9.921  1.00  0.00     0.161 HD
BRANCH  17  19
HETATM   19  C   UNK N   1      22.622  12.052  10.437  0.00  0.00     0.132 C 
BRANCH  19  20
HETATM   20  C   UNK N   1      23.722  11.709   9.459  0.00  0.00     0.102 C 
BRANCH  20  21
HETATM   21  S   UNK N   1      24.846  13.126   9.430  0.00  0.00    -0.091 SA
BRANCH  21  22
HETATM   22  C   UNK N   1      24.567  13.424   7.691  0.00  0.00     0.188 C 
HETATM   23  O   UNK N   1      23.434  13.374   7.242  0.00  0.00    -0.285 OA
BRANCH  22  24
HETATM   24  C   UNK N   1      25.721  13.705   6.778  0.00  0.00     0.122 C 
BRANCH  24  25
HETATM   25  C   UNK N   1      25.464  14.918   5.882  0.00  0.00     0.126 C 
BRANCH  25  26
HETATM   26  C   UNK N   1      26.781  15.535   5.414  0.00  0.00     0.032 C 
BRANCH  26  27
HETATM   27  C   UNK N   1      26.811  17.059   5.501  0.00  0.00     0.002 C 
BRANCH  27  28
HETATM   28  C   UNK N   1      28.131  17.563   6.057  0.00  0.00     0.000 C 
BRANCH  28  29
HETATM   29  C   UNK N   1      28.026  19.039   6.398  0.00  0.00     0.000 C 
BRANCH  29  30
HETATM   30  C   UNK N   1      27.826  19.878   5.148  0.00  0.00    -0.000 C 
BRANCH  30  31
HETATM   31  C   UNK N   1      27.013  21.123   5.459  0.00  0.00    -0.005 C 
HETATM   32  C   UNK N   1      26.515  21.082   6.890  0.00  0.00     0.005 C 
ENDBRANCH  30  31
ENDBRANCH  29  30
ENDBRANCH  28  29
ENDBRANCH  27  28
ENDBRANCH  26  27
ENDBRANCH  25  26
BRANCH  25  33
HETATM   33  O   UNK N   1      24.689  15.869   6.549  0.00  0.00    -0.395 OA
HETATM   34  H   UNK N   1      24.610  16.794   6.831  0.00  0.00     0.210 HD
ENDBRANCH  25  33
ENDBRANCH  24  25
ENDBRANCH  22  24
ENDBRANCH  21  22
ENDBRANCH  20  21
ENDBRANCH  19  20
ENDBRANCH  17  19
ENDBRANCH  16  17
BRANCH  16  35
HETATM   35  O   UNK N   1      19.898  12.708  10.828  0.00  0.00    -0.350 OA
HETATM   36  H   UNK N   1      19.315  12.931  11.527  0.00  0.00     0.219 HD
ENDBRANCH  16  35
ENDBRANCH  15  16
ENDBRANCH  14  15
ENDBRANCH  12  14
ENDBRANCH  11  12
BRANCH  11  37
HETATM   37  O   UNK N   1      19.485  16.494   5.947  0.00  0.00    -0.348 OA
HETATM   38  H   UNK N   1      18.990  16.392   5.158  0.00  0.00     0.219 HD
ENDBRANCH  11  37
ENDBRANCH  10  11
BRANCH  10  39
HETATM   39  O   UNK N   1      21.067  18.773   6.846  0.00  0.00    -0.387 OA
HETATM   40  H   UNK N   1      21.508  19.635   6.851  0.00  0.00     0.210 HD
ENDBRANCH  10  39
ENDBRANCH   7  10
ENDBRANCH   6   7
ENDBRANCH   5   6
ENDBRANCH   2   5
BRANCH   2  41
HETATM   41  O   UNK N   1      20.738  14.247   4.064  0.00  0.00    -0.195 OA
BRANCH  41  42
HETATM   42  P   UNK N   1      19.369  13.229   4.443  0.00  0.00     0.401 P 
HETATM   43  O   UNK N   1      18.133  14.053   4.899  0.00  0.00    -0.631 OA
BRANCH  42  44
HETATM   44  O   UNK N   1      18.917  12.227   3.105  0.00  0.00    -0.307 OA
HETATM   45  H   UNK N   1      19.142  12.262   2.163  0.00  0.00     0.222 HD
ENDBRANCH  42  44
BRANCH  42  46
HETATM   46  O   UNK N   1      19.884  12.242   5.775  0.00  0.00    -0.294 OA
BRANCH  46  47
HETATM   47  C   UNK N   1      19.900  10.912   5.343  0.00  0.00     0.215 C 
BRANCH  47  48
HETATM   48  C   UNK N   1      21.161  10.241   5.871  0.00  0.00     0.180 C 
HETATM   49  C   UNK N   1      21.419   8.795   5.361  0.00  0.00     0.197 C 
HETATM   50  C   UNK N   1      22.685   8.988   4.548  0.00  0.00     0.199 C 
HETATM   51  C   UNK N   1      23.320  10.088   5.375  0.00  0.00     0.262 C 
HETATM   52  O   UNK N   1      22.288  11.026   5.540  0.00  0.00    -0.353 OA
BRANCH  49  53
HETATM   53  O   UNK N   1      20.361   8.246   4.570  0.00  0.00    -0.286 OA
BRANCH  53  54
HETATM   54  P   UNK N   1      19.567   6.759   5.169  0.00  0.00     0.391 P 
HETATM   55  O   UNK N   1      18.345   7.700   5.348  0.00  0.00    -0.632 OA
BRANCH  54  56
HETATM   56  O   UNK N   1      19.172   6.738   6.860  0.00  0.00    -0.307 OA
HETATM   57  H   UNK N   1      18.900   6.271   7.665  0.00  0.00     0.222 HD
ENDBRANCH  54  56
BRANCH  54  58
HETATM   58  O   UNK N   1      20.926   6.904   6.238  0.00  0.00    -0.307 OA
HETATM   59  H   UNK N   1      21.573   6.185   6.304  0.00  0.00     0.222 HD
ENDBRANCH  54  58
ENDBRANCH  53  54
ENDBRANCH  49  53
BRANCH  50  60
HETATM   60  O   UNK N   1      23.451   7.821   4.514  0.00  0.00    -0.388 OA
HETATM   61  H   UNK N   1      24.414   7.815   4.401  0.00  0.00     0.210 HD
ENDBRANCH  50  60
BRANCH  51  62
HETATM   62  N   UNK N   1      24.530  10.723   4.845  0.00  0.00    -0.297 N 
HETATM   63  C   UNK N   1      25.765  10.155   4.850  0.00  0.00     0.188 A 
HETATM   64  N   UNK N   1      26.632  10.835   4.047  0.00  0.00    -0.346 N 
HETATM   65  C   UNK N   1      25.890  11.826   3.526  0.00  0.00     0.122 A 
ATOM     66  HN  UNK N   1      27.618  10.636   3.881  1.00  0.00     0.167 HD
HETATM   67  C   UNK N   1      26.226  12.780   2.579  0.00  0.00     0.131 A 
HETATM   68  C   UNK N   1      24.634  11.767   4.009  0.00  0.00     0.142 A 
HETATM   69  N   UNK N   1      25.262  13.664   2.189  0.00  0.00    -0.337 N 
HETATM   70  C   UNK N   1      23.993  13.599   2.711  0.00  0.00     0.183 A 
ATOM     71  HN  UNK N   1      25.486  14.382   1.500  1.00  0.00     0.168 HD
HETATM   72  N   UNK N   1      23.666  12.627   3.616  0.00  0.00    -0.336 N 
ATOM     73  HN  UNK N   1      22.719  12.551   3.984  1.00  0.00     0.168 HD
BRANCH  67  74
HETATM   74  N   UNK N   1      27.509  12.814   1.998  0.00  0.00    -0.383 N 
HETATM   75  H   UNK N   1      28.230  13.334   2.422  0.00  0.00     0.157 HD
HETATM   76  H   UNK N   1      27.687  12.316   1.167  0.00  0.00     0.157 HD
ENDBRANCH  67  74
ENDBRANCH  51  62
ENDBRANCH  47  48
ENDBRANCH  46  47
ENDBRANCH  42  46
ENDBRANCH  41  42
ENDBRANCH   2  41
TORSDOF 40
ENDMDL
MODEL 8
REMARK VINA RESULT:      -5.9      3.308      7.274
REMARK WARNING: 32 MAX_TORS EXCEEDED!!!
REMARK  40 active torsions:
REMARK  status: ('A' for Active; 'I' for Inactive)
REMARK    1  A    between atoms: C_5  and  C_4 
REMARK    2  A    between atoms: C_6  and  C_5 
REMARK    3  A    between atoms: C_7  and  C_6 
REMARK    4  A    between atoms: C_8  and  C_7 
REMARK    5  A    between atoms: C_9  and  C_8 
REMARK    6  A    between atoms: C_19  and  C_9 
REMARK    7  A    between atoms: C_11  and  C_10 
REMARK    8  A    between atoms: C_21  and  C_10 
REMARK    9  A    between atoms: N_35  and  C_11 
REMARK   10  A    between atoms: C_13  and  C_12 
REMARK   11  A    between atoms: N_33  and  C_12 
REMARK   12  A    between atoms: S_65  and  C_13 
REMARK   13  A    between atoms: C_19  and  C_14 
REMARK   14  A    between atoms: C_22  and  C_14 
REMARK   15  A    between atoms: C_20  and  C_15 
REMARK   16  A    between atoms: O_57  and  C_15 
REMARK   17  A    between atoms: C_31  and  C_16 
REMARK   18  A    between atoms: O_58  and  C_16 
REMARK   19  A    between atoms: C_19  and  O_44 
REMARK   20  A    between atoms: N_33  and  C_21 
REMARK   21  A    between atoms: O_45  and  C_21 
REMARK   22  A    between atoms: S_65  and  C_22 
REMARK   23  A    between atoms: C_24  and  O_47 
REMARK   24  A    between atoms: C_25  and  O_60 
REMARK   25  A    between atoms: C_29  and  C_26 
REMARK   26  A    between atoms: C_31  and  C_26 
REMARK   27  A    between atoms: C_26  and  O_48 
REMARK   28  A    between atoms: N_32  and  C_27 
REMARK   29  A    between atoms: N_35  and  C_29 
REMARK   30  A    between atoms: O_49  and  C_29 
REMARK   31  A    between atoms: C_30  and  N_43 
REMARK   32  A    between atoms: P_62  and  O_50 
REMARK   33  A    between atoms: P_62  and  O_51 
REMARK   34  A    between atoms: P_63  and  O_53 
REMARK   35  A    between atoms: P_64  and  O_55 
REMARK   36  A    between atoms: P_63  and  O_57 
REMARK   37  A    between atoms: P_64  and  O_58 
REMARK   38  A    between atoms: P_62  and  O_60 
REMARK   39  A    between atoms: P_63  and  O_61 
REMARK   40  A    between atoms: P_64  and  O_61 
ROOT
HETATM    1  O   UNK N   1      24.079  19.850   4.030  0.00  0.00    -0.631 OA
HETATM    2  P   UNK N   1      24.878  18.531   3.830  0.00  0.00     0.401 P 
ENDROOT
BRANCH   2   3
HETATM    3  O   UNK N   1      24.752  18.875   5.521  0.00  0.00    -0.307 OA
HETATM    4  H   UNK N   1      25.201  18.378   6.221  0.00  0.00     0.222 HD
ENDBRANCH   2   3
BRANCH   2   5
HETATM    5  O   UNK N   1      26.023  17.846   4.925  0.00  0.00    -0.296 OA
BRANCH   5   6
HETATM    6  C   UNK N   1      27.121  18.689   4.875  0.00  0.00     0.192 C 
BRANCH   6   7
HETATM    7  C   UNK N   1      28.136  18.280   5.932  0.00  0.00     0.008 C 
HETATM    8  C   UNK N   1      27.805  16.866   6.391  0.00  0.00     0.020 C 
HETATM    9  C   UNK N   1      29.490  18.247   5.249  0.00  0.00     0.020 C 
BRANCH   7  10
HETATM   10  C   UNK N   1      28.141  19.230   7.168  0.00  0.00     0.202 C 
BRANCH  10  11
HETATM   11  C   UNK N   1      28.605  18.630   8.481  0.00  0.00     0.141 C 
BRANCH  11  12
HETATM   12  N   UNK N   1      29.856  18.582   8.790  0.00  0.00    -0.372 N 
ATOM     13  HN  UNK N   1      30.324  19.438   9.088  1.00  0.00     0.161 HD
BRANCH  12  14
HETATM   14  C   UNK N   1      30.612  17.354   8.728  0.00  0.00     0.129 C 
BRANCH  14  15
HETATM   15  C   UNK N   1      31.761  17.505   7.737  0.00  0.00     0.103 C 
BRANCH  15  16
HETATM   16  C   UNK N   1      33.096  17.699   8.400  0.00  0.00     0.112 C 
BRANCH  16  17
HETATM   17  N   UNK N   1      33.442  16.961   9.401  0.00  0.00    -0.374 N 
ATOM     18  HN  UNK N   1      32.788  16.866  10.179  1.00  0.00     0.161 HD
BRANCH  17  19
HETATM   19  C   UNK N   1      34.704  16.260   9.483  0.00  0.00     0.132 C 
BRANCH  19  20
HETATM   20  C   UNK N   1      34.940  15.369   8.285  0.00  0.00     0.102 C 
BRANCH  20  21
HETATM   21  S   UNK N   1      33.693  14.060   8.362  0.00  0.00    -0.091 SA
BRANCH  21  22
HETATM   22  C   UNK N   1      34.160  13.400   6.770  0.00  0.00     0.188 C 
HETATM   23  O   UNK N   1      33.665  12.357   6.377  0.00  0.00    -0.285 OA
BRANCH  22  24
HETATM   24  C   UNK N   1      35.180  14.106   5.930  0.00  0.00     0.122 C 
BRANCH  24  25
HETATM   25  C   UNK N   1      34.617  14.523   4.570  0.00  0.00     0.126 C 
BRANCH  25  26
HETATM   26  C   UNK N   1      33.450  15.495   4.742  0.00  0.00     0.032 C 
BRANCH  26  27
HETATM   27  C   UNK N   1      33.118  16.285   3.479  0.00  0.00     0.002 C 
BRANCH  27  28
HETATM   28  C   UNK N   1      31.642  16.195   3.133  0.00  0.00     0.000 C 
BRANCH  28  29
HETATM   29  C   UNK N   1      30.931  15.278   4.111  0.00  0.00     0.000 C 
BRANCH  29  30
HETATM   30  C   UNK N   1      29.928  14.387   3.399  0.00  0.00    -0.000 C 
BRANCH  30  31
HETATM   31  C   UNK N   1      29.189  15.161   2.322  0.00  0.00    -0.005 C 
HETATM   32  C   UNK N   1      27.860  15.661   2.852  0.00  0.00     0.005 C 
ENDBRANCH  30  31
ENDBRANCH  29  30
ENDBRANCH  28  29
ENDBRANCH  27  28
ENDBRANCH  26  27
ENDBRANCH  25  26
BRANCH  25  33
HETATM   33  O   UNK N   1      34.216  13.404   3.837  0.00  0.00    -0.395 OA
HETATM   34  H   UNK N   1      33.745  12.556   3.849  0.00  0.00     0.210 HD
ENDBRANCH  25  33
ENDBRANCH  24  25
ENDBRANCH  22  24
ENDBRANCH  21  22
ENDBRANCH  20  21
ENDBRANCH  19  20
ENDBRANCH  17  19
ENDBRANCH  16  17
BRANCH  16  35
HETATM   35  O   UNK N   1      33.917  18.663   7.936  0.00  0.00    -0.350 OA
HETATM   36  H   UNK N   1      34.156  18.864   7.053  0.00  0.00     0.219 HD
ENDBRANCH  16  35
ENDBRANCH  15  16
ENDBRANCH  14  15
ENDBRANCH  12  14
ENDBRANCH  11  12
BRANCH  11  37
HETATM   37  O   UNK N   1      27.677  18.165   9.344  0.00  0.00    -0.348 OA
HETATM   38  H   UNK N   1      27.503  17.917  10.230  0.00  0.00     0.219 HD
ENDBRANCH  11  37
ENDBRANCH  10  11
BRANCH  10  39
HETATM   39  O   UNK N   1      26.863  19.766   7.346  0.00  0.00    -0.387 OA
HETATM   40  H   UNK N   1      26.684  20.504   7.949  0.00  0.00     0.210 HD
ENDBRANCH  10  39
ENDBRANCH   7  10
ENDBRANCH   6   7
ENDBRANCH   5   6
ENDBRANCH   2   5
BRANCH   2  41
HETATM   41  O   UNK N   1      23.692  17.245   3.859  0.00  0.00    -0.195 OA
BRANCH  41  42
HETATM   42  P   UNK N   1      22.863  17.027   5.382  0.00  0.00     0.401 P 
HETATM   43  O   UNK N   1      23.671  16.140   6.369  0.00  0.00    -0.631 OA
BRANCH  42  44
HETATM   44  O   UNK N   1      22.503  18.539   6.146  0.00  0.00    -0.307 OA
HETATM   45  H   UNK N   1      21.684  18.899   6.518  0.00  0.00     0.222 HD
ENDBRANCH  42  44
BRANCH  42  46
HETATM   46  O   UNK N   1      21.390  16.196   4.989  0.00  0.00    -0.294 OA
BRANCH  46  47
HETATM   47  C   UNK N   1      20.381  17.154   4.847  0.00  0.00     0.215 C 
BRANCH  47  48
HETATM   48  C   UNK N   1      19.576  16.836   3.594  0.00  0.00     0.180 C 
HETATM   49  C   UNK N   1      20.025  17.569   2.299  0.00  0.00     0.197 C 
HETATM   50  C   UNK N   1      20.510  16.408   1.452  0.00  0.00     0.199 C 
HETATM   51  C   UNK N   1      19.544  15.349   1.945  0.00  0.00     0.262 C 
HETATM   52  O   UNK N   1      19.620  15.446   3.344  0.00  0.00    -0.353 OA
BRANCH  49  53
HETATM   53  O   UNK N   1      21.051  18.547   2.495  0.00  0.00    -0.286 OA
BRANCH  53  54
HETATM   54  P   UNK N   1      20.592  20.269   2.338  0.00  0.00     0.391 P 
HETATM   55  O   UNK N   1      21.621  20.250   1.175  0.00  0.00    -0.632 OA
BRANCH  54  56
HETATM   56  O   UNK N   1      21.823  21.423   2.750  0.00  0.00    -0.307 OA
HETATM   57  H   UNK N   1      22.099  22.284   3.101  0.00  0.00     0.222 HD
ENDBRANCH  54  56
BRANCH  54  58
HETATM   58  O   UNK N   1      21.149  20.189   3.979  0.00  0.00    -0.307 OA
HETATM   59  H   UNK N   1      22.085  20.022   4.168  0.00  0.00     0.222 HD
ENDBRANCH  54  58
ENDBRANCH  53  54
ENDBRANCH  49  53
BRANCH  50  60
HETATM   60  O   UNK N   1      20.373  16.679   0.090  0.00  0.00    -0.388 OA
HETATM   61  H   UNK N   1      21.117  16.694  -0.531  0.00  0.00     0.210 HD
ENDBRANCH  50  60
BRANCH  51  62
HETATM   62  N   UNK N   1      19.763  13.970   1.499  0.00  0.00    -0.297 N 
HETATM   63  C   UNK N   1      19.129  13.389   0.447  0.00  0.00     0.188 A 
HETATM   64  N   UNK N   1      19.728  12.219   0.086  0.00  0.00    -0.346 N 
HETATM   65  C   UNK N   1      20.766  12.106   0.930  0.00  0.00     0.122 A 
ATOM     66  HN  UNK N   1      19.450  11.577  -0.656  1.00  0.00     0.167 HD
HETATM   67  C   UNK N   1      21.771  11.153   0.976  0.00  0.00     0.131 A 
HETATM   68  C   UNK N   1      20.785  13.148   1.784  0.00  0.00     0.142 A 
HETATM   69  N   UNK N   1      22.743  11.290   1.924  0.00  0.00    -0.337 N 
HETATM   70  C   UNK N   1      22.730  12.350   2.799  0.00  0.00     0.183 A 
ATOM     71  HN  UNK N   1      23.489  10.597   1.985  1.00  0.00     0.168 HD
HETATM   72  N   UNK N   1      21.752  13.303   2.716  0.00  0.00    -0.336 N 
ATOM     73  HN  UNK N   1      21.753  14.109   3.340  1.00  0.00     0.168 HD
BRANCH  67  74
HETATM   74  N   UNK N   1      21.821  10.097   0.044  0.00  0.00    -0.383 N 
HETATM   75  H   UNK N   1      21.423   9.224   0.265  0.00  0.00     0.157 HD
HETATM   76  H   UNK N   1      22.253  10.232  -0.831  0.00  0.00     0.157 HD
ENDBRANCH  67  74
ENDBRANCH  51  62
ENDBRANCH  47  48
ENDBRANCH  46  47
ENDBRANCH  42  46
ENDBRANCH  41  42
ENDBRANCH   2  41
TORSDOF 40
ENDMDL
MODEL 9
REMARK VINA RESULT:      -5.9      3.038      6.248
REMARK WARNING: 32 MAX_TORS EXCEEDED!!!
REMARK  40 active torsions:
REMARK  status: ('A' for Active; 'I' for Inactive)
REMARK    1  A    between atoms: C_5  and  C_4 
REMARK    2  A    between atoms: C_6  and  C_5 
REMARK    3  A    between atoms: C_7  and  C_6 
REMARK    4  A    between atoms: C_8  and  C_7 
REMARK    5  A    between atoms: C_9  and  C_8 
REMARK    6  A    between atoms: C_19  and  C_9 
REMARK    7  A    between atoms: C_11  and  C_10 
REMARK    8  A    between atoms: C_21  and  C_10 
REMARK    9  A    between atoms: N_35  and  C_11 
REMARK   10  A    between atoms: C_13  and  C_12 
REMARK   11  A    between atoms: N_33  and  C_12 
REMARK   12  A    between atoms: S_65  and  C_13 
REMARK   13  A    between atoms: C_19  and  C_14 
REMARK   14  A    between atoms: C_22  and  C_14 
REMARK   15  A    between atoms: C_20  and  C_15 
REMARK   16  A    between atoms: O_57  and  C_15 
REMARK   17  A    between atoms: C_31  and  C_16 
REMARK   18  A    between atoms: O_58  and  C_16 
REMARK   19  A    between atoms: C_19  and  O_44 
REMARK   20  A    between atoms: N_33  and  C_21 
REMARK   21  A    between atoms: O_45  and  C_21 
REMARK   22  A    between atoms: S_65  and  C_22 
REMARK   23  A    between atoms: C_24  and  O_47 
REMARK   24  A    between atoms: C_25  and  O_60 
REMARK   25  A    between atoms: C_29  and  C_26 
REMARK   26  A    between atoms: C_31  and  C_26 
REMARK   27  A    between atoms: C_26  and  O_48 
REMARK   28  A    between atoms: N_32  and  C_27 
REMARK   29  A    between atoms: N_35  and  C_29 
REMARK   30  A    between atoms: O_49  and  C_29 
REMARK   31  A    between atoms: C_30  and  N_43 
REMARK   32  A    between atoms: P_62  and  O_50 
REMARK   33  A    between atoms: P_62  and  O_51 
REMARK   34  A    between atoms: P_63  and  O_53 
REMARK   35  A    between atoms: P_64  and  O_55 
REMARK   36  A    between atoms: P_63  and  O_57 
REMARK   37  A    between atoms: P_64  and  O_58 
REMARK   38  A    between atoms: P_62  and  O_60 
REMARK   39  A    between atoms: P_63  and  O_61 
REMARK   40  A    between atoms: P_64  and  O_61 
ROOT
HETATM    1  O   UNK N   1      19.199  15.183   0.663  0.00  0.00    -0.631 OA
HETATM    2  P   UNK N   1      19.911  14.409   1.808  0.00  0.00     0.401 P 
ENDROOT
BRANCH   2   3
HETATM    3  O   UNK N   1      21.000  15.575   1.141  0.00  0.00    -0.307 OA
HETATM    4  H   UNK N   1      21.883  15.373   0.795  0.00  0.00     0.222 HD
ENDBRANCH   2   3
BRANCH   2   5
HETATM    5  O   UNK N   1      21.612  14.191   2.000  0.00  0.00    -0.296 OA
BRANCH   5   6
HETATM    6  C   UNK N   1      21.891  12.972   1.403  0.00  0.00     0.192 C 
BRANCH   6   7
HETATM    7  C   UNK N   1      23.395  12.799   1.257  0.00  0.00     0.008 C 
HETATM    8  C   UNK N   1      23.687  11.320   1.039  0.00  0.00     0.020 C 
HETATM    9  C   UNK N   1      23.802  13.547   0.002  0.00  0.00     0.020 C 
BRANCH   7  10
HETATM   10  C   UNK N   1      24.188  13.298   2.503  0.00  0.00     0.202 C 
BRANCH  10  11
HETATM   11  C   UNK N   1      25.623  12.827   2.626  0.00  0.00     0.141 C 
BRANCH  11  12
HETATM   12  N   UNK N   1      26.576  13.406   1.978  0.00  0.00    -0.372 N 
ATOM     13  HN  UNK N   1      27.274  12.830   1.506  1.00  0.00     0.161 HD
BRANCH  12  14
HETATM   14  C   UNK N   1      26.685  14.843   1.900  0.00  0.00     0.129 C 
BRANCH  14  15
HETATM   15  C   UNK N   1      27.379  15.377   3.148  0.00  0.00     0.103 C 
BRANCH  15  16
HETATM   16  C   UNK N   1      28.508  14.504   3.619  0.00  0.00     0.112 C 
BRANCH  16  17
HETATM   17  N   UNK N   1      29.681  14.609   3.088  0.00  0.00    -0.374 N 
ATOM     18  HN  UNK N   1      30.026  15.542   2.863  1.00  0.00     0.161 HD
BRANCH  17  19
HETATM   19  C   UNK N   1      30.532  13.478   2.794  0.00  0.00     0.132 C 
BRANCH  19  20
HETATM   20  C   UNK N   1      31.733  13.415   3.709  0.00  0.00     0.102 C 
BRANCH  20  21
HETATM   21  S   UNK N   1      33.186  13.720   2.674  0.00  0.00    -0.091 SA
BRANCH  21  22
HETATM   22  C   UNK N   1      33.379  15.388   3.282  0.00  0.00     0.188 C 
HETATM   23  O   UNK N   1      33.117  16.333   2.557  0.00  0.00    -0.285 OA
BRANCH  22  24
HETATM   24  C   UNK N   1      33.892  15.630   4.669  0.00  0.00     0.122 C 
BRANCH  24  25
HETATM   25  C   UNK N   1      33.162  16.785   5.358  0.00  0.00     0.126 C 
BRANCH  25  26
HETATM   26  C   UNK N   1      31.668  16.488   5.478  0.00  0.00     0.032 C 
BRANCH  26  27
HETATM   27  C   UNK N   1      30.777  17.540   4.823  0.00  0.00     0.002 C 
BRANCH  27  28
HETATM   28  C   UNK N   1      29.386  17.555   5.432  0.00  0.00     0.000 C 
BRANCH  28  29
HETATM   29  C   UNK N   1      28.574  18.701   4.854  0.00  0.00     0.000 C 
BRANCH  29  30
HETATM   30  C   UNK N   1      27.863  19.477   5.948  0.00  0.00    -0.000 C 
BRANCH  30  31
HETATM   31  C   UNK N   1      26.769  20.353   5.363  0.00  0.00    -0.005 C 
HETATM   32  C   UNK N   1      26.819  20.315   3.848  0.00  0.00     0.005 C 
ENDBRANCH  30  31
ENDBRANCH  29  30
ENDBRANCH  28  29
ENDBRANCH  27  28
ENDBRANCH  26  27
ENDBRANCH  25  26
BRANCH  25  33
HETATM   33  O   UNK N   1      33.368  17.981   4.668  0.00  0.00    -0.395 OA
HETATM   34  H   UNK N   1      33.594  18.397   3.821  0.00  0.00     0.210 HD
ENDBRANCH  25  33
ENDBRANCH  24  25
ENDBRANCH  22  24
ENDBRANCH  21  22
ENDBRANCH  20  21
ENDBRANCH  19  20
ENDBRANCH  17  19
ENDBRANCH  16  17
BRANCH  16  35
HETATM   35  O   UNK N   1      28.270  13.606   4.597  0.00  0.00    -0.350 OA
HETATM   36  H   UNK N   1      27.452  13.297   4.931  0.00  0.00     0.219 HD
ENDBRANCH  16  35
ENDBRANCH  15  16
ENDBRANCH  14  15
ENDBRANCH  12  14
ENDBRANCH  11  12
BRANCH  11  37
HETATM   37  O   UNK N   1      25.897  11.796   3.454  0.00  0.00    -0.348 OA
HETATM   38  H   UNK N   1      25.785  10.879   3.607  0.00  0.00     0.219 HD
ENDBRANCH  11  37
ENDBRANCH  10  11
BRANCH  10  39
HETATM   39  O   UNK N   1      23.497  12.943   3.665  0.00  0.00    -0.387 OA
HETATM   40  H   UNK N   1      22.530  12.963   3.725  0.00  0.00     0.210 HD
ENDBRANCH  10  39
ENDBRANCH   7  10
ENDBRANCH   6   7
ENDBRANCH   5   6
ENDBRANCH   2   5
BRANCH   2  41
HETATM   41  O   UNK N   1      19.602  15.324   3.268  0.00  0.00    -0.195 OA
BRANCH  41  42
HETATM   42  P   UNK N   1      19.557  14.387   4.743  0.00  0.00     0.401 P 
HETATM   43  O   UNK N   1      18.215  13.623   4.912  0.00  0.00    -0.631 OA
BRANCH  42  44
HETATM   44  O   UNK N   1      20.866  13.256   4.832  0.00  0.00    -0.307 OA
HETATM   45  H   UNK N   1      21.391  12.816   4.146  0.00  0.00     0.222 HD
ENDBRANCH  42  44
BRANCH  42  46
HETATM   46  O   UNK N   1      19.688  15.546   6.028  0.00  0.00    -0.294 OA
BRANCH  46  47
HETATM   47  C   UNK N   1      20.737  15.147   6.862  0.00  0.00     0.215 C 
BRANCH  47  48
HETATM   48  C   UNK N   1      21.843  16.192   6.792  0.00  0.00     0.180 C 
HETATM   49  C   UNK N   1      23.206  15.693   6.237  0.00  0.00     0.197 C 
HETATM   50  C   UNK N   1      23.313  16.489   4.950  0.00  0.00     0.199 C 
HETATM   51  C   UNK N   1      22.603  17.749   5.404  0.00  0.00     0.262 C 
HETATM   52  O   UNK N   1      21.419  17.277   5.993  0.00  0.00    -0.353 OA
BRANCH  49  53
HETATM   53  O   UNK N   1      23.271  14.284   5.995  0.00  0.00    -0.286 OA
BRANCH  53  54
HETATM   54  P   UNK N   1      24.486  13.343   6.911  0.00  0.00     0.391 P 
HETATM   55  O   UNK N   1      25.452  13.866   5.813  0.00  0.00    -0.632 OA
BRANCH  54  56
HETATM   56  O   UNK N   1      25.124  11.942   6.108  0.00  0.00    -0.307 OA
HETATM   57  H   UNK N   1      25.581  11.087   6.123  0.00  0.00     0.222 HD
ENDBRANCH  54  56
BRANCH  54  58
HETATM   58  O   UNK N   1      23.310  12.131   6.514  0.00  0.00    -0.307 OA
HETATM   59  H   UNK N   1      22.589  11.931   7.131  0.00  0.00     0.222 HD
ENDBRANCH  54  58
ENDBRANCH  53  54
ENDBRANCH  49  53
BRANCH  50  60
HETATM   60  O   UNK N   1      24.646  16.712   4.598  0.00  0.00    -0.388 OA
HETATM   61  H   UNK N   1      25.382  16.166   4.914  0.00  0.00     0.210 HD
ENDBRANCH  50  60
BRANCH  51  62
HETATM   62  N   UNK N   1      22.318  18.769   4.390  0.00  0.00    -0.297 N 
HETATM   63  C   UNK N   1      23.248  19.595   3.843  0.00  0.00     0.188 A 
HETATM   64  N   UNK N   1      22.765  20.231   2.739  0.00  0.00    -0.346 N 
HETATM   65  C   UNK N   1      21.516  19.757   2.605  0.00  0.00     0.122 A 
ATOM     66  HN  UNK N   1      23.243  20.912   2.150  1.00  0.00     0.167 HD
HETATM   67  C   UNK N   1      20.580  19.991   1.610  0.00  0.00     0.131 A 
HETATM   68  C   UNK N   1      21.241  18.888   3.598  0.00  0.00     0.142 A 
HETATM   69  N   UNK N   1      19.381  19.346   1.692  0.00  0.00    -0.337 N 
HETATM   70  C   UNK N   1      19.114  18.481   2.725  0.00  0.00     0.183 A 
ATOM     71  HN  UNK N   1      18.671  19.508   0.977  1.00  0.00     0.168 HD
HETATM   72  N   UNK N   1      20.062  18.231   3.680  0.00  0.00    -0.336 N 
ATOM     73  HN  UNK N   1      19.885  17.566   4.432  1.00  0.00     0.168 HD
BRANCH  67  74
HETATM   74  N   UNK N   1      20.871  20.832   0.517  0.00  0.00    -0.383 N 
HETATM   75  H   UNK N   1      20.814  21.810   0.618  0.00  0.00     0.157 HD
HETATM   76  H   UNK N   1      21.132  20.442  -0.349  0.00  0.00     0.157 HD
ENDBRANCH  67  74
ENDBRANCH  51  62
ENDBRANCH  47  48
ENDBRANCH  46  47
ENDBRANCH  42  46
ENDBRANCH  41  42
ENDBRANCH   2  41
TORSDOF 40
ENDMDL
