MODEL 1
REMARK VINA RESULT:      -8.0      0.000      0.000
REMARK  20 active torsions:
REMARK  status: ('A' for Active; 'I' for Inactive)
REMARK    1  A    between atoms: C_16  and  C_8 
REMARK    2  A    between atoms: O_49  and  C_8 
REMARK    3  A    between atoms: C_17  and  C_9 
REMARK    4  A    between atoms: O_50  and  C_9 
REMARK    5  A    between atoms: C_13  and  C_12 
REMARK    6  A    between atoms: C_24  and  C_14 
REMARK    7  A    between atoms: C_19  and  O_40 
REMARK    8  A    between atoms: C_20  and  O_41 
REMARK    9  A    between atoms: C_21  and  O_42 
REMARK   10  A    between atoms: C_22  and  O_43 
REMARK   11  A    between atoms: N_28  and  C_23 
REMARK   12  A    between atoms: N_29  and  C_24 
REMARK   13  A    between atoms: O_44  and  C_24 
REMARK   14  A    between atoms: C_26  and  N_37 
REMARK   15  A    between atoms: C_27  and  N_38 
REMARK   16  A    between atoms: P_54  and  O_46 
REMARK   17  A    between atoms: P_54  and  O_49 
REMARK   18  A    between atoms: P_55  and  O_50 
REMARK   19  A    between atoms: P_54  and  O_53 
REMARK   20  A    between atoms: P_55  and  O_53 
ROOT
HETATM    1  O   UNK N   1      35.230  13.105   7.083  0.00  0.00    -0.631 OA
HETATM    2  P   UNK N   1      33.761  13.558   6.877  0.00  0.00     0.402 P 
ENDROOT
BRANCH   2   3
HETATM    3  O   UNK N   1      32.688  12.380   7.564  0.00  0.00    -0.307 OA
HETATM    4  H   UNK N   1      32.027  12.645   8.224  0.00  0.00     0.222 HD
ENDBRANCH   2   3
BRANCH   2   5
HETATM    5  O   UNK N   1      33.571  15.030   7.741  0.00  0.00    -0.294 OA
BRANCH   5   6
HETATM    6  C   UNK N   1      32.918  14.599   8.894  0.00  0.00     0.215 C 
BRANCH   6   7
HETATM    7  C   UNK N   1      33.721  15.005  10.087  0.00  0.00     0.180 C 
HETATM    8  C   UNK N   1      34.722  16.107   9.821  0.00  0.00     0.182 C 
HETATM    9  C   UNK N   1      35.625  16.007  11.052  0.00  0.00     0.198 C 
HETATM   10  C   UNK N   1      35.201  14.634  11.597  0.00  0.00     0.259 C 
HETATM   11  O   UNK N   1      34.524  13.950  10.573  0.00  0.00    -0.353 OA
BRANCH   8  12
HETATM   12  O   UNK N   1      34.125  17.361   9.668  0.00  0.00    -0.390 OA
HETATM   13  H   UNK N   1      33.286  17.565  10.110  0.00  0.00     0.210 HD
ENDBRANCH   8  12
BRANCH   9  14
HETATM   14  O   UNK N   1      36.966  16.054  10.668  0.00  0.00    -0.388 OA
HETATM   15  H   UNK N   1      37.936  16.086  10.680  0.00  0.00     0.210 HD
ENDBRANCH   9  14
BRANCH  10  16
HETATM   16  N   UNK N   1      36.146  13.835  12.376  0.00  0.00    -0.336 N 
HETATM   17  C   UNK N   1      36.405  12.539  12.062  0.00  0.00     0.094 A 
HETATM   18  C   UNK N   1      36.856  11.663  13.051  0.00  0.00     0.026 A 
HETATM   19  C   UNK N   1      36.977  12.080  14.396  0.00  0.00    -0.030 A 
HETATM   20  C   UNK N   1      36.747  13.476  14.675  0.00  0.00     0.037 A 
HETATM   21  C   UNK N   1      36.373  14.298  13.624  0.00  0.00     0.109 A 
BRANCH  19  22
HETATM   22  C   UNK N   1      37.187  10.980  15.461  0.00  0.00     0.089 C 
HETATM   23  C   UNK N   1      38.140   9.863  15.044  0.00  0.00     0.017 C 
HETATM   24  C   UNK N   1      37.461   8.758  14.288  0.00  0.00     0.001 C 
HETATM   25  C   UNK N   1      36.639   8.019  15.317  0.00  0.00     0.007 C 
HETATM   26  C   UNK N   1      35.546   8.912  15.904  0.00  0.00     0.079 C 
HETATM   27  C   UNK N   1      35.886  10.385  16.020  0.00  0.00     0.135 C 
HETATM   28  O   UNK N   1      35.073  11.116  16.562  0.00  0.00    -0.297 OA
ENDBRANCH  19  22
BRANCH  20  29
HETATM   29  C   UNK N   1      36.717  14.187  15.989  0.00  0.00     0.145 C 
BRANCH  29  30
HETATM   30  N   UNK N   1      35.838  13.944  16.881  0.00  0.00    -0.379 N 
HETATM   31  H   UNK N   1      35.690  14.282  17.794  0.00  0.00     0.158 HD
ATOM     32  HN  UNK N   1      35.145  13.255  16.588  1.00  0.00     0.158 HD
ENDBRANCH  29  30
BRANCH  29  33
HETATM   33  O   UNK N   1      37.562  15.222  16.188  0.00  0.00    -0.346 OA
HETATM   34  H   UNK N   1      37.295  15.979  16.669  0.00  0.00     0.219 HD
ENDBRANCH  29  33
ENDBRANCH  20  29
ENDBRANCH  10  16
ENDBRANCH   6   7
ENDBRANCH   5   6
ENDBRANCH   2   5
BRANCH   2  35
HETATM   35  O   UNK N   1      33.466  13.913   5.200  0.00  0.00    -0.188 OA
BRANCH  35  36
HETATM   36  P   UNK N   1      31.799  13.564   4.859  0.00  0.00     0.417 P 
HETATM   37  O   UNK N   1      31.042  14.188   6.062  0.00  0.00    -0.624 OA
HETATM   38  O   UNK N   1      31.445  11.868   4.968  0.00  0.00    -0.624 OA
BRANCH  36  39
HETATM   39  O   UNK N   1      31.111  14.353   3.447  0.00  0.00    -0.287 OA
BRANCH  39  40
HETATM   40  C   UNK N   1      29.705  14.210   3.420  0.00  0.00     0.216 C 
BRANCH  40  41
HETATM   41  C   UNK N   1      29.014  15.274   2.549  0.00  0.00     0.180 C 
HETATM   42  C   UNK N   1      27.497  15.257   2.529  0.00  0.00     0.182 C 
HETATM   43  C   UNK N   1      27.139  16.187   3.643  0.00  0.00     0.198 C 
HETATM   44  C   UNK N   1      28.367  17.105   3.735  0.00  0.00     0.262 C 
HETATM   45  O   UNK N   1      29.417  16.557   2.960  0.00  0.00    -0.353 OA
BRANCH  42  46
HETATM   46  O   UNK N   1      26.944  13.982   2.685  0.00  0.00    -0.390 OA
HETATM   47  H   UNK N   1      26.520  13.116   2.571  0.00  0.00     0.210 HD
ENDBRANCH  42  46
BRANCH  43  48
HETATM   48  O   UNK N   1      25.973  16.903   3.349  0.00  0.00    -0.388 OA
HETATM   49  H   UNK N   1      25.122  16.619   3.718  0.00  0.00     0.210 HD
ENDBRANCH  43  48
BRANCH  44  50
HETATM   50  N   UNK N   1      28.783  17.215   5.138  0.00  0.00    -0.297 N 
HETATM   51  C   UNK N   1      27.985  17.302   6.235  0.00  0.00     0.188 A 
HETATM   52  N   UNK N   1      28.720  17.445   7.374  0.00  0.00    -0.346 N 
HETATM   53  C   UNK N   1      29.995  17.443   6.947  0.00  0.00     0.122 A 
ATOM     54  HN  UNK N   1      28.381  17.533   8.332  1.00  0.00     0.167 HD
HETATM   55  C   UNK N   1      31.176  17.563   7.661  0.00  0.00     0.131 A 
HETATM   56  C   UNK N   1      30.032  17.303   5.608  0.00  0.00     0.142 A 
HETATM   57  N   UNK N   1      32.351  17.532   6.965  0.00  0.00    -0.337 N 
HETATM   58  C   UNK N   1      32.361  17.388   5.597  0.00  0.00     0.183 A 
ATOM     59  HN  UNK N   1      33.235  17.616   7.467  1.00  0.00     0.168 HD
HETATM   60  N   UNK N   1      31.186  17.275   4.904  0.00  0.00    -0.336 N 
ATOM     61  HN  UNK N   1      31.181  17.172   3.890  1.00  0.00     0.168 HD
BRANCH  55  62
HETATM   62  N   UNK N   1      31.173  17.715   9.062  0.00  0.00    -0.383 N 
HETATM   63  H   UNK N   1      30.341  17.580   9.570  0.00  0.00     0.157 HD
HETATM   64  H   UNK N   1      32.003  17.958   9.532  0.00  0.00     0.157 HD
ENDBRANCH  55  62
ENDBRANCH  44  50
ENDBRANCH  40  41
ENDBRANCH  39  40
ENDBRANCH  36  39
ENDBRANCH  35  36
ENDBRANCH   2  35
TORSDOF 20
ENDMDL
MODEL 2
REMARK VINA RESULT:      -7.5      2.576      4.641
REMARK  20 active torsions:
REMARK  status: ('A' for Active; 'I' for Inactive)
REMARK    1  A    between atoms: C_16  and  C_8 
REMARK    2  A    between atoms: O_49  and  C_8 
REMARK    3  A    between atoms: C_17  and  C_9 
REMARK    4  A    between atoms: O_50  and  C_9 
REMARK    5  A    between atoms: C_13  and  C_12 
REMARK    6  A    between atoms: C_24  and  C_14 
REMARK    7  A    between atoms: C_19  and  O_40 
REMARK    8  A    between atoms: C_20  and  O_41 
REMARK    9  A    between atoms: C_21  and  O_42 
REMARK   10  A    between atoms: C_22  and  O_43 
REMARK   11  A    between atoms: N_28  and  C_23 
REMARK   12  A    between atoms: N_29  and  C_24 
REMARK   13  A    between atoms: O_44  and  C_24 
REMARK   14  A    between atoms: C_26  and  N_37 
REMARK   15  A    between atoms: C_27  and  N_38 
REMARK   16  A    between atoms: P_54  and  O_46 
REMARK   17  A    between atoms: P_54  and  O_49 
REMARK   18  A    between atoms: P_55  and  O_50 
REMARK   19  A    between atoms: P_54  and  O_53 
REMARK   20  A    between atoms: P_55  and  O_53 
ROOT
HETATM    1  O   UNK N   1      35.177  14.185   9.189  0.00  0.00    -0.631 OA
HETATM    2  P   UNK N   1      34.399  15.338   9.877  0.00  0.00     0.402 P 
ENDROOT
BRANCH   2   3
HETATM    3  O   UNK N   1      32.769  15.376   9.284  0.00  0.00    -0.307 OA
HETATM    4  H   UNK N   1      32.480  16.087   8.690  0.00  0.00     0.222 HD
ENDBRANCH   2   3
BRANCH   2   5
HETATM    5  O   UNK N   1      34.353  14.971  11.554  0.00  0.00    -0.294 OA
BRANCH   5   6
HETATM    6  C   UNK N   1      35.699  14.739  11.830  0.00  0.00     0.215 C 
BRANCH   6   7
HETATM    7  C   UNK N   1      35.843  13.386  12.448  0.00  0.00     0.180 C 
HETATM    8  C   UNK N   1      34.587  12.544  12.406  0.00  0.00     0.182 C 
HETATM    9  C   UNK N   1      34.913  11.455  13.430  0.00  0.00     0.198 C 
HETATM   10  C   UNK N   1      36.124  12.087  14.133  0.00  0.00     0.259 C 
HETATM   11  O   UNK N   1      36.138  13.459  13.827  0.00  0.00    -0.353 OA
BRANCH   8  12
HETATM   12  O   UNK N   1      34.306  12.045  11.132  0.00  0.00    -0.390 OA
HETATM   13  H   UNK N   1      34.999  12.007  10.454  0.00  0.00     0.210 HD
ENDBRANCH   8  12
BRANCH   9  14
HETATM   14  O   UNK N   1      33.825  11.258  14.283  0.00  0.00    -0.388 OA
HETATM   15  H   UNK N   1      32.961  11.002  14.643  0.00  0.00     0.210 HD
ENDBRANCH   9  14
BRANCH  10  16
HETATM   16  N   UNK N   1      36.421  11.746  15.524  0.00  0.00    -0.336 N 
HETATM   17  C   UNK N   1      36.534  10.454  15.927  0.00  0.00     0.094 A 
HETATM   18  C   UNK N   1      36.292  10.119  17.260  0.00  0.00     0.026 A 
HETATM   19  C   UNK N   1      35.853  11.090  18.189  0.00  0.00    -0.030 A 
HETATM   20  C   UNK N   1      35.800  12.458  17.734  0.00  0.00     0.037 A 
HETATM   21  C   UNK N   1      36.128  12.718  16.413  0.00  0.00     0.109 A 
BRANCH  19  22
HETATM   22  C   UNK N   1      35.323  10.581  19.547  0.00  0.00     0.089 C 
HETATM   23  C   UNK N   1      36.353  10.575  20.673  0.00  0.00     0.017 C 
HETATM   24  C   UNK N   1      37.173   9.318  20.718  0.00  0.00     0.001 C 
HETATM   25  C   UNK N   1      36.235   8.250  21.229  0.00  0.00     0.007 C 
HETATM   26  C   UNK N   1      35.081   8.010  20.255  0.00  0.00     0.079 C 
HETATM   27  C   UNK N   1      34.609   9.222  19.477  0.00  0.00     0.135 C 
HETATM   28  O   UNK N   1      33.633   9.091  18.754  0.00  0.00    -0.297 OA
ENDBRANCH  19  22
BRANCH  20  29
HETATM   29  C   UNK N   1      35.303  13.675  18.445  0.00  0.00     0.145 C 
BRANCH  29  30
HETATM   30  N   UNK N   1      35.573  14.858  18.051  0.00  0.00    -0.379 N 
HETATM   31  H   UNK N   1      36.330  15.467  18.211  0.00  0.00     0.158 HD
ATOM     32  HN  UNK N   1      34.855  15.255  17.444  1.00  0.00     0.158 HD
ENDBRANCH  29  30
BRANCH  29  33
HETATM   33  O   UNK N   1      34.662  13.522  19.624  0.00  0.00    -0.346 OA
HETATM   34  H   UNK N   1      34.877  14.054  20.364  0.00  0.00     0.219 HD
ENDBRANCH  29  33
ENDBRANCH  20  29
ENDBRANCH  10  16
ENDBRANCH   6   7
ENDBRANCH   5   6
ENDBRANCH   2   5
BRANCH   2  35
HETATM   35  O   UNK N   1      35.265  16.837   9.710  0.00  0.00    -0.188 OA
BRANCH  35  36
HETATM   36  P   UNK N   1      34.475  17.782   8.485  0.00  0.00     0.417 P 
HETATM   37  O   UNK N   1      35.308  19.092   8.442  0.00  0.00    -0.624 OA
HETATM   38  O   UNK N   1      32.892  18.302   8.972  0.00  0.00    -0.624 OA
BRANCH  36  39
HETATM   39  O   UNK N   1      34.553  17.154   6.845  0.00  0.00    -0.287 OA
BRANCH  39  40
HETATM   40  C   UNK N   1      33.469  17.625   6.069  0.00  0.00     0.216 C 
BRANCH  40  41
HETATM   41  C   UNK N   1      32.988  16.596   5.031  0.00  0.00     0.180 C 
HETATM   42  C   UNK N   1      32.829  15.166   5.514  0.00  0.00     0.182 C 
HETATM   43  C   UNK N   1      31.404  15.123   5.961  0.00  0.00     0.198 C 
HETATM   44  C   UNK N   1      30.745  16.229   5.123  0.00  0.00     0.262 C 
HETATM   45  O   UNK N   1      31.752  17.002   4.499  0.00  0.00    -0.353 OA
BRANCH  42  46
HETATM   46  O   UNK N   1      33.728  14.807   6.523  0.00  0.00    -0.390 OA
HETATM   47  H   UNK N   1      34.164  14.500   7.334  0.00  0.00     0.210 HD
ENDBRANCH  42  46
BRANCH  43  48
HETATM   48  O   UNK N   1      30.833  13.869   5.711  0.00  0.00    -0.388 OA
HETATM   49  H   UNK N   1      31.300  13.224   5.157  0.00  0.00     0.210 HD
ENDBRANCH  43  48
BRANCH  44  50
HETATM   50  N   UNK N   1      29.930  17.077   5.999  0.00  0.00    -0.297 N 
HETATM   51  C   UNK N   1      29.859  17.041   7.356  0.00  0.00     0.188 A 
HETATM   52  N   UNK N   1      28.955  17.945   7.831  0.00  0.00    -0.346 N 
HETATM   53  C   UNK N   1      28.472  18.540   6.726  0.00  0.00     0.122 A 
ATOM     54  HN  UNK N   1      28.703  18.129   8.802  1.00  0.00     0.167 HD
HETATM   55  C   UNK N   1      27.518  19.536   6.593  0.00  0.00     0.131 A 
HETATM   56  C   UNK N   1      29.058  18.021   5.630  0.00  0.00     0.142 A 
HETATM   57  N   UNK N   1      27.207  19.960   5.332  0.00  0.00    -0.337 N 
HETATM   58  C   UNK N   1      27.820  19.414   4.229  0.00  0.00     0.183 A 
ATOM     59  HN  UNK N   1      26.509  20.693   5.207  1.00  0.00     0.168 HD
HETATM   60  N   UNK N   1      28.758  18.428   4.375  0.00  0.00    -0.336 N 
ATOM     61  HN  UNK N   1      29.216  18.012   3.565  1.00  0.00     0.168 HD
BRANCH  55  62
HETATM   62  N   UNK N   1      26.882  20.097   7.719  0.00  0.00    -0.383 N 
HETATM   63  H   UNK N   1      25.919  20.303   7.688  0.00  0.00     0.157 HD
HETATM   64  H   UNK N   1      27.400  20.283   8.535  0.00  0.00     0.157 HD
ENDBRANCH  55  62
ENDBRANCH  44  50
ENDBRANCH  40  41
ENDBRANCH  39  40
ENDBRANCH  36  39
ENDBRANCH  35  36
ENDBRANCH   2  35
TORSDOF 20
ENDMDL
MODEL 3
REMARK VINA RESULT:      -7.5      5.773     10.051
REMARK  20 active torsions:
REMARK  status: ('A' for Active; 'I' for Inactive)
REMARK    1  A    between atoms: C_16  and  C_8 
REMARK    2  A    between atoms: O_49  and  C_8 
REMARK    3  A    between atoms: C_17  and  C_9 
REMARK    4  A    between atoms: O_50  and  C_9 
REMARK    5  A    between atoms: C_13  and  C_12 
REMARK    6  A    between atoms: C_24  and  C_14 
REMARK    7  A    between atoms: C_19  and  O_40 
REMARK    8  A    between atoms: C_20  and  O_41 
REMARK    9  A    between atoms: C_21  and  O_42 
REMARK   10  A    between atoms: C_22  and  O_43 
REMARK   11  A    between atoms: N_28  and  C_23 
REMARK   12  A    between atoms: N_29  and  C_24 
REMARK   13  A    between atoms: O_44  and  C_24 
REMARK   14  A    between atoms: C_26  and  N_37 
REMARK   15  A    between atoms: C_27  and  N_38 
REMARK   16  A    between atoms: P_54  and  O_46 
REMARK   17  A    between atoms: P_54  and  O_49 
REMARK   18  A    between atoms: P_55  and  O_50 
REMARK   19  A    between atoms: P_54  and  O_53 
REMARK   20  A    between atoms: P_55  and  O_53 
ROOT
HETATM    1  O   UNK N   1      25.439  11.075   4.303  0.00  0.00    -0.631 OA
HETATM    2  P   UNK N   1      24.154  11.835   4.723  0.00  0.00     0.402 P 
ENDROOT
BRANCH   2   3
HETATM    3  O   UNK N   1      24.119  12.010   6.449  0.00  0.00    -0.307 OA
HETATM    4  H   UNK N   1      23.898  11.253   7.014  0.00  0.00     0.222 HD
ENDBRANCH   2   3
BRANCH   2   5
HETATM    5  O   UNK N   1      24.255  13.401   4.025  0.00  0.00    -0.294 OA
BRANCH   5   6
HETATM    6  C   UNK N   1      25.628  13.639   4.063  0.00  0.00     0.215 C 
BRANCH   6   7
HETATM    7  C   UNK N   1      25.899  14.768   5.003  0.00  0.00     0.180 C 
HETATM    8  C   UNK N   1      25.185  16.056   4.656  0.00  0.00     0.182 C 
HETATM    9  C   UNK N   1      25.953  17.072   5.503  0.00  0.00     0.198 C 
HETATM   10  C   UNK N   1      27.191  16.242   5.880  0.00  0.00     0.259 C 
HETATM   11  O   UNK N   1      27.261  15.145   5.005  0.00  0.00    -0.353 OA
BRANCH   8  12
HETATM   12  O   UNK N   1      23.817  16.015   4.938  0.00  0.00    -0.390 OA
HETATM   13  H   UNK N   1      23.362  15.165   5.046  0.00  0.00     0.210 HD
ENDBRANCH   8  12
BRANCH   9  14
HETATM   14  O   UNK N   1      26.260  18.199   4.738  0.00  0.00    -0.388 OA
HETATM   15  H   UNK N   1      26.385  19.114   4.439  0.00  0.00     0.210 HD
ENDBRANCH   9  14
BRANCH  10  16
HETATM   16  N   UNK N   1      28.460  16.912   6.159  0.00  0.00    -0.336 N 
HETATM   17  C   UNK N   1      29.541  16.746   5.353  0.00  0.00     0.094 A 
HETATM   18  C   UNK N   1      30.825  16.927   5.869  0.00  0.00     0.026 A 
HETATM   19  C   UNK N   1      31.029  17.208   7.240  0.00  0.00    -0.030 A 
HETATM   20  C   UNK N   1      29.855  17.432   8.047  0.00  0.00     0.037 A 
HETATM   21  C   UNK N   1      28.614  17.304   7.441  0.00  0.00     0.109 A 
BRANCH  19  22
HETATM   22  C   UNK N   1      32.472  17.093   7.778  0.00  0.00     0.089 C 
HETATM   23  C   UNK N   1      33.548  17.637   6.841  0.00  0.00     0.017 C 
HETATM   24  C   UNK N   1      34.025  16.627   5.839  0.00  0.00     0.001 C 
HETATM   25  C   UNK N   1      34.855  15.644   6.631  0.00  0.00     0.007 C 
HETATM   26  C   UNK N   1      34.004  14.900   7.662  0.00  0.00     0.079 C 
HETATM   27  C   UNK N   1      32.856  15.686   8.263  0.00  0.00     0.135 C 
HETATM   28  O   UNK N   1      32.207  15.158   9.152  0.00  0.00    -0.297 OA
ENDBRANCH  19  22
BRANCH  20  29
HETATM   29  C   UNK N   1      29.746  17.659   9.520  0.00  0.00     0.145 C 
BRANCH  29  30
HETATM   30  N   UNK N   1      29.777  18.824  10.038  0.00  0.00    -0.379 N 
HETATM   31  H   UNK N   1      29.096  19.523  10.171  0.00  0.00     0.158 HD
ATOM     32  HN  UNK N   1      30.699  19.086  10.388  1.00  0.00     0.158 HD
ENDBRANCH  29  30
BRANCH  29  33
HETATM   33  O   UNK N   1      29.754  16.589  10.345  0.00  0.00    -0.346 OA
HETATM   34  H   UNK N   1      28.959  16.153  10.579  0.00  0.00     0.219 HD
ENDBRANCH  29  33
ENDBRANCH  20  29
ENDBRANCH  10  16
ENDBRANCH   6   7
ENDBRANCH   5   6
ENDBRANCH   2   5
BRANCH   2  35
HETATM   35  O   UNK N   1      22.748  11.068   4.046  0.00  0.00    -0.188 OA
BRANCH  35  36
HETATM   36  P   UNK N   1      21.763  10.493   5.355  0.00  0.00     0.417 P 
HETATM   37  O   UNK N   1      22.728   9.587   6.167  0.00  0.00    -0.624 OA
HETATM   38  O   UNK N   1      20.517   9.411   4.817  0.00  0.00    -0.624 OA
BRANCH  36  39
HETATM   39  O   UNK N   1      21.216  11.702   6.508  0.00  0.00    -0.287 OA
BRANCH  39  40
HETATM   40  C   UNK N   1      20.369  12.649   5.888  0.00  0.00     0.216 C 
BRANCH  40  41
HETATM   41  C   UNK N   1      21.028  14.032   5.742  0.00  0.00     0.180 C 
HETATM   42  C   UNK N   1      20.139  15.238   5.981  0.00  0.00     0.182 C 
HETATM   43  C   UNK N   1      20.317  15.500   7.441  0.00  0.00     0.198 C 
HETATM   44  C   UNK N   1      21.703  14.905   7.732  0.00  0.00     0.262 C 
HETATM   45  O   UNK N   1      22.119  14.131   6.623  0.00  0.00    -0.353 OA
BRANCH  42  46
HETATM   46  O   UNK N   1      18.802  15.034   5.622  0.00  0.00    -0.390 OA
HETATM   47  H   UNK N   1      17.952  14.694   5.299  0.00  0.00     0.210 HD
ENDBRANCH  42  46
BRANCH  43  48
HETATM   48  O   UNK N   1      20.268  16.871   7.719  0.00  0.00    -0.388 OA
HETATM   49  H   UNK N   1      20.923  17.469   7.327  0.00  0.00     0.210 HD
ENDBRANCH  43  48
BRANCH  44  50
HETATM   50  N   UNK N   1      21.624  14.062   8.930  0.00  0.00    -0.297 N 
HETATM   51  C   UNK N   1      20.519  13.764   9.663  0.00  0.00     0.188 A 
HETATM   52  N   UNK N   1      20.832  12.993  10.744  0.00  0.00    -0.346 N 
HETATM   53  C   UNK N   1      22.163  12.824  10.654  0.00  0.00     0.122 A 
ATOM     54  HN  UNK N   1      20.202  12.627  11.457  1.00  0.00     0.167 HD
HETATM   55  C   UNK N   1      23.033  12.133  11.481  0.00  0.00     0.131 A 
HETATM   56  C   UNK N   1      22.637  13.463   9.567  0.00  0.00     0.142 A 
HETATM   57  N   UNK N   1      24.360  12.127  11.153  0.00  0.00    -0.337 N 
HETATM   58  C   UNK N   1      24.817  12.787  10.037  0.00  0.00     0.183 A 
ATOM     59  HN  UNK N   1      25.021  11.624  11.745  1.00  0.00     0.168 HD
HETATM   60  N   UNK N   1      23.947  13.470   9.231  0.00  0.00    -0.336 N 
ATOM     61  HN  UNK N   1      24.275  13.967   8.404  1.00  0.00     0.168 HD
BRANCH  55  62
HETATM   62  N   UNK N   1      22.572  11.458  12.630  0.00  0.00    -0.383 N 
HETATM   63  H   UNK N   1      22.184  10.557  12.548  0.00  0.00     0.157 HD
HETATM   64  H   UNK N   1      22.639  11.887  13.512  0.00  0.00     0.157 HD
ENDBRANCH  55  62
ENDBRANCH  44  50
ENDBRANCH  40  41
ENDBRANCH  39  40
ENDBRANCH  36  39
ENDBRANCH  35  36
ENDBRANCH   2  35
TORSDOF 20
ENDMDL
MODEL 4
REMARK VINA RESULT:      -7.5      6.256     10.222
REMARK  20 active torsions:
REMARK  status: ('A' for Active; 'I' for Inactive)
REMARK    1  A    between atoms: C_16  and  C_8 
REMARK    2  A    between atoms: O_49  and  C_8 
REMARK    3  A    between atoms: C_17  and  C_9 
REMARK    4  A    between atoms: O_50  and  C_9 
REMARK    5  A    between atoms: C_13  and  C_12 
REMARK    6  A    between atoms: C_24  and  C_14 
REMARK    7  A    between atoms: C_19  and  O_40 
REMARK    8  A    between atoms: C_20  and  O_41 
REMARK    9  A    between atoms: C_21  and  O_42 
REMARK   10  A    between atoms: C_22  and  O_43 
REMARK   11  A    between atoms: N_28  and  C_23 
REMARK   12  A    between atoms: N_29  and  C_24 
REMARK   13  A    between atoms: O_44  and  C_24 
REMARK   14  A    between atoms: C_26  and  N_37 
REMARK   15  A    between atoms: C_27  and  N_38 
REMARK   16  A    between atoms: P_54  and  O_46 
REMARK   17  A    between atoms: P_54  and  O_49 
REMARK   18  A    between atoms: P_55  and  O_50 
REMARK   19  A    between atoms: P_54  and  O_53 
REMARK   20  A    between atoms: P_55  and  O_53 
ROOT
HETATM    1  O   UNK N   1      25.297  14.005   2.774  0.00  0.00    -0.631 OA
HETATM    2  P   UNK N   1      24.757  14.156   4.220  0.00  0.00     0.402 P 
ENDROOT
BRANCH   2   3
HETATM    3  O   UNK N   1      26.085  14.302   5.326  0.00  0.00    -0.307 OA
HETATM    4  H   UNK N   1      26.979  14.036   5.056  0.00  0.00     0.222 HD
ENDBRANCH   2   3
BRANCH   2   5
HETATM    5  O   UNK N   1      23.857  15.618   4.262  0.00  0.00    -0.294 OA
BRANCH   5   6
HETATM    6  C   UNK N   1      24.593  16.428   3.400  0.00  0.00     0.215 C 
BRANCH   6   7
HETATM    7  C   UNK N   1      25.268  17.498   4.195  0.00  0.00     0.180 C 
HETATM    8  C   UNK N   1      25.469  18.798   3.449  0.00  0.00     0.182 C 
HETATM    9  C   UNK N   1      26.500  19.503   4.333  0.00  0.00     0.198 C 
HETATM   10  C   UNK N   1      26.972  18.328   5.203  0.00  0.00     0.259 C 
HETATM   11  O   UNK N   1      26.580  17.135   4.571  0.00  0.00    -0.353 OA
BRANCH   8  12
HETATM   12  O   UNK N   1      24.285  19.523   3.287  0.00  0.00    -0.390 OA
HETATM   13  H   UNK N   1      23.429  19.123   3.503  0.00  0.00     0.210 HD
ENDBRANCH   8  12
BRANCH   9  14
HETATM   14  O   UNK N   1      27.517  20.044   3.543  0.00  0.00    -0.388 OA
HETATM   15  H   UNK N   1      28.293  20.148   2.969  0.00  0.00     0.210 HD
ENDBRANCH   9  14
BRANCH  10  16
HETATM   16  N   UNK N   1      28.322  18.333   5.765  0.00  0.00    -0.336 N 
HETATM   17  C   UNK N   1      29.378  17.827   5.077  0.00  0.00     0.094 A 
HETATM   18  C   UNK N   1      30.497  17.359   5.768  0.00  0.00     0.026 A 
HETATM   19  C   UNK N   1      30.522  17.329   7.181  0.00  0.00    -0.030 A 
HETATM   20  C   UNK N   1      29.405  17.926   7.872  0.00  0.00     0.037 A 
HETATM   21  C   UNK N   1      28.366  18.437   7.110  0.00  0.00     0.109 A 
BRANCH  19  22
HETATM   22  C   UNK N   1      31.658  16.524   7.851  0.00  0.00     0.089 C 
HETATM   23  C   UNK N   1      32.858  17.359   8.289  0.00  0.00     0.017 C 
HETATM   24  C   UNK N   1      33.873  17.553   7.200  0.00  0.00     0.001 C 
HETATM   25  C   UNK N   1      34.544  16.210   7.039  0.00  0.00     0.007 C 
HETATM   26  C   UNK N   1      33.556  15.146   6.560  0.00  0.00     0.079 C 
HETATM   27  C   UNK N   1      32.128  15.304   7.045  0.00  0.00     0.135 C 
HETATM   28  O   UNK N   1      31.328  14.428   6.755  0.00  0.00    -0.297 OA
ENDBRANCH  19  22
BRANCH  20  29
HETATM   29  C   UNK N   1      29.110  17.971   9.336  0.00  0.00     0.145 C 
BRANCH  29  30
HETATM   30  N   UNK N   1      29.840  18.610  10.164  0.00  0.00    -0.379 N 
HETATM   31  H   UNK N   1      30.392  19.423  10.092  0.00  0.00     0.158 HD
ATOM     32  HN  UNK N   1      29.857  18.193  11.095  1.00  0.00     0.158 HD
ENDBRANCH  29  30
BRANCH  29  33
HETATM   33  O   UNK N   1      28.117  17.196   9.823  0.00  0.00    -0.346 OA
HETATM   34  H   UNK N   1      28.014  16.308   9.541  0.00  0.00     0.219 HD
ENDBRANCH  29  33
ENDBRANCH  20  29
ENDBRANCH  10  16
ENDBRANCH   6   7
ENDBRANCH   5   6
ENDBRANCH   2   5
BRANCH   2  35
HETATM   35  O   UNK N   1      23.648  12.867   4.589  0.00  0.00    -0.188 OA
BRANCH  35  36
HETATM   36  P   UNK N   1      24.349  11.895   5.845  0.00  0.00     0.417 P 
HETATM   37  O   UNK N   1      25.788  11.618   5.331  0.00  0.00    -0.624 OA
HETATM   38  O   UNK N   1      23.623  10.321   5.942  0.00  0.00    -0.624 OA
BRANCH  36  39
HETATM   39  O   UNK N   1      24.579  12.679   7.402  0.00  0.00    -0.287 OA
BRANCH  39  40
HETATM   40  C   UNK N   1      23.538  13.599   7.664  0.00  0.00     0.216 C 
BRANCH  40  41
HETATM   41  C   UNK N   1      22.175  12.914   7.869  0.00  0.00     0.180 C 
HETATM   42  C   UNK N   1      21.502  13.128   9.212  0.00  0.00     0.182 C 
HETATM   43  C   UNK N   1      20.662  14.340   8.975  0.00  0.00     0.198 C 
HETATM   44  C   UNK N   1      20.418  14.301   7.459  0.00  0.00     0.262 C 
HETATM   45  O   UNK N   1      21.278  13.340   6.875  0.00  0.00    -0.353 OA
BRANCH  42  46
HETATM   46  O   UNK N   1      22.398  13.284  10.275  0.00  0.00    -0.390 OA
HETATM   47  H   UNK N   1      22.949  13.607  11.005  0.00  0.00     0.210 HD
ENDBRANCH  42  46
BRANCH  43  48
HETATM   48  O   UNK N   1      19.465  14.276   9.697  0.00  0.00    -0.388 OA
HETATM   49  H   UNK N   1      18.885  15.052   9.747  0.00  0.00     0.210 HD
ENDBRANCH  43  48
BRANCH  44  50
HETATM   50  N   UNK N   1      20.688  15.627   6.892  0.00  0.00    -0.297 N 
HETATM   51  C   UNK N   1      20.841  16.800   7.562  0.00  0.00     0.188 A 
HETATM   52  N   UNK N   1      21.029  17.842   6.703  0.00  0.00    -0.346 N 
HETATM   53  C   UNK N   1      20.989  17.276   5.484  0.00  0.00     0.122 A 
ATOM     54  HN  UNK N   1      21.168  18.826   6.933  1.00  0.00     0.167 HD
HETATM   55  C   UNK N   1      21.116  17.850   4.229  0.00  0.00     0.131 A 
HETATM   56  C   UNK N   1      20.788  15.950   5.598  0.00  0.00     0.142 A 
HETATM   57  N   UNK N   1      21.031  17.030   3.139  0.00  0.00    -0.337 N 
HETATM   58  C   UNK N   1      20.825  15.679   3.283  0.00  0.00     0.183 A 
ATOM     59  HN  UNK N   1      21.122  17.427   2.204  1.00  0.00     0.168 HD
HETATM   60  N   UNK N   1      20.697  15.126   4.529  0.00  0.00    -0.336 N 
ATOM     61  HN  UNK N   1      20.540  14.126   4.648  1.00  0.00     0.168 HD
BRANCH  55  62
HETATM   62  N   UNK N   1      21.323  19.236   4.074  0.00  0.00    -0.383 N 
HETATM   63  H   UNK N   1      22.215  19.620   4.232  0.00  0.00     0.157 HD
HETATM   64  H   UNK N   1      20.575  19.818   3.808  0.00  0.00     0.157 HD
ENDBRANCH  55  62
ENDBRANCH  44  50
ENDBRANCH  40  41
ENDBRANCH  39  40
ENDBRANCH  36  39
ENDBRANCH  35  36
ENDBRANCH   2  35
TORSDOF 20
ENDMDL
MODEL 5
REMARK VINA RESULT:      -7.5      6.591     10.709
REMARK  20 active torsions:
REMARK  status: ('A' for Active; 'I' for Inactive)
REMARK    1  A    between atoms: C_16  and  C_8 
REMARK    2  A    between atoms: O_49  and  C_8 
REMARK    3  A    between atoms: C_17  and  C_9 
REMARK    4  A    between atoms: O_50  and  C_9 
REMARK    5  A    between atoms: C_13  and  C_12 
REMARK    6  A    between atoms: C_24  and  C_14 
REMARK    7  A    between atoms: C_19  and  O_40 
REMARK    8  A    between atoms: C_20  and  O_41 
REMARK    9  A    between atoms: C_21  and  O_42 
REMARK   10  A    between atoms: C_22  and  O_43 
REMARK   11  A    between atoms: N_28  and  C_23 
REMARK   12  A    between atoms: N_29  and  C_24 
REMARK   13  A    between atoms: O_44  and  C_24 
REMARK   14  A    between atoms: C_26  and  N_37 
REMARK   15  A    between atoms: C_27  and  N_38 
REMARK   16  A    between atoms: P_54  and  O_46 
REMARK   17  A    between atoms: P_54  and  O_49 
REMARK   18  A    between atoms: P_55  and  O_50 
REMARK   19  A    between atoms: P_54  and  O_53 
REMARK   20  A    between atoms: P_55  and  O_53 
ROOT
HETATM    1  O   UNK N   1      21.101  18.988   5.621  0.00  0.00    -0.631 OA
HETATM    2  P   UNK N   1      21.222  18.090   4.362  0.00  0.00     0.402 P 
ENDROOT
BRANCH   2   3
HETATM    3  O   UNK N   1      19.928  18.451   3.264  0.00  0.00    -0.307 OA
HETATM    4  H   UNK N   1      19.356  19.219   3.416  0.00  0.00     0.222 HD
ENDBRANCH   2   3
BRANCH   2   5
HETATM    5  O   UNK N   1      22.705  18.502   3.601  0.00  0.00    -0.294 OA
BRANCH   5   6
HETATM    6  C   UNK N   1      23.563  18.611   4.693  0.00  0.00     0.215 C 
BRANCH   6   7
HETATM    7  C   UNK N   1      24.865  17.959   4.356  0.00  0.00     0.180 C 
HETATM    8  C   UNK N   1      24.894  16.465   4.590  0.00  0.00     0.182 C 
HETATM    9  C   UNK N   1      26.397  16.178   4.560  0.00  0.00     0.198 C 
HETATM   10  C   UNK N   1      26.955  17.604   4.692  0.00  0.00     0.259 C 
HETATM   11  O   UNK N   1      25.923  18.433   5.163  0.00  0.00    -0.353 OA
BRANCH   8  12
HETATM   12  O   UNK N   1      24.170  15.748   3.634  0.00  0.00    -0.390 OA
HETATM   13  H   UNK N   1      24.607  15.080   3.084  0.00  0.00     0.210 HD
ENDBRANCH   8  12
BRANCH   9  14
HETATM   14  O   UNK N   1      26.748  15.350   5.628  0.00  0.00    -0.388 OA
HETATM   15  H   UNK N   1      27.250  14.819   6.266  0.00  0.00     0.210 HD
ENDBRANCH   9  14
BRANCH  10  16
HETATM   16  N   UNK N   1      28.268  17.820   5.298  0.00  0.00    -0.336 N 
HETATM   17  C   UNK N   1      29.402  17.349   4.718  0.00  0.00     0.094 A 
HETATM   18  C   UNK N   1      30.527  17.089   5.502  0.00  0.00     0.026 A 
HETATM   19  C   UNK N   1      30.485  17.233   6.908  0.00  0.00    -0.030 A 
HETATM   20  C   UNK N   1      29.282  17.788   7.477  0.00  0.00     0.037 A 
HETATM   21  C   UNK N   1      28.235  18.090   6.620  0.00  0.00     0.109 A 
BRANCH  19  22
HETATM   22  C   UNK N   1      31.662  16.640   7.714  0.00  0.00     0.089 C 
HETATM   23  C   UNK N   1      32.786  17.626   8.022  0.00  0.00     0.017 C 
HETATM   24  C   UNK N   1      33.808  17.718   6.928  0.00  0.00     0.001 C 
HETATM   25  C   UNK N   1      34.583  16.423   6.998  0.00  0.00     0.007 C 
HETATM   26  C   UNK N   1      33.689  15.221   6.691  0.00  0.00     0.079 C 
HETATM   27  C   UNK N   1      32.242  15.345   7.126  0.00  0.00     0.135 C 
HETATM   28  O   UNK N   1      31.517  14.374   6.977  0.00  0.00    -0.297 OA
ENDBRANCH  19  22
BRANCH  20  29
HETATM   29  C   UNK N   1      28.912  17.978   8.912  0.00  0.00     0.145 C 
BRANCH  29  30
HETATM   30  N   UNK N   1      27.751  18.360   9.277  0.00  0.00    -0.379 N 
HETATM   31  H   UNK N   1      26.869  18.359   8.837  0.00  0.00     0.158 HD
ATOM     32  HN  UNK N   1      27.731  18.749  10.221  1.00  0.00     0.158 HD
ENDBRANCH  29  30
BRANCH  29  33
HETATM   33  O   UNK N   1      29.878  17.877   9.852  0.00  0.00    -0.346 OA
HETATM   34  H   UNK N   1      30.748  17.616   9.624  0.00  0.00     0.219 HD
ENDBRANCH  29  33
ENDBRANCH  20  29
ENDBRANCH  10  16
ENDBRANCH   6   7
ENDBRANCH   5   6
ENDBRANCH   2   5
BRANCH   2  35
HETATM   35  O   UNK N   1      21.336  16.416   4.820  0.00  0.00    -0.188 OA
BRANCH  35  36
HETATM   36  P   UNK N   1      19.921  16.012   5.743  0.00  0.00     0.417 P 
HETATM   37  O   UNK N   1      18.768  16.697   4.961  0.00  0.00    -0.624 OA
HETATM   38  O   UNK N   1      19.903  16.789   7.295  0.00  0.00    -0.624 OA
BRANCH  36  39
HETATM   39  O   UNK N   1      19.478  14.311   5.785  0.00  0.00    -0.287 OA
BRANCH  39  40
HETATM   40  C   UNK N   1      20.456  13.548   6.463  0.00  0.00     0.216 C 
BRANCH  40  41
HETATM   41  C   UNK N   1      20.696  12.174   5.813  0.00  0.00     0.180 C 
HETATM   42  C   UNK N   1      21.332  12.175   4.435  0.00  0.00     0.182 C 
HETATM   43  C   UNK N   1      22.791  12.091   4.742  0.00  0.00     0.198 C 
HETATM   44  C   UNK N   1      22.817  11.409   6.118  0.00  0.00     0.262 C 
HETATM   45  O   UNK N   1      21.506  11.389   6.651  0.00  0.00    -0.353 OA
BRANCH  42  46
HETATM   46  O   UNK N   1      21.001  13.292   3.660  0.00  0.00    -0.390 OA
HETATM   47  H   UNK N   1      20.625  13.924   3.026  0.00  0.00     0.210 HD
ENDBRANCH  42  46
BRANCH  43  48
HETATM   48  O   UNK N   1      23.469  11.339   3.775  0.00  0.00    -0.388 OA
HETATM   49  H   UNK N   1      24.313  10.913   3.994  0.00  0.00     0.210 HD
ENDBRANCH  43  48
BRANCH  44  50
HETATM   50  N   UNK N   1      23.711  12.156   7.010  0.00  0.00    -0.297 N 
HETATM   51  C   UNK N   1      24.747  12.963   6.660  0.00  0.00     0.188 A 
HETATM   52  N   UNK N   1      25.390  13.451   7.759  0.00  0.00    -0.346 N 
HETATM   53  C   UNK N   1      24.718  12.922   8.797  0.00  0.00     0.122 A 
ATOM     54  HN  UNK N   1      26.196  14.075   7.788  1.00  0.00     0.167 HD
HETATM   55  C   UNK N   1      24.926  13.062  10.159  0.00  0.00     0.131 A 
HETATM   56  C   UNK N   1      23.712  12.148   8.348  0.00  0.00     0.142 A 
HETATM   57  N   UNK N   1      24.084  12.399  11.007  0.00  0.00    -0.337 N 
HETATM   58  C   UNK N   1      23.063  11.615  10.522  0.00  0.00     0.183 A 
ATOM     59  HN  UNK N   1      24.214  12.487  12.014  1.00  0.00     0.168 HD
HETATM   60  N   UNK N   1      22.873  11.482   9.173  0.00  0.00    -0.336 N 
ATOM     61  HN  UNK N   1      22.122  10.901   8.802  1.00  0.00     0.168 HD
BRANCH  55  62
HETATM   62  N   UNK N   1      25.973  13.860  10.663  0.00  0.00    -0.383 N 
HETATM   63  H   UNK N   1      25.901  14.257  11.561  0.00  0.00     0.157 HD
HETATM   64  H   UNK N   1      26.775  14.021  10.117  0.00  0.00     0.157 HD
ENDBRANCH  55  62
ENDBRANCH  44  50
ENDBRANCH  40  41
ENDBRANCH  39  40
ENDBRANCH  36  39
ENDBRANCH  35  36
ENDBRANCH   2  35
TORSDOF 20
ENDMDL
MODEL 6
REMARK VINA RESULT:      -7.5      2.039      3.655
REMARK  20 active torsions:
REMARK  status: ('A' for Active; 'I' for Inactive)
REMARK    1  A    between atoms: C_16  and  C_8 
REMARK    2  A    between atoms: O_49  and  C_8 
REMARK    3  A    between atoms: C_17  and  C_9 
REMARK    4  A    between atoms: O_50  and  C_9 
REMARK    5  A    between atoms: C_13  and  C_12 
REMARK    6  A    between atoms: C_24  and  C_14 
REMARK    7  A    between atoms: C_19  and  O_40 
REMARK    8  A    between atoms: C_20  and  O_41 
REMARK    9  A    between atoms: C_21  and  O_42 
REMARK   10  A    between atoms: C_22  and  O_43 
REMARK   11  A    between atoms: N_28  and  C_23 
REMARK   12  A    between atoms: N_29  and  C_24 
REMARK   13  A    between atoms: O_44  and  C_24 
REMARK   14  A    between atoms: C_26  and  N_37 
REMARK   15  A    between atoms: C_27  and  N_38 
REMARK   16  A    between atoms: P_54  and  O_46 
REMARK   17  A    between atoms: P_54  and  O_49 
REMARK   18  A    between atoms: P_55  and  O_50 
REMARK   19  A    between atoms: P_54  and  O_53 
REMARK   20  A    between atoms: P_55  and  O_53 
ROOT
HETATM    1  O   UNK N   1      33.393  12.455   5.671  0.00  0.00    -0.631 OA
HETATM    2  P   UNK N   1      32.645  13.745   6.099  0.00  0.00     0.402 P 
ENDROOT
BRANCH   2   3
HETATM    3  O   UNK N   1      30.956  13.586   5.738  0.00  0.00    -0.307 OA
HETATM    4  H   UNK N   1      30.533  12.713   5.746  0.00  0.00     0.222 HD
ENDBRANCH   2   3
BRANCH   2   5
HETATM    5  O   UNK N   1      32.823  13.879   7.802  0.00  0.00    -0.294 OA
BRANCH   5   6
HETATM    6  C   UNK N   1      33.660  14.987   7.912  0.00  0.00     0.215 C 
BRANCH   6   7
HETATM    7  C   UNK N   1      34.119  15.110   9.330  0.00  0.00     0.180 C 
HETATM    8  C   UNK N   1      34.977  16.325   9.605  0.00  0.00     0.182 C 
HETATM    9  C   UNK N   1      35.600  15.962  10.955  0.00  0.00     0.198 C 
HETATM   10  C   UNK N   1      35.279  14.460  11.015  0.00  0.00     0.259 C 
HETATM   11  O   UNK N   1      34.948  14.034   9.717  0.00  0.00    -0.353 OA
BRANCH   8  12
HETATM   12  O   UNK N   1      34.246  17.515   9.630  0.00  0.00    -0.390 OA
HETATM   13  H   UNK N   1      33.286  17.501   9.769  0.00  0.00     0.210 HD
ENDBRANCH   8  12
BRANCH   9  14
HETATM   14  O   UNK N   1      36.970  16.230  10.938  0.00  0.00    -0.388 OA
HETATM   15  H   UNK N   1      37.862  16.527  11.178  0.00  0.00     0.210 HD
ENDBRANCH   9  14
BRANCH  10  16
HETATM   16  N   UNK N   1      36.145  13.559  11.776  0.00  0.00    -0.336 N 
HETATM   17  C   UNK N   1      36.300  12.258  11.419  0.00  0.00     0.094 A 
HETATM   18  C   UNK N   1      36.664  11.314  12.381  0.00  0.00     0.026 A 
HETATM   19  C   UNK N   1      36.799  11.673  13.742  0.00  0.00    -0.030 A 
HETATM   20  C   UNK N   1      36.680  13.073  14.067  0.00  0.00     0.037 A 
HETATM   21  C   UNK N   1      36.390  13.958  13.041  0.00  0.00     0.109 A 
BRANCH  19  22
HETATM   22  C   UNK N   1      36.903  10.523  14.769  0.00  0.00     0.089 C 
HETATM   23  C   UNK N   1      38.222   9.758  14.738  0.00  0.00     0.017 C 
HETATM   24  C   UNK N   1      38.232   8.636  13.741  0.00  0.00     0.001 C 
HETATM   25  C   UNK N   1      37.336   7.572  14.332  0.00  0.00     0.007 C 
HETATM   26  C   UNK N   1      35.894   8.063  14.455  0.00  0.00     0.079 C 
HETATM   27  C   UNK N   1      35.721   9.542  14.740  0.00  0.00     0.135 C 
HETATM   28  O   UNK N   1      34.588   9.957  14.931  0.00  0.00    -0.297 OA
ENDBRANCH  19  22
BRANCH  20  29
HETATM   29  C   UNK N   1      36.689  13.739  15.405  0.00  0.00     0.145 C 
BRANCH  29  30
HETATM   30  N   UNK N   1      35.781  13.537  16.278  0.00  0.00    -0.379 N 
HETATM   31  H   UNK N   1      34.801  13.449  16.226  0.00  0.00     0.158 HD
ATOM     32  HN  UNK N   1      36.144  13.450  17.227  1.00  0.00     0.158 HD
ENDBRANCH  29  30
BRANCH  29  33
HETATM   33  O   UNK N   1      37.613  14.693  15.651  0.00  0.00    -0.346 OA
HETATM   34  H   UNK N   1      37.922  14.855  16.520  0.00  0.00     0.219 HD
ENDBRANCH  29  33
ENDBRANCH  20  29
ENDBRANCH  10  16
ENDBRANCH   6   7
ENDBRANCH   5   6
ENDBRANCH   2   5
BRANCH   2  35
HETATM   35  O   UNK N   1      33.405  15.145   5.399  0.00  0.00    -0.188 OA
BRANCH  35  36
HETATM   36  P   UNK N   1      32.293  15.854   4.270  0.00  0.00     0.417 P 
HETATM   37  O   UNK N   1      31.843  14.652   3.396  0.00  0.00    -0.624 OA
HETATM   38  O   UNK N   1      33.081  16.921   3.150  0.00  0.00    -0.624 OA
BRANCH  36  39
HETATM   39  O   UNK N   1      30.800  16.495   4.943  0.00  0.00    -0.287 OA
BRANCH  39  40
HETATM   40  C   UNK N   1      31.052  17.237   6.120  0.00  0.00     0.216 C 
BRANCH  40  41
HETATM   41  C   UNK N   1      30.317  16.674   7.349  0.00  0.00     0.180 C 
HETATM   42  C   UNK N   1      30.444  17.463   8.638  0.00  0.00     0.182 C 
HETATM   43  C   UNK N   1      29.274  18.390   8.580  0.00  0.00     0.198 C 
HETATM   44  C   UNK N   1      28.282  17.637   7.680  0.00  0.00     0.262 C 
HETATM   45  O   UNK N   1      28.946  16.550   7.064  0.00  0.00    -0.353 OA
BRANCH  42  46
HETATM   46  O   UNK N   1      31.665  18.133   8.773  0.00  0.00    -0.390 OA
HETATM   47  H   UNK N   1      32.466  18.584   9.086  0.00  0.00     0.210 HD
ENDBRANCH  42  46
BRANCH  43  48
HETATM   48  O   UNK N   1      28.749  18.623   9.856  0.00  0.00    -0.388 OA
HETATM   49  H   UNK N   1      27.830  18.918   9.956  0.00  0.00     0.210 HD
ENDBRANCH  43  48
BRANCH  44  50
HETATM   50  N   UNK N   1      27.765  18.555   6.659  0.00  0.00    -0.297 N 
HETATM   51  C   UNK N   1      27.834  19.912   6.652  0.00  0.00     0.188 A 
HETATM   52  N   UNK N   1      27.198  20.437   5.566  0.00  0.00    -0.346 N 
HETATM   53  C   UNK N   1      26.738  19.362   4.902  0.00  0.00     0.122 A 
ATOM     54  HN  UNK N   1      27.097  21.420   5.313  1.00  0.00     0.167 HD
HETATM   55  C   UNK N   1      26.009  19.284   3.726  0.00  0.00     0.131 A 
HETATM   56  C   UNK N   1      27.079  18.235   5.556  0.00  0.00     0.142 A 
HETATM   57  N   UNK N   1      25.662  18.044   3.269  0.00  0.00    -0.337 N 
HETATM   58  C   UNK N   1      26.024  16.909   3.956  0.00  0.00     0.183 A 
ATOM     59  HN  UNK N   1      25.128  17.958   2.405  1.00  0.00     0.168 HD
HETATM   60  N   UNK N   1      26.740  17.001   5.119  0.00  0.00    -0.336 N 
ATOM     61  HN  UNK N   1      27.010  16.167   5.639  1.00  0.00     0.168 HD
BRANCH  55  62
HETATM   62  N   UNK N   1      25.631  20.443   3.020  0.00  0.00    -0.383 N 
HETATM   63  H   UNK N   1      25.811  20.512   2.054  0.00  0.00     0.157 HD
HETATM   64  H   UNK N   1      25.187  21.184   3.491  0.00  0.00     0.157 HD
ENDBRANCH  55  62
ENDBRANCH  44  50
ENDBRANCH  40  41
ENDBRANCH  39  40
ENDBRANCH  36  39
ENDBRANCH  35  36
ENDBRANCH   2  35
TORSDOF 20
ENDMDL
MODEL 7
REMARK VINA RESULT:      -7.4      3.092      5.253
REMARK  20 active torsions:
REMARK  status: ('A' for Active; 'I' for Inactive)
REMARK    1  A    between atoms: C_16  and  C_8 
REMARK    2  A    between atoms: O_49  and  C_8 
REMARK    3  A    between atoms: C_17  and  C_9 
REMARK    4  A    between atoms: O_50  and  C_9 
REMARK    5  A    between atoms: C_13  and  C_12 
REMARK    6  A    between atoms: C_24  and  C_14 
REMARK    7  A    between atoms: C_19  and  O_40 
REMARK    8  A    between atoms: C_20  and  O_41 
REMARK    9  A    between atoms: C_21  and  O_42 
REMARK   10  A    between atoms: C_22  and  O_43 
REMARK   11  A    between atoms: N_28  and  C_23 
REMARK   12  A    between atoms: N_29  and  C_24 
REMARK   13  A    between atoms: O_44  and  C_24 
REMARK   14  A    between atoms: C_26  and  N_37 
REMARK   15  A    between atoms: C_27  and  N_38 
REMARK   16  A    between atoms: P_54  and  O_46 
REMARK   17  A    between atoms: P_54  and  O_49 
REMARK   18  A    between atoms: P_55  and  O_50 
REMARK   19  A    between atoms: P_54  and  O_53 
REMARK   20  A    between atoms: P_55  and  O_53 
ROOT
HETATM    1  O   UNK N   1      32.810   8.596   9.865  0.00  0.00    -0.631 OA
HETATM    2  P   UNK N   1      33.285  10.048   9.595  0.00  0.00     0.402 P 
ENDROOT
BRANCH   2   3
HETATM    3  O   UNK N   1      31.957  11.144   9.807  0.00  0.00    -0.307 OA
HETATM    4  H   UNK N   1      31.605  11.639   9.051  0.00  0.00     0.222 HD
ENDBRANCH   2   3
BRANCH   2   5
HETATM    5  O   UNK N   1      34.476  10.407  10.779  0.00  0.00    -0.294 OA
BRANCH   5   6
HETATM    6  C   UNK N   1      33.821  10.047  11.956  0.00  0.00     0.215 C 
BRANCH   6   7
HETATM    7  C   UNK N   1      34.145  11.048  13.018  0.00  0.00     0.180 C 
HETATM    8  C   UNK N   1      35.085  12.147  12.574  0.00  0.00     0.182 C 
HETATM    9  C   UNK N   1      35.531  12.731  13.917  0.00  0.00     0.198 C 
HETATM   10  C   UNK N   1      35.061  11.622  14.872  0.00  0.00     0.259 C 
HETATM   11  O   UNK N   1      34.822  10.465  14.111  0.00  0.00    -0.353 OA
BRANCH   8  12
HETATM   12  O   UNK N   1      34.474  13.082  11.735  0.00  0.00    -0.390 OA
HETATM   13  H   UNK N   1      34.880  13.951  11.586  0.00  0.00     0.210 HD
ENDBRANCH   8  12
BRANCH   9  14
HETATM   14  O   UNK N   1      36.915  12.912  13.924  0.00  0.00    -0.388 OA
HETATM   15  H   UNK N   1      37.814  13.210  13.715  0.00  0.00     0.210 HD
ENDBRANCH   9  14
BRANCH  10  16
HETATM   16  N   UNK N   1      35.754  11.413  16.143  0.00  0.00    -0.336 N 
HETATM   17  C   UNK N   1      36.149  10.176  16.539  0.00  0.00     0.094 A 
HETATM   18  C   UNK N   1      36.311   9.901  17.898  0.00  0.00     0.026 A 
HETATM   19  C   UNK N   1      35.996  10.867  18.881  0.00  0.00    -0.030 A 
HETATM   20  C   UNK N   1      35.635  12.184  18.416  0.00  0.00     0.037 A 
HETATM   21  C   UNK N   1      35.568  12.397  17.048  0.00  0.00     0.109 A 
BRANCH  19  22
HETATM   22  C   UNK N   1      35.914  10.384  20.346  0.00  0.00     0.089 C 
HETATM   23  C   UNK N   1      37.256  10.307  21.068  0.00  0.00     0.017 C 
HETATM   24  C   UNK N   1      37.966   9.001  20.859  0.00  0.00     0.001 C 
HETATM   25  C   UNK N   1      37.186   7.991  21.668  0.00  0.00     0.007 C 
HETATM   26  C   UNK N   1      35.762   7.829  21.134  0.00  0.00     0.079 C 
HETATM   27  C   UNK N   1      35.135   9.074  20.536  0.00  0.00     0.135 C 
HETATM   28  O   UNK N   1      33.969   9.008  20.178  0.00  0.00    -0.297 OA
ENDBRANCH  19  22
BRANCH  20  29
HETATM   29  C   UNK N   1      35.173  13.371  19.198  0.00  0.00     0.145 C 
BRANCH  29  30
HETATM   30  N   UNK N   1      34.587  13.264  20.326  0.00  0.00    -0.379 N 
HETATM   31  H   UNK N   1      34.700  12.655  21.092  0.00  0.00     0.158 HD
ATOM     32  HN  UNK N   1      33.847  13.953  20.464  1.00  0.00     0.158 HD
ENDBRANCH  29  30
BRANCH  29  33
HETATM   33  O   UNK N   1      35.253  14.594  18.630  0.00  0.00    -0.346 OA
HETATM   34  H   UNK N   1      35.693  15.299  19.062  0.00  0.00     0.219 HD
ENDBRANCH  29  33
ENDBRANCH  20  29
ENDBRANCH  10  16
ENDBRANCH   6   7
ENDBRANCH   5   6
ENDBRANCH   2   5
BRANCH   2  35
HETATM   35  O   UNK N   1      34.067  10.150   8.044  0.00  0.00    -0.188 OA
BRANCH  35  36
HETATM   36  P   UNK N   1      34.060  11.813   7.545  0.00  0.00     0.417 P 
HETATM   37  O   UNK N   1      32.656  11.997   6.908  0.00  0.00    -0.624 OA
HETATM   38  O   UNK N   1      35.162  12.114   6.238  0.00  0.00    -0.624 OA
BRANCH  36  39
HETATM   39  O   UNK N   1      34.124  13.013   8.829  0.00  0.00    -0.287 OA
BRANCH  39  40
HETATM   40  C   UNK N   1      33.293  14.117   8.533  0.00  0.00     0.216 C 
BRANCH  40  41
HETATM   41  C   UNK N   1      33.988  15.468   8.780  0.00  0.00     0.180 C 
HETATM   42  C   UNK N   1      34.814  16.026   7.636  0.00  0.00     0.182 C 
HETATM   43  C   UNK N   1      33.829  16.866   6.891  0.00  0.00     0.198 C 
HETATM   44  C   UNK N   1      32.801  17.234   7.972  0.00  0.00     0.262 C 
HETATM   45  O   UNK N   1      33.029  16.438   9.120  0.00  0.00    -0.353 OA
BRANCH  42  46
HETATM   46  O   UNK N   1      35.409  15.044   6.837  0.00  0.00    -0.390 OA
HETATM   47  H   UNK N   1      35.626  14.254   6.316  0.00  0.00     0.210 HD
ENDBRANCH  42  46
BRANCH  43  48
HETATM   48  O   UNK N   1      34.441  18.001   6.346  0.00  0.00    -0.388 OA
HETATM   49  H   UNK N   1      34.367  18.856   6.796  0.00  0.00     0.210 HD
ENDBRANCH  43  48
BRANCH  44  50
HETATM   50  N   UNK N   1      31.450  16.993   7.454  0.00  0.00    -0.297 N 
HETATM   51  C   UNK N   1      31.103  16.527   6.225  0.00  0.00     0.188 A 
HETATM   52  N   UNK N   1      29.749  16.479   6.075  0.00  0.00    -0.346 N 
HETATM   53  C   UNK N   1      29.271  16.928   7.249  0.00  0.00     0.122 A 
ATOM     54  HN  UNK N   1      29.219  16.172   5.260  1.00  0.00     0.167 HD
HETATM   55  C   UNK N   1      27.963  17.104   7.672  0.00  0.00     0.131 A 
HETATM   56  C   UNK N   1      30.290  17.234   8.075  0.00  0.00     0.142 A 
HETATM   57  N   UNK N   1      27.758  17.588   8.933  0.00  0.00    -0.337 N 
HETATM   58  C   UNK N   1      28.816  17.892   9.757  0.00  0.00     0.183 A 
ATOM     59  HN  UNK N   1      26.805  17.725   9.270  1.00  0.00     0.168 HD
HETATM   60  N   UNK N   1      30.103  17.717   9.324  0.00  0.00    -0.336 N 
ATOM     61  HN  UNK N   1      30.896  17.943   9.924  1.00  0.00     0.168 HD
BRANCH  55  62
HETATM   62  N   UNK N   1      26.873  16.799   6.831  0.00  0.00    -0.383 N 
HETATM   63  H   UNK N   1      26.815  17.203   5.936  0.00  0.00     0.157 HD
HETATM   64  H   UNK N   1      26.171  16.183   7.141  0.00  0.00     0.157 HD
ENDBRANCH  55  62
ENDBRANCH  44  50
ENDBRANCH  40  41
ENDBRANCH  39  40
ENDBRANCH  36  39
ENDBRANCH  35  36
ENDBRANCH   2  35
TORSDOF 20
ENDMDL
MODEL 8
REMARK VINA RESULT:      -7.4      7.517     11.121
REMARK  20 active torsions:
REMARK  status: ('A' for Active; 'I' for Inactive)
REMARK    1  A    between atoms: C_16  and  C_8 
REMARK    2  A    between atoms: O_49  and  C_8 
REMARK    3  A    between atoms: C_17  and  C_9 
REMARK    4  A    between atoms: O_50  and  C_9 
REMARK    5  A    between atoms: C_13  and  C_12 
REMARK    6  A    between atoms: C_24  and  C_14 
REMARK    7  A    between atoms: C_19  and  O_40 
REMARK    8  A    between atoms: C_20  and  O_41 
REMARK    9  A    between atoms: C_21  and  O_42 
REMARK   10  A    between atoms: C_22  and  O_43 
REMARK   11  A    between atoms: N_28  and  C_23 
REMARK   12  A    between atoms: N_29  and  C_24 
REMARK   13  A    between atoms: O_44  and  C_24 
REMARK   14  A    between atoms: C_26  and  N_37 
REMARK   15  A    between atoms: C_27  and  N_38 
REMARK   16  A    between atoms: P_54  and  O_46 
REMARK   17  A    between atoms: P_54  and  O_49 
REMARK   18  A    between atoms: P_55  and  O_50 
REMARK   19  A    between atoms: P_54  and  O_53 
REMARK   20  A    between atoms: P_55  and  O_53 
ROOT
HETATM    1  O   UNK N   1      19.569  17.209   3.609  0.00  0.00    -0.631 OA
HETATM    2  P   UNK N   1      20.695  17.552   2.598  0.00  0.00     0.402 P 
ENDROOT
BRANCH   2   3
HETATM    3  O   UNK N   1      19.995  18.126   1.119  0.00  0.00    -0.307 OA
HETATM    4  H   UNK N   1      19.849  19.076   0.981  0.00  0.00     0.222 HD
ENDBRANCH   2   3
BRANCH   2   5
HETATM    5  O   UNK N   1      21.611  18.828   3.293  0.00  0.00    -0.294 OA
BRANCH   5   6
HETATM    6  C   UNK N   1      22.574  18.126   4.013  0.00  0.00     0.215 C 
BRANCH   6   7
HETATM    7  C   UNK N   1      23.683  19.058   4.380  0.00  0.00     0.180 C 
HETATM    8  C   UNK N   1      24.050  20.049   3.298  0.00  0.00     0.182 C 
HETATM    9  C   UNK N   1      25.412  20.546   3.785  0.00  0.00     0.198 C 
HETATM   10  C   UNK N   1      25.736  19.480   4.843  0.00  0.00     0.259 C 
HETATM   11  O   UNK N   1      24.896  18.376   4.619  0.00  0.00    -0.353 OA
BRANCH   8  12
HETATM   12  O   UNK N   1      23.106  21.067   3.147  0.00  0.00    -0.390 OA
HETATM   13  H   UNK N   1      22.164  20.894   3.306  0.00  0.00     0.210 HD
ENDBRANCH   8  12
BRANCH   9  14
HETATM   14  O   UNK N   1      26.323  20.564   2.727  0.00  0.00    -0.388 OA
HETATM   15  H   UNK N   1      26.718  20.608   1.842  0.00  0.00     0.210 HD
ENDBRANCH   9  14
BRANCH  10  16
HETATM   16  N   UNK N   1      27.129  19.163   5.157  0.00  0.00    -0.336 N 
HETATM   17  C   UNK N   1      27.903  18.448   4.300  0.00  0.00     0.094 A 
HETATM   18  C   UNK N   1      28.989  17.720   4.789  0.00  0.00     0.026 A 
HETATM   19  C   UNK N   1      29.256  17.649   6.175  0.00  0.00    -0.030 A 
HETATM   20  C   UNK N   1      28.445  18.467   7.043  0.00  0.00     0.037 A 
HETATM   21  C   UNK N   1      27.432  19.220   6.471  0.00  0.00     0.109 A 
BRANCH  19  22
HETATM   22  C   UNK N   1      30.278  16.590   6.645  0.00  0.00     0.089 C 
HETATM   23  C   UNK N   1      31.684  17.127   6.894  0.00  0.00     0.017 C 
HETATM   24  C   UNK N   1      32.537  17.151   5.659  0.00  0.00     0.001 C 
HETATM   25  C   UNK N   1      32.865  15.703   5.377  0.00  0.00     0.007 C 
HETATM   26  C   UNK N   1      31.607  14.899   5.050  0.00  0.00     0.079 C 
HETATM   27  C   UNK N   1      30.340  15.336   5.760  0.00  0.00     0.135 C 
HETATM   28  O   UNK N   1      29.333  14.666   5.592  0.00  0.00    -0.297 OA
ENDBRANCH  19  22
BRANCH  20  29
HETATM   29  C   UNK N   1      28.431  18.540   8.536  0.00  0.00     0.145 C 
BRANCH  29  30
HETATM   30  N   UNK N   1      29.463  18.855   9.217  0.00  0.00    -0.379 N 
HETATM   31  H   UNK N   1      30.414  18.973   8.989  0.00  0.00     0.158 HD
ATOM     32  HN  UNK N   1      29.262  19.016  10.205  1.00  0.00     0.158 HD
ENDBRANCH  29  30
BRANCH  29  33
HETATM   33  O   UNK N   1      27.329  18.125   9.197  0.00  0.00    -0.346 OA
HETATM   34  H   UNK N   1      26.816  18.722   9.704  0.00  0.00     0.219 HD
ENDBRANCH  29  33
ENDBRANCH  20  29
ENDBRANCH  10  16
ENDBRANCH   6   7
ENDBRANCH   5   6
ENDBRANCH   2   5
BRANCH   2  35
HETATM   35  O   UNK N   1      21.772  16.199   2.411  0.00  0.00    -0.188 OA
BRANCH  35  36
HETATM   36  P   UNK N   1      20.828  14.818   1.944  0.00  0.00     0.417 P 
HETATM   37  O   UNK N   1      21.785  14.019   1.019  0.00  0.00    -0.624 OA
HETATM   38  O   UNK N   1      19.499  15.247   0.913  0.00  0.00    -0.624 OA
BRANCH  36  39
HETATM   39  O   UNK N   1      20.409  13.692   3.227  0.00  0.00    -0.287 OA
BRANCH  39  40
HETATM   40  C   UNK N   1      21.494  13.508   4.115  0.00  0.00     0.216 C 
BRANCH  40  41
HETATM   41  C   UNK N   1      21.386  14.383   5.377  0.00  0.00     0.180 C 
HETATM   42  C   UNK N   1      21.238  13.654   6.700  0.00  0.00     0.182 C 
HETATM   43  C   UNK N   1      22.653  13.486   7.148  0.00  0.00     0.198 C 
HETATM   44  C   UNK N   1      23.377  14.644   6.445  0.00  0.00     0.262 C 
HETATM   45  O   UNK N   1      22.517  15.212   5.476  0.00  0.00    -0.353 OA
BRANCH  42  46
HETATM   46  O   UNK N   1      20.549  12.440   6.602  0.00  0.00    -0.390 OA
HETATM   47  H   UNK N   1      20.179  11.551   6.727  0.00  0.00     0.210 HD
ENDBRANCH  42  46
BRANCH  43  48
HETATM   48  O   UNK N   1      22.757  13.575   8.541  0.00  0.00    -0.388 OA
HETATM   49  H   UNK N   1      23.043  12.805   9.057  0.00  0.00     0.210 HD
ENDBRANCH  43  48
BRANCH  44  50
HETATM   50  N   UNK N   1      24.592  14.133   5.800  0.00  0.00    -0.297 N 
HETATM   51  C   UNK N   1      25.481  13.234   6.300  0.00  0.00     0.188 A 
HETATM   52  N   UNK N   1      26.521  13.033   5.441  0.00  0.00    -0.346 N 
HETATM   53  C   UNK N   1      26.246  13.834   4.397  0.00  0.00     0.122 A 
ATOM     54  HN  UNK N   1      27.324  12.416   5.563  1.00  0.00     0.167 HD
HETATM   55  C   UNK N   1      26.955  14.050   3.226  0.00  0.00     0.131 A 
HETATM   56  C   UNK N   1      25.090  14.490   4.611  0.00  0.00     0.142 A 
HETATM   57  N   UNK N   1      26.441  14.934   2.320  0.00  0.00    -0.337 N 
HETATM   58  C   UNK N   1      25.258  15.592   2.564  0.00  0.00     0.183 A 
ATOM     59  HN  UNK N   1      26.943  15.110   1.450  1.00  0.00     0.168 HD
HETATM   60  N   UNK N   1      24.571  15.372   3.726  0.00  0.00    -0.336 N 
ATOM     61  HN  UNK N   1      23.695  15.857   3.920  1.00  0.00     0.168 HD
BRANCH  55  62
HETATM   62  N   UNK N   1      28.171  13.383   2.972  0.00  0.00    -0.383 N 
HETATM   63  H   UNK N   1      28.973  13.606   3.497  0.00  0.00     0.157 HD
HETATM   64  H   UNK N   1      28.217  12.696   2.269  0.00  0.00     0.157 HD
ENDBRANCH  55  62
ENDBRANCH  44  50
ENDBRANCH  40  41
ENDBRANCH  39  40
ENDBRANCH  36  39
ENDBRANCH  35  36
ENDBRANCH   2  35
TORSDOF 20
ENDMDL
MODEL 9
REMARK VINA RESULT:      -7.3      9.180     13.018
REMARK  20 active torsions:
REMARK  status: ('A' for Active; 'I' for Inactive)
REMARK    1  A    between atoms: C_16  and  C_8 
REMARK    2  A    between atoms: O_49  and  C_8 
REMARK    3  A    between atoms: C_17  and  C_9 
REMARK    4  A    between atoms: O_50  and  C_9 
REMARK    5  A    between atoms: C_13  and  C_12 
REMARK    6  A    between atoms: C_24  and  C_14 
REMARK    7  A    between atoms: C_19  and  O_40 
REMARK    8  A    between atoms: C_20  and  O_41 
REMARK    9  A    between atoms: C_21  and  O_42 
REMARK   10  A    between atoms: C_22  and  O_43 
REMARK   11  A    between atoms: N_28  and  C_23 
REMARK   12  A    between atoms: N_29  and  C_24 
REMARK   13  A    between atoms: O_44  and  C_24 
REMARK   14  A    between atoms: C_26  and  N_37 
REMARK   15  A    between atoms: C_27  and  N_38 
REMARK   16  A    between atoms: P_54  and  O_46 
REMARK   17  A    between atoms: P_54  and  O_49 
REMARK   18  A    between atoms: P_55  and  O_50 
REMARK   19  A    between atoms: P_54  and  O_53 
REMARK   20  A    between atoms: P_55  and  O_53 
ROOT
HETATM    1  O   UNK N   1      19.711  13.494  10.289  0.00  0.00    -0.631 OA
HETATM    2  P   UNK N   1      20.923  13.813   9.374  0.00  0.00     0.402 P 
ENDROOT
BRANCH   2   3
HETATM    3  O   UNK N   1      20.742  12.989   7.859  0.00  0.00    -0.307 OA
HETATM    4  H   UNK N   1      20.096  13.300   7.206  0.00  0.00     0.222 HD
ENDBRANCH   2   3
BRANCH   2   5
HETATM    5  O   UNK N   1      20.887  15.504   9.077  0.00  0.00    -0.294 OA
BRANCH   5   6
HETATM    6  C   UNK N   1      19.682  15.644   8.391  0.00  0.00     0.215 C 
BRANCH   6   7
HETATM    7  C   UNK N   1      19.929  16.393   7.122  0.00  0.00     0.180 C 
HETATM    8  C   UNK N   1      19.226  15.820   5.911  0.00  0.00     0.182 C 
HETATM    9  C   UNK N   1      19.971  16.510   4.767  0.00  0.00     0.198 C 
HETATM   10  C   UNK N   1      21.197  17.051   5.519  0.00  0.00     0.259 C 
HETATM   11  O   UNK N   1      21.290  16.370   6.745  0.00  0.00    -0.353 OA
BRANCH   8  12
HETATM   12  O   UNK N   1      17.851  16.068   5.910  0.00  0.00    -0.390 OA
HETATM   13  H   UNK N   1      17.426  16.487   5.145  0.00  0.00     0.210 HD
ENDBRANCH   8  12
BRANCH   9  14
HETATM   14  O   UNK N   1      20.301  15.578   3.780  0.00  0.00    -0.388 OA
HETATM   15  H   UNK N   1      20.791  15.006   3.168  0.00  0.00     0.210 HD
ENDBRANCH   9  14
BRANCH  10  16
HETATM   16  N   UNK N   1      22.460  17.251   4.809  0.00  0.00    -0.336 N 
HETATM   17  C   UNK N   1      23.618  16.702   5.256  0.00  0.00     0.094 A 
HETATM   18  C   UNK N   1      24.839  17.291   4.921  0.00  0.00     0.026 A 
HETATM   19  C   UNK N   1      24.891  18.497   4.186  0.00  0.00    -0.030 A 
HETATM   20  C   UNK N   1      23.642  19.015   3.683  0.00  0.00     0.037 A 
HETATM   21  C   UNK N   1      22.479  18.330   3.998  0.00  0.00     0.109 A 
BRANCH  19  22
HETATM   22  C   UNK N   1      26.250  19.229   4.123  0.00  0.00     0.089 C 
HETATM   23  C   UNK N   1      27.442  18.334   3.799  0.00  0.00     0.017 C 
HETATM   24  C   UNK N   1      28.043  17.686   5.012  0.00  0.00     0.001 C 
HETATM   25  C   UNK N   1      28.755  18.799   5.745  0.00  0.00     0.007 C 
HETATM   26  C   UNK N   1      27.772  19.864   6.233  0.00  0.00     0.079 C 
HETATM   27  C   UNK N   1      26.558  20.095   5.354  0.00  0.00     0.135 C 
HETATM   28  O   UNK N   1      25.794  20.996   5.664  0.00  0.00    -0.297 OA
ENDBRANCH  19  22
BRANCH  20  29
HETATM   29  C   UNK N   1      23.369  20.293   2.959  0.00  0.00     0.145 C 
BRANCH  29  30
HETATM   30  N   UNK N   1      22.186  20.726   2.753  0.00  0.00    -0.379 N 
HETATM   31  H   UNK N   1      21.816  21.620   2.571  0.00  0.00     0.158 HD
ATOM     32  HN  UNK N   1      21.476  19.994   2.785  1.00  0.00     0.158 HD
ENDBRANCH  29  30
BRANCH  29  33
HETATM   33  O   UNK N   1      24.400  20.945   2.378  0.00  0.00    -0.346 OA
HETATM   34  H   UNK N   1      24.251  21.615   1.741  0.00  0.00     0.219 HD
ENDBRANCH  29  33
ENDBRANCH  20  29
ENDBRANCH  10  16
ENDBRANCH   6   7
ENDBRANCH   5   6
ENDBRANCH   2   5
BRANCH   2  35
HETATM   35  O   UNK N   1      22.414  13.477  10.206  0.00  0.00    -0.188 OA
BRANCH  35  36
HETATM   36  P   UNK N   1      23.611  13.058   9.020  0.00  0.00     0.417 P 
HETATM   37  O   UNK N   1      23.332  11.558   8.734  0.00  0.00    -0.624 OA
HETATM   38  O   UNK N   1      25.219  13.074   9.673  0.00  0.00    -0.624 OA
BRANCH  36  39
HETATM   39  O   UNK N   1      23.463  13.842   7.453  0.00  0.00    -0.287 OA
BRANCH  39  40
HETATM   40  C   UNK N   1      24.412  13.330   6.538  0.00  0.00     0.216 C 
BRANCH  40  41
HETATM   41  C   UNK N   1      23.821  12.256   5.607  0.00  0.00     0.180 C 
HETATM   42  C   UNK N   1      22.612  12.659   4.784  0.00  0.00     0.182 C 
HETATM   43  C   UNK N   1      23.224  13.170   3.521  0.00  0.00     0.198 C 
HETATM   44  C   UNK N   1      24.571  12.433   3.466  0.00  0.00     0.262 C 
HETATM   45  O   UNK N   1      24.810  11.810   4.714  0.00  0.00    -0.353 OA
BRANCH  42  46
HETATM   46  O   UNK N   1      21.790  13.601   5.412  0.00  0.00    -0.390 OA
HETATM   47  H   UNK N   1      21.271  14.137   6.033  0.00  0.00     0.210 HD
ENDBRANCH  42  46
BRANCH  43  48
HETATM   48  O   UNK N   1      22.421  12.874   2.413  0.00  0.00    -0.388 OA
HETATM   49  H   UNK N   1      21.868  13.564   2.015  0.00  0.00     0.210 HD
ENDBRANCH  43  48
BRANCH  44  50
HETATM   50  N   UNK N   1      25.637  13.397   3.173  0.00  0.00    -0.297 N 
HETATM   51  C   UNK N   1      25.541  14.546   2.454  0.00  0.00     0.188 A 
HETATM   52  N   UNK N   1      26.751  15.166   2.343  0.00  0.00    -0.346 N 
HETATM   53  C   UNK N   1      27.595  14.365   3.017  0.00  0.00     0.122 A 
ATOM     54  HN  UNK N   1      26.967  16.038   1.860  1.00  0.00     0.167 HD
HETATM   55  C   UNK N   1      28.958  14.486   3.236  0.00  0.00     0.131 A 
HETATM   56  C   UNK N   1      26.927  13.307   3.516  0.00  0.00     0.142 A 
HETATM   57  N   UNK N   1      29.578  13.510   3.964  0.00  0.00    -0.337 N 
HETATM   58  C   UNK N   1      28.873  12.440   4.462  0.00  0.00     0.183 A 
ATOM     59  HN  UNK N   1      30.580  13.576   4.141  1.00  0.00     0.168 HD
HETATM   60  N   UNK N   1      27.527  12.331   4.234  0.00  0.00    -0.336 N 
ATOM     61  HN  UNK N   1      26.995  11.540   4.595  1.00  0.00     0.168 HD
BRANCH  55  62
HETATM   62  N   UNK N   1      29.688  15.577   2.725  0.00  0.00    -0.383 N 
HETATM   63  H   UNK N   1      29.216  16.331   2.303  0.00  0.00     0.157 HD
HETATM   64  H   UNK N   1      30.670  15.585   2.788  0.00  0.00     0.157 HD
ENDBRANCH  55  62
ENDBRANCH  44  50
ENDBRANCH  40  41
ENDBRANCH  39  40
ENDBRANCH  36  39
ENDBRANCH  35  36
ENDBRANCH   2  35
TORSDOF 20
ENDMDL
