REMARK  9 active torsions:
REMARK  status: ('A' for Active; 'I' for Inactive)
REMARK    1  A    between atoms: C_2  and  N_1 
REMARK    2  A    between atoms: C_2  and  C_3 
REMARK    3  A    between atoms: C_2  and  C_10 
REMARK    4  A    between atoms: C_3  and  C_4 
REMARK    5  A    between atoms: C_4  and  C_5 
REMARK    6  A    between atoms: C_5  and  C_6 
REMARK    7  A    between atoms: C_6  and  C_7 
REMARK    8  A    between atoms: C_7  and  O_8 
REMARK    9  A    between atoms: C_10  and  O_11 
ROOT
HETATM    1  C   UNK N   1       8.130   2.725  -0.369  0.00  0.00     0.173 C 
ENDROOT
BRANCH   1   2
HETATM    2  N   UNK N   1       9.138   3.757  -0.195  0.00  0.00    -0.418 N 
HETATM    3  H   UNK N   1      10.119   3.506  -0.073  0.00  0.00     0.150 HD
HETATM    4  H   UNK N   1       8.863   4.739  -0.195  0.00  0.00     0.150 HD
ENDBRANCH   1   2
BRANCH   1   5
HETATM    5  C   UNK N   1       6.923   3.060   0.497  0.00  0.00     0.035 C 
BRANCH   5   6
HETATM    6  C   UNK N   1       5.656   2.550  -0.161  0.00  0.00     0.003 C 
BRANCH   6   7
HETATM    7  C   UNK N   1       4.448   3.264   0.420  0.00  0.00     0.010 C 
BRANCH   7   8
HETATM    8  C   UNK N   1       3.239   3.015  -0.468  0.00  0.00     0.110 C 
BRANCH   8   9
HETATM    9  C   UNK N   1       2.498   1.780  -0.063  0.00  0.00     0.139 C 
HETATM   10  O   UNK N   1       3.073   0.705  -0.011  0.00  0.00    -0.650 OA
BRANCH   9  11
HETATM   11  O   UNK N   1       1.182   1.851   0.212  0.00  0.00    -0.776 OA
HETATM   12  H   UNK N   1       0.767   2.668   0.403  0.00  0.00     0.167 HD
ENDBRANCH   9  11
ENDBRANCH   8   9
ENDBRANCH   7   8
ENDBRANCH   6   7
ENDBRANCH   5   6
ENDBRANCH   1   5
BRANCH   1  13
HETATM   13  C   UNK N   1       8.699   1.369  -0.046  0.00  0.00     0.163 C 
HETATM   14  O   UNK N   1       8.004   0.373  -0.151  0.00  0.00    -0.648 OA
BRANCH  13  15
HETATM   15  O   UNK N   1       9.987   1.243   0.335  0.00  0.00    -0.775 OA
HETATM   16  H   UNK N   1      10.358   0.424   0.599  0.00  0.00     0.167 HD
ENDBRANCH  13  15
ENDBRANCH   1  13
TORSDOF 9
