REMARK  4 active torsions:
REMARK  status: ('A' for Active; 'I' for Inactive)
REMARK    1  A    between atoms: C_2  and  C_3 
REMARK    2  A    between atoms: C_3  and  C_4 
REMARK    3  A    between atoms: C_4  and  C_5 
REMARK    4  A    between atoms: C_5  and  C_6 
ROOT
HETATM    1  C   UNK N   1       3.918   1.290  -0.000  0.00  0.00     0.013 C 
ENDROOT
BRANCH   1   2
HETATM    2  C   UNK N   1       2.680   2.164   0.000  0.00  0.00     0.070 C 
BRANCH   2   3
HETATM    3  C   UNK N   1       1.459   1.312  -0.000  0.00  0.00     0.231 C 
HETATM    4  O   UNK N   1       0.354   1.831  -0.000  0.00  0.00    -0.307 OA
ENDBRANCH   2   3
ENDBRANCH   1   2
BRANCH   1   5
HETATM    5  C   UNK N   1       5.150   2.172  -0.000  0.00  0.00     0.070 C 
BRANCH   5   6
HETATM    6  C   UNK N   1       6.378   1.329   0.000  0.00  0.00     0.231 C 
HETATM    7  O   UNK N   1       7.479   1.855   0.000  0.00  0.00    -0.307 OA
ENDBRANCH   5   6
ENDBRANCH   1   5
TORSDOF 4
