MODEL 1
REMARK VINA RESULT:      -7.7      0.000      0.000
REMARK  12 active torsions:
REMARK  status: ('A' for Active; 'I' for Inactive)
REMARK    1  A    between atoms: C_24  and  C_25 
REMARK    2  A    between atoms: C_25  and  S_26 
REMARK    3  A    between atoms: C_27  and  C_28 
REMARK    4  A    between atoms: C_28  and  S_29 
REMARK    5  A    between atoms: C_30  and  C_31 
REMARK    6  A    between atoms: C_31  and  C_32 
REMARK    7  A    between atoms: C_32  and  C_37 
REMARK    8  A    between atoms: C_33  and  C_34 
REMARK    9  A    between atoms: C_34  and  C_35 
REMARK   10  A    between atoms: C_35  and  C_40 
REMARK   11  A    between atoms: C_37  and  O_36 
REMARK   12  A    between atoms: C_40  and  O_39 
ROOT
HETATM    1  C   UNK N   1      25.913  12.290   1.762  0.00  0.00     0.066 A 
HETATM    2  C   UNK N   1      28.045  12.581   1.887  0.00  0.00     0.067 A 
HETATM    3  C   UNK N   1      29.368  13.156   2.117  0.00  0.00     0.064 A 
HETATM    4  C   UNK N   1      29.563  14.324   2.691  0.00  0.00     0.066 A 
HETATM    5  C   UNK N   1      29.175  16.218   3.629  0.00  0.00     0.067 A 
HETATM    6  C   UNK N   1      28.582  17.413   4.109  0.00  0.00     0.064 C 
HETATM    7  C   UNK N   1      27.311  17.644   4.094  0.00  0.00     0.066 C 
HETATM    8  C   UNK N   1      25.236  17.431   3.770  0.00  0.00     0.066 C 
HETATM    9  C   UNK N   1      24.084  16.944   3.514  0.00  0.00     0.064 C 
HETATM   10  C   UNK N   1      23.827  15.622   3.071  0.00  0.00     0.066 A 
HETATM   11  C   UNK N   1      23.954  13.627   2.267  0.00  0.00     0.066 A 
HETATM   12  C   UNK N   1      24.485  12.501   1.819  0.00  0.00     0.064 A 
HETATM   13  N   UNK N   1      28.572  15.246   3.049  0.00  0.00    -0.248 N 
HETATM   14  N   UNK N   1      26.379  16.821   3.598  0.00  0.00    -0.248 N 
HETATM   15  N   UNK N   1      24.673  14.784   2.674  0.00  0.00    -0.248 N 
HETATM   16  C   UNK N   1      26.496  11.173   1.202  0.00  0.00    -0.023 A 
HETATM   17  C   UNK N   1      25.732  10.021   0.625  0.00  0.00     0.051 C 
HETATM   18  C   UNK N   1      30.867  14.865   3.067  0.00  0.00    -0.023 A 
HETATM   19  C   UNK N   1      32.160  14.157   2.916  0.00  0.00     0.051 C 
HETATM   20  C   UNK N   1      26.757  18.829   4.436  0.00  0.00    -0.025 C 
HETATM   21  C   UNK N   1      27.426  20.034   4.995  0.00  0.00     0.051 C 
HETATM   22  C   UNK N   1      22.549  13.917   2.438  0.00  0.00    -0.025 A 
HETATM   23  C   UNK N   1      21.393  13.018   2.168  0.00  0.00     0.051 C 
HETATM   24  C   UNK N   1      27.863  11.352   1.289  0.00  0.00    -0.008 A 
HETATM   25  C   UNK N   1      30.623  16.052   3.636  0.00  0.00    -0.008 A 
HETATM   26  C   UNK N   1      22.522  15.151   2.943  0.00  0.00    -0.021 A 
HETATM   27  C   UNK N   1      25.434  18.684   4.177  0.00  0.00    -0.021 C 
HETATM   28  N   UNK N   1      26.873  13.183   2.112  0.00  0.00    -0.248 N 
HETATM   29 Fe   UNK N   1      26.626  14.980   2.846  0.00  0.00     0.000 Fe
ENDROOT
BRANCH  26  30
HETATM   30  C   UNK N   1      21.443  16.015   3.382  0.00  0.00     0.052 C 
BRANCH  30  31
HETATM   31  C   UNK N   1      20.741  16.541   2.189  0.00  0.00     0.115 C 
BRANCH  31  32
HETATM   32  C   UNK N   1      19.821  17.411   2.909  0.00  0.00     0.139 C 
HETATM   33  O   UNK N   1      19.505  17.093   4.037  0.00  0.00    -0.650 OA
BRANCH  32  34
HETATM   34  O   UNK N   1      19.002  18.185   2.181  0.00  0.00    -0.776 OA
HETATM   35  H   UNK N   1      18.925  19.111   2.310  0.00  0.00     0.167 HD
ENDBRANCH  32  34
ENDBRANCH  31  32
ENDBRANCH  30  31
ENDBRANCH  26  30
BRANCH  27  36
HETATM   36  C   UNK N   1      24.373  19.637   4.349  0.00  0.00     0.052 C 
BRANCH  36  37
HETATM   37  C   UNK N   1      24.247  20.335   3.048  0.00  0.00     0.115 C 
BRANCH  37  38
HETATM   38  C   UNK N   1      22.784  20.497   3.023  0.00  0.00     0.139 C 
HETATM   39  O   UNK N   1      22.119  19.708   3.646  0.00  0.00    -0.650 OA
BRANCH  38  40
HETATM   40  O   UNK N   1      22.308  21.708   2.713  0.00  0.00    -0.776 OA
HETATM   41  H   UNK N   1      21.796  22.244   3.287  0.00  0.00     0.167 HD
ENDBRANCH  38  40
ENDBRANCH  37  38
ENDBRANCH  36  37
ENDBRANCH  27  36
BRANCH  24  42
HETATM   42  C   UNK N   1      28.970  10.446   0.852  0.00  0.00     0.076 C 
HETATM   43  C   UNK N   1      29.626  10.602  -0.517  0.00  0.00     0.026 C 
BRANCH  42  44
HETATM   44  S   UNK N   1      29.798   9.376   2.037  0.00  0.00    -0.173 SA
HETATM   45  H   UNK N   1      30.044   8.075   1.730  0.00  0.00     0.102 HD
ENDBRANCH  42  44
ENDBRANCH  24  42
BRANCH  25  46
HETATM   46  C   UNK N   1      31.565  17.065   4.286  0.00  0.00     0.076 C 
HETATM   47  C   UNK N   1      32.796  17.364   3.437  0.00  0.00     0.026 C 
BRANCH  46  48
HETATM   48  S   UNK N   1      32.167  16.534   5.905  0.00  0.00    -0.173 SA
HETATM   49  H   UNK N   1      32.022  17.281   7.032  0.00  0.00     0.102 HD
ENDBRANCH  46  48
ENDBRANCH  25  46
TORSDOF 12
ENDMDL
MODEL 2
REMARK VINA RESULT:      -7.6      3.522      5.059
REMARK  12 active torsions:
REMARK  status: ('A' for Active; 'I' for Inactive)
REMARK    1  A    between atoms: C_24  and  C_25 
REMARK    2  A    between atoms: C_25  and  S_26 
REMARK    3  A    between atoms: C_27  and  C_28 
REMARK    4  A    between atoms: C_28  and  S_29 
REMARK    5  A    between atoms: C_30  and  C_31 
REMARK    6  A    between atoms: C_31  and  C_32 
REMARK    7  A    between atoms: C_32  and  C_37 
REMARK    8  A    between atoms: C_33  and  C_34 
REMARK    9  A    between atoms: C_34  and  C_35 
REMARK   10  A    between atoms: C_35  and  C_40 
REMARK   11  A    between atoms: C_37  and  O_36 
REMARK   12  A    between atoms: C_40  and  O_39 
ROOT
HETATM    1  C   UNK N   1      30.230  13.716   2.850  0.00  0.00     0.066 A 
HETATM    2  C   UNK N   1      32.039  13.452   3.991  0.00  0.00     0.067 A 
HETATM    3  C   UNK N   1      33.081  13.565   5.008  0.00  0.00     0.064 A 
HETATM    4  C   UNK N   1      32.955  14.288   6.100  0.00  0.00     0.066 A 
HETATM    5  C   UNK N   1      32.128  15.610   7.579  0.00  0.00     0.067 A 
HETATM    6  C   UNK N   1      31.353  16.569   8.280  0.00  0.00     0.064 C 
HETATM    7  C   UNK N   1      30.238  17.052   7.842  0.00  0.00     0.066 C 
HETATM    8  C   UNK N   1      28.572  17.459   6.613  0.00  0.00     0.066 C 
HETATM    9  C   UNK N   1      27.690  17.398   5.691  0.00  0.00     0.064 C 
HETATM   10  C   UNK N   1      27.703  16.496   4.597  0.00  0.00     0.066 A 
HETATM   11  C   UNK N   1      28.239  15.084   3.060  0.00  0.00     0.066 A 
HETATM   12  C   UNK N   1      28.942  14.185   2.392  0.00  0.00     0.064 A 
HETATM   13  N   UNK N   1      31.894  15.148   6.406  0.00  0.00    -0.248 N 
HETATM   14  N   UNK N   1      29.671  16.755   6.667  0.00  0.00    -0.248 N 
HETATM   15  N   UNK N   1      28.653  15.757   4.242  0.00  0.00    -0.248 N 
HETATM   16  C   UNK N   1      31.032  12.862   2.123  0.00  0.00    -0.023 A 
HETATM   17  C   UNK N   1      30.659  12.278   0.795  0.00  0.00     0.051 C 
HETATM   18  C   UNK N   1      33.912  14.311   7.205  0.00  0.00    -0.023 A 
HETATM   19  C   UNK N   1      35.136  13.479   7.291  0.00  0.00     0.051 C 
HETATM   20  C   UNK N   1      29.563  18.054   8.450  0.00  0.00    -0.025 C 
HETATM   21  C   UNK N   1      29.861  18.714   9.749  0.00  0.00     0.051 C 
HETATM   22  C   UNK N   1      26.916  15.565   2.738  0.00  0.00    -0.025 A 
HETATM   23  C   UNK N   1      26.045  15.152   1.602  0.00  0.00     0.051 C 
HETATM   24  C   UNK N   1      32.189  12.684   2.856  0.00  0.00    -0.008 A 
HETATM   25  C   UNK N   1      33.402  15.148   8.116  0.00  0.00    -0.008 A 
HETATM   26  C   UNK N   1      26.625  16.425   3.715  0.00  0.00    -0.021 A 
HETATM   27  C   UNK N   1      28.526  18.329   7.620  0.00  0.00    -0.021 C 
HETATM   28  N   UNK N   1      30.889  14.131   3.961  0.00  0.00    -0.248 N 
HETATM   29 Fe   UNK N   1      30.285  15.429   5.297  0.00  0.00     0.000 Fe
ENDROOT
BRANCH  26  30
HETATM   30  C   UNK N   1      25.450  17.219   4.017  0.00  0.00     0.052 C 
BRANCH  30  31
HETATM   31  C   UNK N   1      25.532  18.492   3.264  0.00  0.00     0.115 C 
BRANCH  31  32
HETATM   32  C   UNK N   1      24.539  19.212   4.050  0.00  0.00     0.139 C 
HETATM   33  O   UNK N   1      24.097  20.247   3.595  0.00  0.00    -0.650 OA
BRANCH  32  34
HETATM   34  O   UNK N   1      24.536  19.013   5.377  0.00  0.00    -0.776 OA
HETATM   35  H   UNK N   1      24.886  19.632   5.988  0.00  0.00     0.167 HD
ENDBRANCH  32  34
ENDBRANCH  31  32
ENDBRANCH  30  31
ENDBRANCH  26  30
BRANCH  27  36
HETATM   36  C   UNK N   1      27.491  19.315   7.769  0.00  0.00     0.052 C 
BRANCH  36  37
HETATM   37  C   UNK N   1      27.808  20.379   6.789  0.00  0.00     0.115 C 
BRANCH  37  38
HETATM   38  C   UNK N   1      26.602  21.205   6.958  0.00  0.00     0.139 C 
HETATM   39  O   UNK N   1      26.083  21.655   5.967  0.00  0.00    -0.650 OA
BRANCH  38  40
HETATM   40  O   UNK N   1      25.905  21.047   8.090  0.00  0.00    -0.776 OA
HETATM   41  H   UNK N   1      25.469  21.738   8.549  0.00  0.00     0.167 HD
ENDBRANCH  38  40
ENDBRANCH  37  38
ENDBRANCH  36  37
ENDBRANCH  27  36
BRANCH  24  42
HETATM   42  C   UNK N   1      33.389  11.846   2.548  0.00  0.00     0.076 C 
HETATM   43  C   UNK N   1      33.413  10.352   2.858  0.00  0.00     0.026 C 
BRANCH  42  44
HETATM   44  S   UNK N   1      34.704  12.482   1.497  0.00  0.00    -0.173 SA
HETATM   45  H   UNK N   1      35.897  12.846   2.038  0.00  0.00     0.102 HD
ENDBRANCH  42  44
ENDBRANCH  24  42
BRANCH  25  46
HETATM   46  C   UNK N   1      33.900  15.540   9.507  0.00  0.00     0.076 C 
HETATM   47  C   UNK N   1      34.991  16.605   9.472  0.00  0.00     0.026 C 
BRANCH  46  48
HETATM   48  S   UNK N   1      34.567  14.144  10.440  0.00  0.00    -0.173 SA
HETATM   49  H   UNK N   1      35.083  14.265  11.692  0.00  0.00     0.102 HD
ENDBRANCH  46  48
ENDBRANCH  25  46
TORSDOF 12
ENDMDL
MODEL 3
REMARK VINA RESULT:      -7.3      3.214      6.750
REMARK  12 active torsions:
REMARK  status: ('A' for Active; 'I' for Inactive)
REMARK    1  A    between atoms: C_24  and  C_25 
REMARK    2  A    between atoms: C_25  and  S_26 
REMARK    3  A    between atoms: C_27  and  C_28 
REMARK    4  A    between atoms: C_28  and  S_29 
REMARK    5  A    between atoms: C_30  and  C_31 
REMARK    6  A    between atoms: C_31  and  C_32 
REMARK    7  A    between atoms: C_32  and  C_37 
REMARK    8  A    between atoms: C_33  and  C_34 
REMARK    9  A    between atoms: C_34  and  C_35 
REMARK   10  A    between atoms: C_35  and  C_40 
REMARK   11  A    between atoms: C_37  and  O_36 
REMARK   12  A    between atoms: C_40  and  O_39 
ROOT
HETATM    1  C   UNK N   1      31.914  15.269   7.234  0.00  0.00     0.066 A 
HETATM    2  C   UNK N   1      32.267  13.668   5.835  0.00  0.00     0.067 A 
HETATM    3  C   UNK N   1      32.150  12.736   4.716  0.00  0.00     0.064 A 
HETATM    4  C   UNK N   1      31.238  12.843   3.775  0.00  0.00     0.066 A 
HETATM    5  C   UNK N   1      29.563  13.566   2.638  0.00  0.00     0.067 A 
HETATM    6  C   UNK N   1      28.384  14.222   2.202  0.00  0.00     0.064 C 
HETATM    7  C   UNK N   1      27.809  15.178   2.853  0.00  0.00     0.066 C 
HETATM    8  C   UNK N   1      27.356  16.603   4.342  0.00  0.00     0.066 C 
HETATM    9  C   UNK N   1      27.432  17.379   5.354  0.00  0.00     0.064 C 
HETATM   10  C   UNK N   1      28.500  17.416   6.286  0.00  0.00     0.066 A 
HETATM   11  C   UNK N   1      30.225  16.988   7.504  0.00  0.00     0.066 A 
HETATM   12  C   UNK N   1      31.329  16.394   7.927  0.00  0.00     0.064 A 
HETATM   13  N   UNK N   1      30.177  13.755   3.748  0.00  0.00    -0.248 N 
HETATM   14  N   UNK N   1      28.209  15.662   4.035  0.00  0.00    -0.248 N 
HETATM   15  N   UNK N   1      29.434  16.584   6.393  0.00  0.00    -0.248 N 
HETATM   16  C   UNK N   1      33.000  14.564   7.709  0.00  0.00    -0.023 A 
HETATM   17  C   UNK N   1      33.737  14.896   8.970  0.00  0.00     0.051 C 
HETATM   18  C   UNK N   1      31.179  12.019   2.569  0.00  0.00    -0.023 A 
HETATM   19  C   UNK N   1      32.172  10.983   2.194  0.00  0.00     0.051 C 
HETATM   20  C   UNK N   1      26.621  15.719   2.502  0.00  0.00    -0.025 C 
HETATM   21  C   UNK N   1      25.803  15.444   1.290  0.00  0.00     0.051 C 
HETATM   22  C   UNK N   1      29.598  18.160   8.070  0.00  0.00    -0.025 A 
HETATM   23  C   UNK N   1      30.055  18.966   9.236  0.00  0.00     0.051 C 
HETATM   24  C   UNK N   1      33.234  13.542   6.809  0.00  0.00    -0.008 A 
HETATM   25  C   UNK N   1      30.125  12.461   1.872  0.00  0.00    -0.008 A 
HETATM   26  C   UNK N   1      28.546  18.390   7.282  0.00  0.00    -0.021 A 
HETATM   27  C   UNK N   1      26.329  16.595   3.495  0.00  0.00    -0.021 C 
HETATM   28  N   UNK N   1      31.425  14.666   6.122  0.00  0.00    -0.248 N 
HETATM   29 Fe   UNK N   1      29.835  15.161   5.092  0.00  0.00     0.000 Fe
ENDROOT
BRANCH  26  30
HETATM   30  C   UNK N   1      27.532  19.426   7.266  0.00  0.00     0.052 C 
BRANCH  30  31
HETATM   31  C   UNK N   1      28.024  20.558   6.448  0.00  0.00     0.115 C 
BRANCH  31  32
HETATM   32  C   UNK N   1      26.724  21.176   6.222  0.00  0.00     0.139 C 
HETATM   33  O   UNK N   1      26.153  21.659   7.176  0.00  0.00    -0.650 OA
BRANCH  32  34
HETATM   34  O   UNK N   1      26.016  20.757   5.162  0.00  0.00    -0.776 OA
HETATM   35  H   UNK N   1      25.378  20.071   5.212  0.00  0.00     0.167 HD
ENDBRANCH  32  34
ENDBRANCH  31  32
ENDBRANCH  30  31
ENDBRANCH  26  30
BRANCH  27  36
HETATM   36  C   UNK N   1      25.178  17.443   3.638  0.00  0.00     0.052 C 
BRANCH  36  37
HETATM   37  C   UNK N   1      24.114  16.582   4.205  0.00  0.00     0.115 C 
BRANCH  37  38
HETATM   38  C   UNK N   1      23.465  17.574   5.077  0.00  0.00     0.139 C 
HETATM   39  O   UNK N   1      22.534  17.209   5.751  0.00  0.00    -0.650 OA
BRANCH  38  40
HETATM   40  O   UNK N   1      24.181  18.653   5.417  0.00  0.00    -0.776 OA
HETATM   41  H   UNK N   1      24.500  18.832   6.279  0.00  0.00     0.167 HD
ENDBRANCH  38  40
ENDBRANCH  37  38
ENDBRANCH  36  37
ENDBRANCH  27  36
BRANCH  24  42
HETATM   42  C   UNK N   1      34.296  12.490   6.822  0.00  0.00     0.076 C 
HETATM   43  C   UNK N   1      35.675  12.748   6.221  0.00  0.00     0.026 C 
BRANCH  42  44
HETATM   44  S   UNK N   1      34.114  11.019   7.842  0.00  0.00    -0.173 SA
HETATM   45  H   UNK N   1      32.892  10.447   8.006  0.00  0.00     0.102 HD
ENDBRANCH  42  44
ENDBRANCH  24  42
BRANCH  25  46
HETATM   46  C   UNK N   1      29.585  12.048   0.503  0.00  0.00     0.076 C 
HETATM   47  C   UNK N   1      28.834  10.721   0.533  0.00  0.00     0.026 C 
BRANCH  46  48
HETATM   48  S   UNK N   1      30.877  11.886  -0.749  0.00  0.00    -0.173 SA
HETATM   49  H   UNK N   1      31.906  11.003  -0.645  0.00  0.00     0.102 HD
ENDBRANCH  46  48
ENDBRANCH  25  46
TORSDOF 12
ENDMDL
MODEL 4
REMARK VINA RESULT:      -7.2      5.288      9.820
REMARK  12 active torsions:
REMARK  status: ('A' for Active; 'I' for Inactive)
REMARK    1  A    between atoms: C_24  and  C_25 
REMARK    2  A    between atoms: C_25  and  S_26 
REMARK    3  A    between atoms: C_27  and  C_28 
REMARK    4  A    between atoms: C_28  and  S_29 
REMARK    5  A    between atoms: C_30  and  C_31 
REMARK    6  A    between atoms: C_31  and  C_32 
REMARK    7  A    between atoms: C_32  and  C_37 
REMARK    8  A    between atoms: C_33  and  C_34 
REMARK    9  A    between atoms: C_34  and  C_35 
REMARK   10  A    between atoms: C_35  and  C_40 
REMARK   11  A    between atoms: C_37  and  O_36 
REMARK   12  A    between atoms: C_40  and  O_39 
ROOT
HETATM    1  C   UNK N   1      27.464  18.463   6.000  0.00  0.00     0.066 A 
HETATM    2  C   UNK N   1      26.443  17.503   4.362  0.00  0.00     0.067 A 
HETATM    3  C   UNK N   1      26.073  16.580   3.292  0.00  0.00     0.064 A 
HETATM    4  C   UNK N   1      26.704  15.451   3.056  0.00  0.00     0.066 A 
HETATM    5  C   UNK N   1      28.126  13.846   3.207  0.00  0.00     0.067 A 
HETATM    6  C   UNK N   1      29.253  13.037   3.502  0.00  0.00     0.064 C 
HETATM    7  C   UNK N   1      30.157  13.350   4.369  0.00  0.00     0.066 C 
HETATM    8  C   UNK N   1      31.261  14.405   5.826  0.00  0.00     0.066 C 
HETATM    9  C   UNK N   1      31.612  15.245   6.722  0.00  0.00     0.064 C 
HETATM   10  C   UNK N   1      30.859  16.375   7.132  0.00  0.00     0.066 A 
HETATM   11  C   UNK N   1      29.469  18.014   7.287  0.00  0.00     0.066 A 
HETATM   12  C   UNK N   1      28.422  18.782   7.032  0.00  0.00     0.064 A 
HETATM   13  N   UNK N   1      27.879  15.013   3.679  0.00  0.00    -0.248 N 
HETATM   14  N   UNK N   1      30.189  14.481   5.083  0.00  0.00    -0.248 N 
HETATM   15  N   UNK N   1      29.841  16.846   6.567  0.00  0.00    -0.248 N 
HETATM   16  C   UNK N   1      26.427  19.297   5.641  0.00  0.00    -0.023 A 
HETATM   17  C   UNK N   1      26.131  20.610   6.298  0.00  0.00     0.051 C 
HETATM   18  C   UNK N   1      26.277  14.438   2.094  0.00  0.00    -0.023 A 
HETATM   19  C   UNK N   1      25.036  14.499   1.284  0.00  0.00     0.051 C 
HETATM   20  C   UNK N   1      31.292  12.641   4.562  0.00  0.00    -0.025 C 
HETATM   21  C   UNK N   1      31.688  11.346   3.947  0.00  0.00     0.051 C 
HETATM   22  C   UNK N   1      30.443  18.194   8.339  0.00  0.00    -0.025 A 
HETATM   23  C   UNK N   1      30.481  19.264   9.375  0.00  0.00     0.051 C 
HETATM   24  C   UNK N   1      25.764  18.680   4.596  0.00  0.00    -0.008 A 
HETATM   25  C   UNK N   1      27.174  13.447   2.178  0.00  0.00    -0.008 A 
HETATM   26  C   UNK N   1      31.272  17.157   8.208  0.00  0.00    -0.021 A 
HETATM   27  C   UNK N   1      32.004  13.360   5.464  0.00  0.00    -0.021 C 
HETATM   28  N   UNK N   1      27.511  17.400   5.159  0.00  0.00    -0.248 N 
HETATM   29 Fe   UNK N   1      28.836  15.959   5.124  0.00  0.00     0.000 Fe
ENDROOT
BRANCH  26  30
HETATM   30  C   UNK N   1      32.429  16.716   8.962  0.00  0.00     0.052 C 
BRANCH  30  31
HETATM   31  C   UNK N   1      33.601  17.522   8.547  0.00  0.00     0.115 C 
BRANCH  31  32
HETATM   32  C   UNK N   1      34.590  16.785   9.322  0.00  0.00     0.139 C 
HETATM   33  O   UNK N   1      34.355  15.624   9.584  0.00  0.00    -0.650 OA
BRANCH  32  34
HETATM   34  O   UNK N   1      35.412  17.494  10.111  0.00  0.00    -0.776 OA
HETATM   35  H   UNK N   1      36.268  17.199  10.354  0.00  0.00     0.167 HD
ENDBRANCH  32  34
ENDBRANCH  31  32
ENDBRANCH  30  31
ENDBRANCH  26  30
BRANCH  27  36
HETATM   36  C   UNK N   1      33.296  13.075   6.025  0.00  0.00     0.052 C 
BRANCH  36  37
HETATM   37  C   UNK N   1      34.277  13.705   5.111  0.00  0.00     0.115 C 
BRANCH  37  38
HETATM   38  C   UNK N   1      35.072  14.440   6.107  0.00  0.00     0.139 C 
HETATM   39  O   UNK N   1      35.255  15.617   5.926  0.00  0.00    -0.650 OA
BRANCH  38  40
HETATM   40  O   UNK N   1      35.159  13.909   7.333  0.00  0.00    -0.776 OA
HETATM   41  H   UNK N   1      35.844  13.337   7.620  0.00  0.00     0.167 HD
ENDBRANCH  38  40
ENDBRANCH  37  38
ENDBRANCH  36  37
ENDBRANCH  27  36
BRANCH  24  42
HETATM   42  C   UNK N   1      24.558  19.132   3.837  0.00  0.00     0.076 C 
HETATM   43  C   UNK N   1      23.159  18.651   4.214  0.00  0.00     0.026 C 
BRANCH  42  44
HETATM   44  S   UNK N   1      24.663  20.511   2.688  0.00  0.00    -0.173 SA
HETATM   45  H   UNK N   1      25.833  20.784   2.051  0.00  0.00     0.102 HD
ENDBRANCH  42  44
ENDBRANCH  24  42
BRANCH  25  46
HETATM   46  C   UNK N   1      27.239  12.092   1.476  0.00  0.00     0.076 C 
HETATM   47  C   UNK N   1      26.881  10.927   2.393  0.00  0.00     0.026 C 
BRANCH  46  48
HETATM   48  S   UNK N   1      28.869  11.728   0.787  0.00  0.00    -0.173 SA
HETATM   49  H   UNK N   1      29.717  10.812   1.328  0.00  0.00     0.102 HD
ENDBRANCH  46  48
ENDBRANCH  25  46
TORSDOF 12
ENDMDL
MODEL 5
REMARK VINA RESULT:      -7.2      2.156      6.226
REMARK  12 active torsions:
REMARK  status: ('A' for Active; 'I' for Inactive)
REMARK    1  A    between atoms: C_24  and  C_25 
REMARK    2  A    between atoms: C_25  and  S_26 
REMARK    3  A    between atoms: C_27  and  C_28 
REMARK    4  A    between atoms: C_28  and  S_29 
REMARK    5  A    between atoms: C_30  and  C_31 
REMARK    6  A    between atoms: C_31  and  C_32 
REMARK    7  A    between atoms: C_32  and  C_37 
REMARK    8  A    between atoms: C_33  and  C_34 
REMARK    9  A    between atoms: C_34  and  C_35 
REMARK   10  A    between atoms: C_35  and  C_40 
REMARK   11  A    between atoms: C_37  and  O_36 
REMARK   12  A    between atoms: C_40  and  O_39 
ROOT
HETATM    1  C   UNK N   1      30.116  17.009   6.463  0.00  0.00     0.066 A 
HETATM    2  C   UNK N   1      31.013  15.130   5.904  0.00  0.00     0.067 A 
HETATM    3  C   UNK N   1      31.257  13.817   5.313  0.00  0.00     0.064 A 
HETATM    4  C   UNK N   1      30.450  13.252   4.441  0.00  0.00     0.066 A 
HETATM    5  C   UNK N   1      28.771  12.922   3.140  0.00  0.00     0.067 A 
HETATM    6  C   UNK N   1      27.515  12.972   2.486  0.00  0.00     0.064 C 
HETATM    7  C   UNK N   1      26.648  13.914   2.662  0.00  0.00     0.066 C 
HETATM    8  C   UNK N   1      25.692  15.653   3.381  0.00  0.00     0.066 C 
HETATM    9  C   UNK N   1      25.460  16.775   3.945  0.00  0.00     0.064 C 
HETATM   10  C   UNK N   1      26.380  17.502   4.742  0.00  0.00     0.066 A 
HETATM   11  C   UNK N   1      28.022  18.134   5.985  0.00  0.00     0.066 A 
HETATM   12  C   UNK N   1      29.193  18.111   6.602  0.00  0.00     0.064 A 
HETATM   13  N   UNK N   1      29.198  13.731   4.039  0.00  0.00    -0.248 N 
HETATM   14  N   UNK N   1      26.786  14.948   3.500  0.00  0.00    -0.248 N 
HETATM   15  N   UNK N   1      27.481  17.092   5.184  0.00  0.00    -0.248 N 
HETATM   16  C   UNK N   1      31.292  16.908   7.175  0.00  0.00    -0.023 A 
HETATM   17  C   UNK N   1      31.785  17.938   8.145  0.00  0.00     0.051 C 
HETATM   18  C   UNK N   1      30.731  12.010   3.723  0.00  0.00    -0.023 A 
HETATM   19  C   UNK N   1      31.990  11.234   3.820  0.00  0.00     0.051 C 
HETATM   20  C   UNK N   1      25.403  13.899   2.135  0.00  0.00    -0.025 C 
HETATM   21  C   UNK N   1      24.814  12.917   1.186  0.00  0.00     0.051 C 
HETATM   22  C   UNK N   1      27.059  19.211   5.991  0.00  0.00    -0.025 A 
HETATM   23  C   UNK N   1      27.170  20.531   6.672  0.00  0.00     0.051 C 
HETATM   24  C   UNK N   1      31.874  15.708   6.812  0.00  0.00    -0.008 A 
HETATM   25  C   UNK N   1      29.676  11.799   2.926  0.00  0.00    -0.008 A 
HETATM   26  C   UNK N   1      26.070  18.780   5.206  0.00  0.00    -0.021 A 
HETATM   27  C   UNK N   1      24.794  14.998   2.646  0.00  0.00    -0.021 C 
HETATM   28  N   UNK N   1      29.917  15.878   5.741  0.00  0.00    -0.248 N 
HETATM   29 Fe   UNK N   1      28.368  15.421   4.634  0.00  0.00     0.000 Fe
ENDROOT
BRANCH  26  30
HETATM   30  C   UNK N   1      24.831  19.382   4.758  0.00  0.00     0.052 C 
BRANCH  30  31
HETATM   31  C   UNK N   1      25.111  20.211   3.563  0.00  0.00     0.115 C 
BRANCH  31  32
HETATM   32  C   UNK N   1      23.744  20.245   3.061  0.00  0.00     0.139 C 
HETATM   33  O   UNK N   1      23.303  21.313   2.689  0.00  0.00    -0.650 OA
BRANCH  32  34
HETATM   34  O   UNK N   1      22.905  19.288   3.484  0.00  0.00    -0.776 OA
HETATM   35  H   UNK N   1      23.150  18.385   3.549  0.00  0.00     0.167 HD
ENDBRANCH  32  34
ENDBRANCH  31  32
ENDBRANCH  30  31
ENDBRANCH  26  30
BRANCH  27  36
HETATM   36  C   UNK N   1      23.455  15.469   2.427  0.00  0.00     0.052 C 
BRANCH  36  37
HETATM   37  C   UNK N   1      22.642  14.890   3.522  0.00  0.00     0.115 C 
BRANCH  37  38
HETATM   38  C   UNK N   1      21.843  16.079   3.860  0.00  0.00     0.139 C 
HETATM   39  O   UNK N   1      22.067  16.628   4.909  0.00  0.00    -0.650 OA
BRANCH  38  40
HETATM   40  O   UNK N   1      21.263  16.735   2.848  0.00  0.00    -0.776 OA
HETATM   41  H   UNK N   1      21.533  17.574   2.530  0.00  0.00     0.167 HD
ENDBRANCH  38  40
ENDBRANCH  37  38
ENDBRANCH  36  37
ENDBRANCH  27  36
BRANCH  24  42
HETATM   42  C   UNK N   1      33.165  15.103   7.264  0.00  0.00     0.076 C 
HETATM   43  C   UNK N   1      34.503  15.591   6.716  0.00  0.00     0.026 C 
BRANCH  42  44
HETATM   44  S   UNK N   1      33.217  14.031   8.709  0.00  0.00    -0.173 SA
HETATM   45  H   UNK N   1      32.795  14.490   9.917  0.00  0.00     0.102 HD
ENDBRANCH  42  44
ENDBRANCH  24  42
BRANCH  25  46
HETATM   46  C   UNK N   1      29.404  10.708   1.891  0.00  0.00     0.076 C 
HETATM   47  C   UNK N   1      29.458   9.302   2.479  0.00  0.00     0.026 C 
BRANCH  46  48
HETATM   48  S   UNK N   1      30.566  10.738   0.508  0.00  0.00    -0.173 SA
HETATM   49  H   UNK N   1      31.519  11.697   0.359  0.00  0.00     0.102 HD
ENDBRANCH  46  48
ENDBRANCH  25  46
TORSDOF 12
ENDMDL
MODEL 6
REMARK VINA RESULT:      -7.2      1.549      5.985
REMARK  12 active torsions:
REMARK  status: ('A' for Active; 'I' for Inactive)
REMARK    1  A    between atoms: C_24  and  C_25 
REMARK    2  A    between atoms: C_25  and  S_26 
REMARK    3  A    between atoms: C_27  and  C_28 
REMARK    4  A    between atoms: C_28  and  S_29 
REMARK    5  A    between atoms: C_30  and  C_31 
REMARK    6  A    between atoms: C_31  and  C_32 
REMARK    7  A    between atoms: C_32  and  C_37 
REMARK    8  A    between atoms: C_33  and  C_34 
REMARK    9  A    between atoms: C_34  and  C_35 
REMARK   10  A    between atoms: C_35  and  C_40 
REMARK   11  A    between atoms: C_37  and  O_36 
REMARK   12  A    between atoms: C_40  and  O_39 
ROOT
HETATM    1  C   UNK N   1      28.828  14.986   2.897  0.00  0.00     0.066 A 
HETATM    2  C   UNK N   1      28.555  12.984   2.146  0.00  0.00     0.067 A 
HETATM    3  C   UNK N   1      27.963  11.735   1.674  0.00  0.00     0.064 A 
HETATM    4  C   UNK N   1      26.673  11.572   1.477  0.00  0.00     0.066 A 
HETATM    5  C   UNK N   1      24.562  11.971   1.394  0.00  0.00     0.067 A 
HETATM    6  C   UNK N   1      23.263  12.513   1.560  0.00  0.00     0.064 C 
HETATM    7  C   UNK N   1      23.027  13.669   2.086  0.00  0.00     0.066 C 
HETATM    8  C   UNK N   1      23.297  15.544   3.016  0.00  0.00     0.066 C 
HETATM    9  C   UNK N   1      23.819  16.612   3.482  0.00  0.00     0.064 C 
HETATM   10  C   UNK N   1      25.208  16.896   3.535  0.00  0.00     0.066 A 
HETATM   11  C   UNK N   1      27.360  16.799   3.557  0.00  0.00     0.066 A 
HETATM   12  C   UNK N   1      28.582  16.315   3.406  0.00  0.00     0.064 A 
HETATM   13  N   UNK N   1      25.664  12.488   1.799  0.00  0.00    -0.248 N 
HETATM   14  N   UNK N   1      23.952  14.501   2.578  0.00  0.00    -0.248 N 
HETATM   15  N   UNK N   1      26.148  16.093   3.323  0.00  0.00    -0.248 N 
HETATM   16  C   UNK N   1      30.082  14.417   2.829  0.00  0.00    -0.023 A 
HETATM   17  C   UNK N   1      31.348  15.111   3.230  0.00  0.00     0.051 C 
HETATM   18  C   UNK N   1      26.060  10.392   0.871  0.00  0.00    -0.023 A 
HETATM   19  C   UNK N   1      26.802   9.228   0.330  0.00  0.00     0.051 C 
HETATM   20  C   UNK N   1      21.786  14.133   2.356  0.00  0.00    -0.025 C 
HETATM   21  C   UNK N   1      20.475  13.515   2.022  0.00  0.00     0.051 C 
HETATM   22  C   UNK N   1      27.000  18.132   3.983  0.00  0.00    -0.025 A 
HETATM   23  C   UNK N   1      27.913  19.257   4.329  0.00  0.00     0.051 C 
HETATM   24  C   UNK N   1      29.912  13.136   2.340  0.00  0.00    -0.008 A 
HETATM   25  C   UNK N   1      24.744  10.636   0.836  0.00  0.00    -0.008 A 
HETATM   26  C   UNK N   1      25.667  18.147   3.945  0.00  0.00    -0.021 A 
HETATM   27  C   UNK N   1      21.986  15.313   2.994  0.00  0.00    -0.021 C 
HETATM   28  N   UNK N   1      27.889  14.072   2.545  0.00  0.00    -0.248 N 
HETATM   29 Fe   UNK N   1      25.944  14.287   2.563  0.00  0.00     0.000 Fe
ENDROOT
BRANCH  26  30
HETATM   30  C   UNK N   1      24.682  19.178   4.208  0.00  0.00     0.052 C 
BRANCH  30  31
HETATM   31  C   UNK N   1      24.750  20.185   3.124  0.00  0.00     0.115 C 
BRANCH  31  32
HETATM   32  C   UNK N   1      23.323  20.476   3.080  0.00  0.00     0.139 C 
HETATM   33  O   UNK N   1      22.984  21.616   2.839  0.00  0.00    -0.650 OA
BRANCH  32  34
HETATM   34  O   UNK N   1      22.505  19.669   3.772  0.00  0.00    -0.776 OA
HETATM   35  H   UNK N   1      22.400  18.758   3.577  0.00  0.00     0.167 HD
ENDBRANCH  32  34
ENDBRANCH  31  32
ENDBRANCH  30  31
ENDBRANCH  26  30
BRANCH  27  36
HETATM   36  C   UNK N   1      21.011  16.232   3.515  0.00  0.00     0.052 C 
BRANCH  36  37
HETATM   37  C   UNK N   1      20.445  16.926   2.335  0.00  0.00     0.115 C 
BRANCH  37  38
HETATM   38  C   UNK N   1      19.613  17.916   3.037  0.00  0.00     0.139 C 
HETATM   39  O   UNK N   1      20.090  18.481   3.989  0.00  0.00    -0.650 OA
BRANCH  38  40
HETATM   40  O   UNK N   1      18.595  18.454   2.355  0.00  0.00    -0.776 OA
HETATM   41  H   UNK N   1      17.958  17.965   1.870  0.00  0.00     0.167 HD
ENDBRANCH  38  40
ENDBRANCH  37  38
ENDBRANCH  36  37
ENDBRANCH  27  36
BRANCH  24  42
HETATM   42  C   UNK N   1      30.936  12.085   2.052  0.00  0.00     0.076 C 
HETATM   43  C   UNK N   1      31.523  11.914   0.654  0.00  0.00     0.026 C 
BRANCH  42  44
HETATM   44  S   UNK N   1      31.763  11.220   3.396  0.00  0.00    -0.173 SA
HETATM   45  H   UNK N   1      31.984  11.849   4.581  0.00  0.00     0.102 HD
ENDBRANCH  42  44
ENDBRANCH  24  42
BRANCH  25  46
HETATM   46  C   UNK N   1      23.588   9.817   0.265  0.00  0.00     0.076 C 
HETATM   47  C   UNK N   1      23.442   8.449   0.925  0.00  0.00     0.026 C 
BRANCH  46  48
HETATM   48  S   UNK N   1      23.737   9.523  -1.511  0.00  0.00    -0.173 SA
HETATM   49  H   UNK N   1      22.740   9.794  -2.396  0.00  0.00     0.102 HD
ENDBRANCH  46  48
ENDBRANCH  25  46
TORSDOF 12
ENDMDL
MODEL 7
REMARK VINA RESULT:      -7.1      3.425      6.703
REMARK  12 active torsions:
REMARK  status: ('A' for Active; 'I' for Inactive)
REMARK    1  A    between atoms: C_24  and  C_25 
REMARK    2  A    between atoms: C_25  and  S_26 
REMARK    3  A    between atoms: C_27  and  C_28 
REMARK    4  A    between atoms: C_28  and  S_29 
REMARK    5  A    between atoms: C_30  and  C_31 
REMARK    6  A    between atoms: C_31  and  C_32 
REMARK    7  A    between atoms: C_32  and  C_37 
REMARK    8  A    between atoms: C_33  and  C_34 
REMARK    9  A    between atoms: C_34  and  C_35 
REMARK   10  A    between atoms: C_35  and  C_40 
REMARK   11  A    between atoms: C_37  and  O_36 
REMARK   12  A    between atoms: C_40  and  O_39 
ROOT
HETATM    1  C   UNK N   1      24.911  14.905   2.539  0.00  0.00     0.066 A 
HETATM    2  C   UNK N   1      25.605  12.978   1.866  0.00  0.00     0.067 A 
HETATM    3  C   UNK N   1      26.447  11.831   1.537  0.00  0.00     0.064 A 
HETATM    4  C   UNK N   1      27.724  11.755   1.844  0.00  0.00     0.066 A 
HETATM    5  C   UNK N   1      29.669  12.276   2.596  0.00  0.00     0.067 A 
HETATM    6  C   UNK N   1      30.809  12.959   3.089  0.00  0.00     0.064 C 
HETATM    7  C   UNK N   1      30.796  14.187   3.490  0.00  0.00     0.066 C 
HETATM    8  C   UNK N   1      30.145  16.142   3.949  0.00  0.00     0.066 C 
HETATM    9  C   UNK N   1      29.414  17.163   4.181  0.00  0.00     0.064 C 
HETATM   10  C   UNK N   1      28.004  17.217   4.038  0.00  0.00     0.066 A 
HETATM   11  C   UNK N   1      25.943  16.869   3.515  0.00  0.00     0.066 A 
HETATM   12  C   UNK N   1      24.865  16.249   3.065  0.00  0.00     0.064 A 
HETATM   13  N   UNK N   1      28.504  12.775   2.401  0.00  0.00    -0.248 N 
HETATM   14  N   UNK N   1      29.732  14.999   3.469  0.00  0.00    -0.248 N 
HETATM   15  N   UNK N   1      27.271  16.361   3.485  0.00  0.00    -0.248 N 
HETATM   16  C   UNK N   1      23.827  14.274   1.965  0.00  0.00    -0.023 A 
HETATM   17  C   UNK N   1      22.461  14.877   1.853  0.00  0.00     0.051 C 
HETATM   18  C   UNK N   1      28.561  10.571   1.662  0.00  0.00    -0.023 A 
HETATM   19  C   UNK N   1      28.084   9.258   1.163  0.00  0.00     0.051 C 
HETATM   20  C   UNK N   1      31.905  14.875   3.844  0.00  0.00    -0.025 C 
HETATM   21  C   UNK N   1      33.301  14.378   3.965  0.00  0.00     0.051 C 
HETATM   22  C   UNK N   1      26.001  18.175   4.129  0.00  0.00    -0.025 A 
HETATM   23  C   UNK N   1      24.870  19.105   4.406  0.00  0.00     0.051 C 
HETATM   24  C   UNK N   1      24.267  13.035   1.541  0.00  0.00    -0.008 A 
HETATM   25  C   UNK N   1      29.775  10.904   2.115  0.00  0.00    -0.008 A 
HETATM   26  C   UNK N   1      27.287  18.342   4.441  0.00  0.00    -0.021 A 
HETATM   27  C   UNK N   1      31.470  16.136   4.088  0.00  0.00    -0.021 C 
HETATM   28  N   UNK N   1      26.016  14.130   2.406  0.00  0.00    -0.248 N 
HETATM   29 Fe   UNK N   1      27.852  14.562   2.932  0.00  0.00     0.000 Fe
ENDROOT
BRANCH  26  30
HETATM   30  C   UNK N   1      28.012  19.404   5.111  0.00  0.00     0.052 C 
BRANCH  30  31
HETATM   31  C   UNK N   1      27.826  19.256   6.573  0.00  0.00     0.115 C 
BRANCH  31  32
HETATM   32  C   UNK N   1      27.135  20.521   6.781  0.00  0.00     0.139 C 
HETATM   33  O   UNK N   1      27.623  21.520   6.293  0.00  0.00    -0.650 OA
BRANCH  32  34
HETATM   34  O   UNK N   1      26.342  20.624   7.857  0.00  0.00    -0.776 OA
HETATM   35  H   UNK N   1      25.444  20.353   7.859  0.00  0.00     0.167 HD
ENDBRANCH  32  34
ENDBRANCH  31  32
ENDBRANCH  30  31
ENDBRANCH  26  30
BRANCH  27  36
HETATM   36  C   UNK N   1      32.228  17.288   4.492  0.00  0.00     0.052 C 
BRANCH  36  37
HETATM   37  C   UNK N   1      32.116  17.342   5.968  0.00  0.00     0.115 C 
BRANCH  37  38
HETATM   38  C   UNK N   1      33.520  17.066   6.309  0.00  0.00     0.139 C 
HETATM   39  O   UNK N   1      34.317  17.962   6.185  0.00  0.00    -0.650 OA
BRANCH  38  40
HETATM   40  O   UNK N   1      33.760  16.040   7.134  0.00  0.00    -0.776 OA
HETATM   41  H   UNK N   1      34.262  16.095   7.924  0.00  0.00     0.167 HD
ENDBRANCH  38  40
ENDBRANCH  37  38
ENDBRANCH  36  37
ENDBRANCH  27  36
BRANCH  24  42
HETATM   42  C   UNK N   1      23.507  11.936   0.868  0.00  0.00     0.076 C 
HETATM   43  C   UNK N   1      23.551  11.755  -0.647  0.00  0.00     0.026 C 
BRANCH  42  44
HETATM   44  S   UNK N   1      22.802  10.590   1.830  0.00  0.00    -0.173 SA
HETATM   45  H   UNK N   1      21.582  10.732   2.415  0.00  0.00     0.102 HD
ENDBRANCH  42  44
ENDBRANCH  24  42
BRANCH  25  46
HETATM   46  C   UNK N   1      31.055  10.080   2.251  0.00  0.00     0.076 C 
HETATM   47  C   UNK N   1      31.536   9.501   0.924  0.00  0.00     0.026 C 
BRANCH  46  48
HETATM   48  S   UNK N   1      30.885   8.690   3.393  0.00  0.00    -0.173 SA
HETATM   49  H   UNK N   1      29.774   7.908   3.451  0.00  0.00     0.102 HD
ENDBRANCH  46  48
ENDBRANCH  25  46
TORSDOF 12
ENDMDL
MODEL 8
REMARK VINA RESULT:      -7.0      5.014      8.635
REMARK  12 active torsions:
REMARK  status: ('A' for Active; 'I' for Inactive)
REMARK    1  A    between atoms: C_24  and  C_25 
REMARK    2  A    between atoms: C_25  and  S_26 
REMARK    3  A    between atoms: C_27  and  C_28 
REMARK    4  A    between atoms: C_28  and  S_29 
REMARK    5  A    between atoms: C_30  and  C_31 
REMARK    6  A    between atoms: C_31  and  C_32 
REMARK    7  A    between atoms: C_32  and  C_37 
REMARK    8  A    between atoms: C_33  and  C_34 
REMARK    9  A    between atoms: C_34  and  C_35 
REMARK   10  A    between atoms: C_35  and  C_40 
REMARK   11  A    between atoms: C_37  and  O_36 
REMARK   12  A    between atoms: C_40  and  O_39 
ROOT
HETATM    1  C   UNK N   1      26.002  15.170   5.502  0.00  0.00     0.066 A 
HETATM    2  C   UNK N   1      25.723  13.733   3.920  0.00  0.00     0.067 A 
HETATM    3  C   UNK N   1      25.953  12.806   2.815  0.00  0.00     0.064 A 
HETATM    4  C   UNK N   1      27.150  12.480   2.378  0.00  0.00     0.066 A 
HETATM    5  C   UNK N   1      29.288  12.409   2.166  0.00  0.00     0.067 A 
HETATM    6  C   UNK N   1      30.680  12.674   2.220  0.00  0.00     0.064 C 
HETATM    7  C   UNK N   1      31.214  13.564   2.990  0.00  0.00     0.066 C 
HETATM    8  C   UNK N   1      31.451  15.122   4.393  0.00  0.00     0.066 C 
HETATM    9  C   UNK N   1      31.236  15.974   5.321  0.00  0.00     0.064 C 
HETATM   10  C   UNK N   1      29.986  16.215   5.945  0.00  0.00     0.066 A 
HETATM   11  C   UNK N   1      27.898  16.341   6.458  0.00  0.00     0.066 A 
HETATM   12  C   UNK N   1      26.596  16.106   6.428  0.00  0.00     0.064 A 
HETATM   13  N   UNK N   1      28.364  13.043   2.789  0.00  0.00    -0.248 N 
HETATM   14  N   UNK N   1      30.545  14.382   3.811  0.00  0.00    -0.248 N 
HETATM   15  N   UNK N   1      28.865  15.791   5.574  0.00  0.00    -0.248 N 
HETATM   16  C   UNK N   1      24.642  14.984   5.376  0.00  0.00    -0.023 A 
HETATM   17  C   UNK N   1      23.611  15.688   6.204  0.00  0.00     0.051 C 
HETATM   18  C   UNK N   1      27.425  11.452   1.376  0.00  0.00    -0.023 A 
HETATM   19  C   UNK N   1      26.405  10.578   0.749  0.00  0.00     0.051 C 
HETATM   20  C   UNK N   1      32.522  13.902   2.953  0.00  0.00    -0.025 C 
HETATM   21  C   UNK N   1      33.614  13.284   2.156  0.00  0.00     0.051 C 
HETATM   22  C   UNK N   1      28.605  17.193   7.386  0.00  0.00    -0.025 A 
HETATM   23  C   UNK N   1      28.038  17.980   8.517  0.00  0.00     0.051 C 
HETATM   24  C   UNK N   1      24.460  14.057   4.367  0.00  0.00    -0.008 A 
HETATM   25  C   UNK N   1      28.756  11.422   1.235  0.00  0.00    -0.008 A 
HETATM   26  C   UNK N   1      29.887  17.077   7.036  0.00  0.00    -0.021 A 
HETATM   27  C   UNK N   1      32.641  14.933   3.826  0.00  0.00    -0.021 C 
HETATM   28  N   UNK N   1      26.654  14.453   4.553  0.00  0.00    -0.248 N 
HETATM   29 Fe   UNK N   1      28.577  14.420   4.189  0.00  0.00     0.000 Fe
ENDROOT
BRANCH  26  30
HETATM   30  C   UNK N   1      31.113  17.628   7.579  0.00  0.00     0.052 C 
BRANCH  30  31
HETATM   31  C   UNK N   1      31.575  16.759   8.685  0.00  0.00     0.115 C 
BRANCH  31  32
HETATM   32  C   UNK N   1      32.855  17.422   8.893  0.00  0.00     0.139 C 
HETATM   33  O   UNK N   1      33.166  18.308   8.124  0.00  0.00    -0.650 OA
BRANCH  32  34
HETATM   34  O   UNK N   1      33.809  16.739   9.543  0.00  0.00    -0.776 OA
HETATM   35  H   UNK N   1      33.787  16.584  10.467  0.00  0.00     0.167 HD
ENDBRANCH  32  34
ENDBRANCH  31  32
ENDBRANCH  30  31
ENDBRANCH  26  30
BRANCH  27  36
HETATM   36  C   UNK N   1      33.814  15.685   4.178  0.00  0.00     0.052 C 
BRANCH  36  37
HETATM   37  C   UNK N   1      34.592  14.811   5.085  0.00  0.00     0.115 C 
BRANCH  37  38
HETATM   38  C   UNK N   1      34.687  15.716   6.241  0.00  0.00     0.139 C 
HETATM   39  O   UNK N   1      35.252  15.315   7.228  0.00  0.00    -0.650 OA
BRANCH  38  40
HETATM   40  O   UNK N   1      34.563  17.028   6.004  0.00  0.00    -0.776 OA
HETATM   41  H   UNK N   1      35.226  17.667   6.177  0.00  0.00     0.167 HD
ENDBRANCH  38  40
ENDBRANCH  37  38
ENDBRANCH  36  37
ENDBRANCH  27  36
BRANCH  24  42
HETATM   42  C   UNK N   1      23.191  13.477   3.827  0.00  0.00     0.076 C 
HETATM   43  C   UNK N   1      22.557  12.239   4.454  0.00  0.00     0.026 C 
BRANCH  42  44
HETATM   44  S   UNK N   1      22.189  14.402   2.654  0.00  0.00    -0.173 SA
HETATM   45  H   UNK N   1      22.737  15.420   1.938  0.00  0.00     0.102 HD
ENDBRANCH  42  44
ENDBRANCH  24  42
BRANCH  25  46
HETATM   46  C   UNK N   1      29.653  10.520   0.388  0.00  0.00     0.076 C 
HETATM   47  C   UNK N   1      29.540  10.800  -1.107  0.00  0.00     0.026 C 
BRANCH  46  48
HETATM   48  S   UNK N   1      29.307   8.761   0.615  0.00  0.00    -0.173 SA
HETATM   49  H   UNK N   1      29.998   7.779  -0.025  0.00  0.00     0.102 HD
ENDBRANCH  46  48
ENDBRANCH  25  46
TORSDOF 12
ENDMDL
MODEL 9
REMARK VINA RESULT:      -6.8      2.038      4.077
REMARK  12 active torsions:
REMARK  status: ('A' for Active; 'I' for Inactive)
REMARK    1  A    between atoms: C_24  and  C_25 
REMARK    2  A    between atoms: C_25  and  S_26 
REMARK    3  A    between atoms: C_27  and  C_28 
REMARK    4  A    between atoms: C_28  and  S_29 
REMARK    5  A    between atoms: C_30  and  C_31 
REMARK    6  A    between atoms: C_31  and  C_32 
REMARK    7  A    between atoms: C_32  and  C_37 
REMARK    8  A    between atoms: C_33  and  C_34 
REMARK    9  A    between atoms: C_34  and  C_35 
REMARK   10  A    between atoms: C_35  and  C_40 
REMARK   11  A    between atoms: C_37  and  O_36 
REMARK   12  A    between atoms: C_40  and  O_39 
ROOT
HETATM    1  C   UNK N   1      22.540  13.059   1.732  0.00  0.00     0.066 A 
HETATM    2  C   UNK N   1      24.203  11.796   1.196  0.00  0.00     0.067 A 
HETATM    3  C   UNK N   1      25.549  11.268   0.989  0.00  0.00     0.064 A 
HETATM    4  C   UNK N   1      26.638  11.867   1.418  0.00  0.00     0.066 A 
HETATM    5  C   UNK N   1      27.937  13.316   2.332  0.00  0.00     0.067 A 
HETATM    6  C   UNK N   1      28.495  14.486   2.905  0.00  0.00     0.064 C 
HETATM    7  C   UNK N   1      27.801  15.516   3.260  0.00  0.00     0.066 C 
HETATM    8  C   UNK N   1      26.181  16.830   3.586  0.00  0.00     0.066 C 
HETATM    9  C   UNK N   1      25.005  17.310   3.712  0.00  0.00     0.064 C 
HETATM   10  C   UNK N   1      23.798  16.620   3.435  0.00  0.00     0.066 A 
HETATM   11  C   UNK N   1      22.288  15.253   2.732  0.00  0.00     0.066 A 
HETATM   12  C   UNK N   1      21.745  14.168   2.204  0.00  0.00     0.064 A 
HETATM   13  N   UNK N   1      26.709  13.134   2.010  0.00  0.00    -0.248 N 
HETATM   14  N   UNK N   1      26.478  15.649   3.110  0.00  0.00    -0.248 N 
HETATM   15  N   UNK N   1      23.680  15.518   2.845  0.00  0.00    -0.248 N 
HETATM   16  C   UNK N   1      22.009  11.965   1.081  0.00  0.00    -0.023 A 
HETATM   17  C   UNK N   1      20.548  11.763   0.819  0.00  0.00     0.051 C 
HETATM   18  C   UNK N   1      27.984  11.302   1.357  0.00  0.00    -0.023 A 
HETATM   19  C   UNK N   1      28.318   9.944   0.862  0.00  0.00     0.051 C 
HETATM   20  C   UNK N   1      28.344  16.676   3.692  0.00  0.00    -0.025 C 
HETATM   21  C   UNK N   1      29.773  16.983   3.962  0.00  0.00     0.051 C 
HETATM   22  C   UNK N   1      21.591  16.383   3.303  0.00  0.00    -0.025 A 
HETATM   23  C   UNK N   1      20.121  16.575   3.438  0.00  0.00     0.051 C 
HETATM   24  C   UNK N   1      23.072  11.149   0.744  0.00  0.00    -0.008 A 
HETATM   25  C   UNK N   1      28.793  12.213   1.911  0.00  0.00    -0.008 A 
HETATM   26  C   UNK N   1      22.562  17.193   3.729  0.00  0.00    -0.021 A 
HETATM   27  C   UNK N   1      27.291  17.517   3.849  0.00  0.00    -0.021 C 
HETATM   28  N   UNK N   1      23.894  12.981   1.732  0.00  0.00    -0.248 N 
HETATM   29 Fe   UNK N   1      25.169  14.302   2.414  0.00  0.00     0.000 Fe
ENDROOT
BRANCH  26  30
HETATM   30  C   UNK N   1      22.553  18.464   4.426  0.00  0.00     0.052 C 
BRANCH  30  31
HETATM   31  C   UNK N   1      22.846  19.542   3.453  0.00  0.00     0.115 C 
BRANCH  31  32
HETATM   32  C   UNK N   1      21.460  19.859   3.136  0.00  0.00     0.139 C 
HETATM   33  O   UNK N   1      21.212  20.260   2.018  0.00  0.00    -0.650 OA
BRANCH  32  34
HETATM   34  O   UNK N   1      20.650  20.182   4.155  0.00  0.00    -0.776 OA
HETATM   35  H   UNK N   1      20.901  20.767   4.843  0.00  0.00     0.167 HD
ENDBRANCH  32  34
ENDBRANCH  31  32
ENDBRANCH  30  31
ENDBRANCH  26  30
BRANCH  27  36
HETATM   36  C   UNK N   1      27.289  18.887   4.283  0.00  0.00     0.052 C 
BRANCH  36  37
HETATM   37  C   UNK N   1      27.262  18.838   5.763  0.00  0.00     0.115 C 
BRANCH  37  38
HETATM   38  C   UNK N   1      26.619  20.137   6.017  0.00  0.00     0.139 C 
HETATM   39  O   UNK N   1      25.856  20.561   5.186  0.00  0.00    -0.650 OA
BRANCH  38  40
HETATM   40  O   UNK N   1      26.550  20.548   7.290  0.00  0.00    -0.776 OA
HETATM   41  H   UNK N   1      26.592  19.982   8.036  0.00  0.00     0.167 HD
ENDBRANCH  38  40
ENDBRANCH  37  38
ENDBRANCH  36  37
ENDBRANCH  27  36
BRANCH  24  42
HETATM   42  C   UNK N   1      23.072   9.828   0.043  0.00  0.00     0.076 C 
HETATM   43  C   UNK N   1      23.372   9.725  -1.450  0.00  0.00     0.026 C 
BRANCH  42  44
HETATM   44  S   UNK N   1      23.062   8.293   0.981  0.00  0.00    -0.173 SA
HETATM   45  H   UNK N   1      21.890   7.648   1.226  0.00  0.00     0.102 HD
ENDBRANCH  42  44
ENDBRANCH  24  42
BRANCH  25  46
HETATM   46  C   UNK N   1      30.294  12.181   2.196  0.00  0.00     0.076 C 
HETATM   47  C   UNK N   1      31.135  11.984   0.940  0.00  0.00     0.026 C 
BRANCH  46  48
HETATM   48  S   UNK N   1      30.768  10.873   3.349  0.00  0.00    -0.173 SA
HETATM   49  H   UNK N   1      30.709  11.017   4.701  0.00  0.00     0.102 HD
ENDBRANCH  46  48
ENDBRANCH  25  46
TORSDOF 12
ENDMDL
