MODEL 1
REMARK VINA RESULT:      -6.1      0.000      0.000
REMARK  5 active torsions:
REMARK  status: ('A' for Active; 'I' for Inactive)
REMARK    1  A    between atoms: C_2  and  N_1 
REMARK    2  A    between atoms: C_2  and  C_3 
REMARK    3  A    between atoms: C_2  and  C_15 
REMARK    4  A    between atoms: C_3  and  N_4 
REMARK    5  A    between atoms: C_15  and  O_16 
ROOT
HETATM    1  N   UNK N   1      35.830  13.519  13.610  0.00  0.00    -0.300 N 
HETATM    2  C   UNK N   1      36.304  14.183  14.730  0.00  0.00     0.329 A 
HETATM    3  O   UNK N   1      36.964  15.200  14.617  0.00  0.00    -0.246 OA
HETATM    4  N   UNK N   1      36.023  13.690  15.987  0.00  0.00    -0.275 N 
HETATM    5  C   UNK N   1      35.281  12.548  16.142  0.00  0.00     0.257 A 
HETATM    6  O   UNK N   1      35.032  12.124  17.257  0.00  0.00    -0.267 OA
HETATM    7  C   UNK N   1      34.821  11.885  15.009  0.00  0.00     0.033 A 
HETATM    8  C   UNK N   1      35.108  12.375  13.776  0.00  0.00     0.028 A 
HETATM    9  C   UNK N   1      34.554  11.538  12.688  0.00  0.00     0.058 A 
HETATM   10  C   UNK N   1      33.805  10.429  13.449  0.00  0.00     0.011 A 
HETATM   11  C   UNK N   1      34.013  10.650  14.961  0.00  0.00     0.046 A 
HETATM   12  H   UNK N   1      36.360  14.164  16.782  0.00  0.00     0.173 HD
ENDROOT
BRANCH   1  13
HETATM   13  C   UNK N   1      36.102  14.017  12.257  0.00  0.00     0.169 C 
BRANCH  13  14
HETATM   14  C   UNK N   1      35.232  15.230  11.900  0.00  0.00     0.192 C 
BRANCH  14  15
HETATM   15  N   UNK N   1      34.010  14.839  11.212  0.00  0.00    -0.416 N 
HETATM   16  H   UNK N   1      33.503  15.303  10.458  0.00  0.00     0.150 HD
HETATM   17  H   UNK N   1      33.596  13.964  11.533  0.00  0.00     0.150 HD
ENDBRANCH  14  15
BRANCH  14  18
HETATM   18  C   UNK N   1      35.996  16.167  11.022  0.00  0.00     0.164 C 
HETATM   19  O   UNK N   1      35.454  17.166  10.583  0.00  0.00    -0.648 OA
BRANCH  18  20
HETATM   20  O   UNK N   1      37.276  15.898  10.692  0.00  0.00    -0.775 OA
HETATM   21  H   UNK N   1      38.058  15.886  11.208  0.00  0.00     0.167 HD
ENDBRANCH  18  20
ENDBRANCH  14  18
ENDBRANCH  13  14
ENDBRANCH   1  13
TORSDOF 5
ENDMDL
MODEL 2
REMARK VINA RESULT:      -5.9      2.749      3.858
REMARK  5 active torsions:
REMARK  status: ('A' for Active; 'I' for Inactive)
REMARK    1  A    between atoms: C_2  and  N_1 
REMARK    2  A    between atoms: C_2  and  C_3 
REMARK    3  A    between atoms: C_2  and  C_15 
REMARK    4  A    between atoms: C_3  and  N_4 
REMARK    5  A    between atoms: C_15  and  O_16 
ROOT
HETATM    1  N   UNK N   1      35.183  12.802  17.191  0.00  0.00    -0.300 N 
HETATM    2  C   UNK N   1      35.334  13.529  18.361  0.00  0.00     0.329 A 
HETATM    3  O   UNK N   1      35.355  14.746  18.338  0.00  0.00    -0.246 OA
HETATM    4  N   UNK N   1      35.459  12.869  19.565  0.00  0.00    -0.275 N 
HETATM    5  C   UNK N   1      35.436  11.499  19.619  0.00  0.00     0.257 A 
HETATM    6  O   UNK N   1      35.540  10.925  20.688  0.00  0.00    -0.267 OA
HETATM    7  C   UNK N   1      35.296  10.781  18.436  0.00  0.00     0.033 A 
HETATM    8  C   UNK N   1      35.179  11.440  17.255  0.00  0.00     0.028 A 
HETATM    9  C   UNK N   1      35.053  10.523  16.100  0.00  0.00     0.058 A 
HETATM   10  C   UNK N   1      35.059   9.132  16.760  0.00  0.00     0.011 A 
HETATM   11  C   UNK N   1      35.248   9.314  18.279  0.00  0.00     0.046 A 
HETATM   12  H   UNK N   1      35.565  13.387  20.396  0.00  0.00     0.173 HD
ENDROOT
BRANCH   1  13
HETATM   13  C   UNK N   1      35.040  13.470  15.892  0.00  0.00     0.169 C 
BRANCH  13  14
HETATM   14  C   UNK N   1      36.369  13.538  15.127  0.00  0.00     0.192 C 
BRANCH  14  15
HETATM   15  N   UNK N   1      37.188  14.662  15.557  0.00  0.00    -0.416 N 
HETATM   16  H   UNK N   1      36.913  15.593  15.869  0.00  0.00     0.150 HD
HETATM   17  H   UNK N   1      38.193  14.492  15.543  0.00  0.00     0.150 HD
ENDBRANCH  14  15
BRANCH  14  18
HETATM   18  C   UNK N   1      36.108  13.668  13.661  0.00  0.00     0.164 C 
HETATM   19  O   UNK N   1      34.961  13.699  13.250  0.00  0.00    -0.648 OA
BRANCH  18  20
HETATM   20  O   UNK N   1      37.136  13.723  12.789  0.00  0.00    -0.775 OA
HETATM   21  H   UNK N   1      37.150  13.822  11.858  0.00  0.00     0.167 HD
ENDBRANCH  18  20
ENDBRANCH  14  18
ENDBRANCH  13  14
ENDBRANCH   1  13
TORSDOF 5
ENDMDL
MODEL 3
REMARK VINA RESULT:      -5.8      8.151     10.260
REMARK  5 active torsions:
REMARK  status: ('A' for Active; 'I' for Inactive)
REMARK    1  A    between atoms: C_2  and  N_1 
REMARK    2  A    between atoms: C_2  and  C_3 
REMARK    3  A    between atoms: C_2  and  C_15 
REMARK    4  A    between atoms: C_3  and  N_4 
REMARK    5  A    between atoms: C_15  and  O_16 
ROOT
HETATM    1  N   UNK N   1      30.606  17.473   7.016  0.00  0.00    -0.300 N 
HETATM    2  C   UNK N   1      31.400  17.723   8.124  0.00  0.00     0.329 A 
HETATM    3  O   UNK N   1      30.901  17.881   9.223  0.00  0.00    -0.246 OA
HETATM    4  N   UNK N   1      32.770  17.791   7.983  0.00  0.00    -0.275 N 
HETATM    5  C   UNK N   1      33.357  17.615   6.756  0.00  0.00     0.257 A 
HETATM    6  O   UNK N   1      34.569  17.670   6.642  0.00  0.00    -0.267 OA
HETATM    7  C   UNK N   1      32.548  17.376   5.650  0.00  0.00     0.033 A 
HETATM    8  C   UNK N   1      31.200  17.317   5.799  0.00  0.00     0.028 A 
HETATM    9  C   UNK N   1      30.496  17.070   4.521  0.00  0.00     0.058 A 
HETATM   10  C   UNK N   1      31.649  16.929   3.511  0.00  0.00     0.011 A 
HETATM   11  C   UNK N   1      32.979  17.161   4.255  0.00  0.00     0.046 A 
HETATM   12  H   UNK N   1      33.332  17.968   8.771  0.00  0.00     0.173 HD
ENDROOT
BRANCH   1  13
HETATM   13  C   UNK N   1      29.145  17.387   7.129  0.00  0.00     0.169 C 
BRANCH  13  14
HETATM   14  C   UNK N   1      28.523  18.702   7.619  0.00  0.00     0.192 C 
BRANCH  14  15
HETATM   15  N   UNK N   1      27.764  18.521   8.847  0.00  0.00    -0.416 N 
HETATM   16  H   UNK N   1      28.082  18.456   9.814  0.00  0.00     0.150 HD
HETATM   17  H   UNK N   1      26.754  18.446   8.721  0.00  0.00     0.150 HD
ENDBRANCH  14  15
BRANCH  14  18
HETATM   18  C   UNK N   1      27.615  19.258   6.571  0.00  0.00     0.164 C 
HETATM   19  O   UNK N   1      27.782  18.958   5.401  0.00  0.00    -0.648 OA
BRANCH  18  20
HETATM   20  O   UNK N   1      26.628  20.112   6.910  0.00  0.00    -0.775 OA
HETATM   21  H   UNK N   1      26.207  20.794   6.424  0.00  0.00     0.167 HD
ENDBRANCH  18  20
ENDBRANCH  14  18
ENDBRANCH  13  14
ENDBRANCH   1  13
TORSDOF 5
ENDMDL
MODEL 4
REMARK VINA RESULT:      -5.8      5.845      9.114
REMARK  5 active torsions:
REMARK  status: ('A' for Active; 'I' for Inactive)
REMARK    1  A    between atoms: C_2  and  N_1 
REMARK    2  A    between atoms: C_2  and  C_3 
REMARK    3  A    between atoms: C_2  and  C_15 
REMARK    4  A    between atoms: C_3  and  N_4 
REMARK    5  A    between atoms: C_15  and  O_16 
ROOT
HETATM    1  N   UNK N   1      32.509  17.361   7.183  0.00  0.00    -0.300 N 
HETATM    2  C   UNK N   1      33.578  17.613   6.337  0.00  0.00     0.329 A 
HETATM    3  O   UNK N   1      34.685  17.845   6.788  0.00  0.00    -0.246 OA
HETATM    4  N   UNK N   1      33.389  17.598   4.972  0.00  0.00    -0.275 N 
HETATM    5  C   UNK N   1      32.153  17.337   4.439  0.00  0.00     0.257 A 
HETATM    6  O   UNK N   1      31.997  17.319   3.230  0.00  0.00    -0.267 OA
HETATM    7  C   UNK N   1      31.086  17.097   5.298  0.00  0.00     0.033 A 
HETATM    8  C   UNK N   1      31.281  17.120   6.641  0.00  0.00     0.028 A 
HETATM    9  C   UNK N   1      30.039  16.859   7.402  0.00  0.00     0.058 A 
HETATM   10  C   UNK N   1      28.999  16.611   6.294  0.00  0.00     0.011 A 
HETATM   11  C   UNK N   1      29.688  16.799   4.928  0.00  0.00     0.046 A 
HETATM   12  H   UNK N   1      34.150  17.776   4.373  0.00  0.00     0.173 HD
ENDROOT
BRANCH   1  13
HETATM   13  C   UNK N   1      32.673  17.362   8.641  0.00  0.00     0.169 C 
BRANCH  13  14
HETATM   14  C   UNK N   1      33.323  16.068   9.151  0.00  0.00     0.192 C 
BRANCH  14  15
HETATM   15  N   UNK N   1      32.399  15.272   9.947  0.00  0.00    -0.416 N 
HETATM   16  H   UNK N   1      31.952  14.380   9.737  0.00  0.00     0.150 HD
HETATM   17  H   UNK N   1      32.162  15.670  10.856  0.00  0.00     0.150 HD
ENDBRANCH  14  15
BRANCH  14  18
HETATM   18  C   UNK N   1      34.518  16.391   9.987  0.00  0.00     0.164 C 
HETATM   19  O   UNK N   1      34.817  15.671  10.924  0.00  0.00    -0.648 OA
BRANCH  18  20
HETATM   20  O   UNK N   1      35.252  17.493   9.727  0.00  0.00    -0.775 OA
HETATM   21  H   UNK N   1      35.113  18.393   9.945  0.00  0.00     0.167 HD
ENDBRANCH  18  20
ENDBRANCH  14  18
ENDBRANCH  13  14
ENDBRANCH   1  13
TORSDOF 5
ENDMDL
MODEL 5
REMARK VINA RESULT:      -5.7     13.756     14.825
REMARK  5 active torsions:
REMARK  status: ('A' for Active; 'I' for Inactive)
REMARK    1  A    between atoms: C_2  and  N_1 
REMARK    2  A    between atoms: C_2  and  C_3 
REMARK    3  A    between atoms: C_2  and  C_15 
REMARK    4  A    between atoms: C_3  and  N_4 
REMARK    5  A    between atoms: C_15  and  O_16 
ROOT
HETATM    1  N   UNK N   1      21.195  14.242   8.633  0.00  0.00    -0.300 N 
HETATM    2  C   UNK N   1      20.486  13.786   9.733  0.00  0.00     0.329 A 
HETATM    3  O   UNK N   1      19.328  14.119   9.907  0.00  0.00    -0.246 OA
HETATM    4  N   UNK N   1      21.095  12.944  10.639  0.00  0.00    -0.275 N 
HETATM    5  C   UNK N   1      22.398  12.553  10.465  0.00  0.00     0.257 A 
HETATM    6  O   UNK N   1      22.926  11.802  11.267  0.00  0.00    -0.267 OA
HETATM    7  C   UNK N   1      23.102  13.026   9.363  0.00  0.00     0.033 A 
HETATM    8  C   UNK N   1      22.495  13.859   8.480  0.00  0.00     0.028 A 
HETATM    9  C   UNK N   1      23.393  14.276   7.380  0.00  0.00     0.058 A 
HETATM   10  C   UNK N   1      24.695  13.512   7.686  0.00  0.00     0.011 A 
HETATM   11  C   UNK N   1      24.500  12.726   8.998  0.00  0.00     0.046 A 
HETATM   12  H   UNK N   1      20.589  12.621  11.419  0.00  0.00     0.173 HD
ENDROOT
BRANCH   1  13
HETATM   13  C   UNK N   1      20.578  15.133   7.644  0.00  0.00     0.169 C 
BRANCH  13  14
HETATM   14  C   UNK N   1      20.549  16.593   8.118  0.00  0.00     0.192 C 
BRANCH  14  15
HETATM   15  N   UNK N   1      19.236  16.977   8.616  0.00  0.00    -0.416 N 
HETATM   16  H   UNK N   1      18.973  17.699   9.286  0.00  0.00     0.150 HD
HETATM   17  H   UNK N   1      18.458  16.439   8.235  0.00  0.00     0.150 HD
ENDBRANCH  14  15
BRANCH  14  18
HETATM   18  C   UNK N   1      20.919  17.503   6.993  0.00  0.00     0.164 C 
HETATM   19  O   UNK N   1      20.911  18.711   7.161  0.00  0.00    -0.648 OA
BRANCH  18  20
HETATM   20  O   UNK N   1      21.236  16.996   5.783  0.00  0.00    -0.775 OA
HETATM   21  H   UNK N   1      20.781  16.394   5.228  0.00  0.00     0.167 HD
ENDBRANCH  18  20
ENDBRANCH  14  18
ENDBRANCH  13  14
ENDBRANCH   1  13
TORSDOF 5
ENDMDL
MODEL 6
REMARK VINA RESULT:      -5.7      5.919      8.526
REMARK  5 active torsions:
REMARK  status: ('A' for Active; 'I' for Inactive)
REMARK    1  A    between atoms: C_2  and  N_1 
REMARK    2  A    between atoms: C_2  and  C_3 
REMARK    3  A    between atoms: C_2  and  C_15 
REMARK    4  A    between atoms: C_3  and  N_4 
REMARK    5  A    between atoms: C_15  and  O_16 
ROOT
HETATM    1  N   UNK N   1      33.456  15.683   6.960  0.00  0.00    -0.300 N 
HETATM    2  C   UNK N   1      32.989  14.487   7.483  0.00  0.00     0.329 A 
HETATM    3  O   UNK N   1      33.546  13.965   8.431  0.00  0.00    -0.246 OA
HETATM    4  N   UNK N   1      31.883  13.882   6.925  0.00  0.00    -0.275 N 
HETATM    5  C   UNK N   1      31.238  14.450   5.857  0.00  0.00     0.257 A 
HETATM    6  O   UNK N   1      30.256  13.912   5.376  0.00  0.00    -0.267 OA
HETATM    7  C   UNK N   1      31.722  15.645   5.335  0.00  0.00     0.033 A 
HETATM    8  C   UNK N   1      32.816  16.230   5.888  0.00  0.00     0.028 A 
HETATM    9  C   UNK N   1      33.201  17.482   5.200  0.00  0.00     0.058 A 
HETATM   10  C   UNK N   1      32.115  17.632   4.118  0.00  0.00     0.011 A 
HETATM   11  C   UNK N   1      31.176  16.412   4.199  0.00  0.00     0.046 A 
HETATM   12  H   UNK N   1      31.553  13.033   7.298  0.00  0.00     0.173 HD
ENDROOT
BRANCH   1  13
HETATM   13  C   UNK N   1      34.626  16.360   7.531  0.00  0.00     0.169 C 
BRANCH  13  14
HETATM   14  C   UNK N   1      34.241  17.337   8.650  0.00  0.00     0.192 C 
BRANCH  14  15
HETATM   15  N   UNK N   1      34.763  18.674   8.408  0.00  0.00    -0.416 N 
HETATM   16  H   UNK N   1      35.490  19.195   8.899  0.00  0.00     0.150 HD
HETATM   17  H   UNK N   1      34.335  19.168   7.625  0.00  0.00     0.150 HD
ENDBRANCH  14  15
BRANCH  14  18
HETATM   18  C   UNK N   1      34.767  16.847   9.960  0.00  0.00     0.164 C 
HETATM   19  O   UNK N   1      35.771  17.349  10.437  0.00  0.00    -0.648 OA
BRANCH  18  20
HETATM   20  O   UNK N   1      34.153  15.834  10.604  0.00  0.00    -0.775 OA
HETATM   21  H   UNK N   1      34.344  15.416  11.421  0.00  0.00     0.167 HD
ENDBRANCH  18  20
ENDBRANCH  14  18
ENDBRANCH  13  14
ENDBRANCH   1  13
TORSDOF 5
ENDMDL
MODEL 7
REMARK VINA RESULT:      -5.6      7.420      9.597
REMARK  5 active torsions:
REMARK  status: ('A' for Active; 'I' for Inactive)
REMARK    1  A    between atoms: C_2  and  N_1 
REMARK    2  A    between atoms: C_2  and  C_3 
REMARK    3  A    between atoms: C_2  and  C_15 
REMARK    4  A    between atoms: C_3  and  N_4 
REMARK    5  A    between atoms: C_15  and  O_16 
ROOT
HETATM    1  N   UNK N   1      31.201  16.945   6.940  0.00  0.00    -0.300 N 
HETATM    2  C   UNK N   1      30.925  16.666   5.611  0.00  0.00     0.329 A 
HETATM    3  O   UNK N   1      31.754  16.124   4.905  0.00  0.00    -0.246 OA
HETATM    4  N   UNK N   1      29.697  17.004   5.083  0.00  0.00    -0.275 N 
HETATM    5  C   UNK N   1      28.745  17.615   5.857  0.00  0.00     0.257 A 
HETATM    6  O   UNK N   1      27.660  17.904   5.383  0.00  0.00    -0.267 OA
HETATM    7  C   UNK N   1      29.039  17.899   7.187  0.00  0.00     0.033 A 
HETATM    8  C   UNK N   1      30.253  17.568   7.697  0.00  0.00     0.028 A 
HETATM    9  C   UNK N   1      30.399  17.955   9.117  0.00  0.00     0.058 A 
HETATM   10  C   UNK N   1      29.025  18.562   9.455  0.00  0.00     0.011 A 
HETATM   11  C   UNK N   1      28.159  18.546   8.180  0.00  0.00     0.046 A 
HETATM   12  H   UNK N   1      29.503  16.805   4.138  0.00  0.00     0.173 HD
ENDROOT
BRANCH   1  13
HETATM   13  C   UNK N   1      32.494  16.594   7.540  0.00  0.00     0.169 C 
BRANCH  13  14
HETATM   14  C   UNK N   1      33.600  17.586   7.154  0.00  0.00     0.192 C 
BRANCH  14  15
HETATM   15  N   UNK N   1      34.580  16.987   6.261  0.00  0.00    -0.416 N 
HETATM   16  H   UNK N   1      35.487  17.336   5.951  0.00  0.00     0.150 HD
HETATM   17  H   UNK N   1      34.320  16.075   5.886  0.00  0.00     0.150 HD
ENDBRANCH  14  15
BRANCH  14  18
HETATM   18  C   UNK N   1      34.302  18.069   8.381  0.00  0.00     0.164 C 
HETATM   19  O   UNK N   1      35.019  19.054   8.321  0.00  0.00    -0.648 OA
BRANCH  18  20
HETATM   20  O   UNK N   1      34.170  17.406   9.548  0.00  0.00    -0.775 OA
HETATM   21  H   UNK N   1      33.511  17.451  10.212  0.00  0.00     0.167 HD
ENDBRANCH  18  20
ENDBRANCH  14  18
ENDBRANCH  13  14
ENDBRANCH   1  13
TORSDOF 5
ENDMDL
MODEL 8
REMARK VINA RESULT:      -5.6      1.812      2.829
REMARK  5 active torsions:
REMARK  status: ('A' for Active; 'I' for Inactive)
REMARK    1  A    between atoms: C_2  and  N_1 
REMARK    2  A    between atoms: C_2  and  C_3 
REMARK    3  A    between atoms: C_2  and  C_15 
REMARK    4  A    between atoms: C_3  and  N_4 
REMARK    5  A    between atoms: C_15  and  O_16 
ROOT
HETATM    1  N   UNK N   1      35.337  12.785  12.446  0.00  0.00    -0.300 N 
HETATM    2  C   UNK N   1      34.625  11.641  12.124  0.00  0.00     0.329 A 
HETATM    3  O   UNK N   1      34.292  11.419  10.974  0.00  0.00    -0.246 OA
HETATM    4  N   UNK N   1      34.291  10.741  13.114  0.00  0.00    -0.275 N 
HETATM    5  C   UNK N   1      34.654  10.966  14.416  0.00  0.00     0.257 A 
HETATM    6  O   UNK N   1      34.360  10.162  15.283  0.00  0.00    -0.267 OA
HETATM    7  C   UNK N   1      35.359  12.124  14.729  0.00  0.00     0.033 A 
HETATM    8  C   UNK N   1      35.678  13.006  13.747  0.00  0.00     0.028 A 
HETATM    9  C   UNK N   1      36.413  14.185  14.258  0.00  0.00     0.058 A 
HETATM   10  C   UNK N   1      36.558  13.880  15.761  0.00  0.00     0.011 A 
HETATM   11  C   UNK N   1      35.840  12.548  16.058  0.00  0.00     0.046 A 
HETATM   12  H   UNK N   1      33.785   9.929  12.882  0.00  0.00     0.173 HD
ENDROOT
BRANCH   1  13
HETATM   13  C   UNK N   1      35.717  13.762  11.419  0.00  0.00     0.169 C 
BRANCH  13  14
HETATM   14  C   UNK N   1      34.879  15.045  11.502  0.00  0.00     0.192 C 
BRANCH  14  15
HETATM   15  N   UNK N   1      33.625  14.925  10.773  0.00  0.00    -0.416 N 
HETATM   16  H   UNK N   1      33.398  15.174   9.810  0.00  0.00     0.150 HD
HETATM   17  H   UNK N   1      32.852  14.529  11.309  0.00  0.00     0.150 HD
ENDBRANCH  14  15
BRANCH  14  18
HETATM   18  C   UNK N   1      35.650  16.195  10.942  0.00  0.00     0.164 C 
HETATM   19  O   UNK N   1      35.059  17.181  10.534  0.00  0.00    -0.648 OA
BRANCH  18  20
HETATM   20  O   UNK N   1      36.995  16.137  10.858  0.00  0.00    -0.775 OA
HETATM   21  H   UNK N   1      37.566  15.464  10.543  0.00  0.00     0.167 HD
ENDBRANCH  18  20
ENDBRANCH  14  18
ENDBRANCH  13  14
ENDBRANCH   1  13
TORSDOF 5
ENDMDL
MODEL 9
REMARK VINA RESULT:      -5.6      5.831      9.135
REMARK  5 active torsions:
REMARK  status: ('A' for Active; 'I' for Inactive)
REMARK    1  A    between atoms: C_2  and  N_1 
REMARK    2  A    between atoms: C_2  and  C_3 
REMARK    3  A    between atoms: C_2  and  C_15 
REMARK    4  A    between atoms: C_3  and  N_4 
REMARK    5  A    between atoms: C_15  and  O_16 
ROOT
HETATM    1  N   UNK N   1      31.715  17.234   7.672  0.00  0.00    -0.300 N 
HETATM    2  C   UNK N   1      30.384  17.083   8.028  0.00  0.00     0.329 A 
HETATM    3  O   UNK N   1      30.057  17.031   9.200  0.00  0.00    -0.246 OA
HETATM    4  N   UNK N   1      29.419  16.995   7.048  0.00  0.00    -0.275 N 
HETATM    5  C   UNK N   1      29.761  17.052   5.722  0.00  0.00     0.257 A 
HETATM    6  O   UNK N   1      28.900  16.980   4.862  0.00  0.00    -0.267 OA
HETATM    7  C   UNK N   1      31.101  17.192   5.377  0.00  0.00     0.033 A 
HETATM    8  C   UNK N   1      32.045  17.273   6.350  0.00  0.00     0.028 A 
HETATM    9  C   UNK N   1      33.415  17.404   5.805  0.00  0.00     0.058 A 
HETATM   10  C   UNK N   1      33.181  17.444   4.284  0.00  0.00     0.011 A 
HETATM   11  C   UNK N   1      31.672  17.275   4.018  0.00  0.00     0.046 A 
HETATM   12  H   UNK N   1      28.474  16.888   7.303  0.00  0.00     0.173 HD
ENDROOT
BRANCH   1  13
HETATM   13  C   UNK N   1      32.769  17.339   8.687  0.00  0.00     0.169 C 
BRANCH  13  14
HETATM   14  C   UNK N   1      33.339  15.967   9.074  0.00  0.00     0.192 C 
BRANCH  14  15
HETATM   15  N   UNK N   1      32.478  15.265  10.015  0.00  0.00    -0.416 N 
HETATM   16  H   UNK N   1      32.705  14.805  10.896  0.00  0.00     0.150 HD
HETATM   17  H   UNK N   1      31.493  15.228   9.751  0.00  0.00     0.150 HD
ENDBRANCH  14  15
BRANCH  14  18
HETATM   18  C   UNK N   1      34.690  16.131   9.692  0.00  0.00     0.164 C 
HETATM   19  O   UNK N   1      35.600  15.386   9.369  0.00  0.00    -0.648 OA
BRANCH  18  20
HETATM   20  O   UNK N   1      34.900  17.081  10.626  0.00  0.00    -0.775 OA
HETATM   21  H   UNK N   1      35.599  17.202  11.238  0.00  0.00     0.167 HD
ENDBRANCH  18  20
ENDBRANCH  14  18
ENDBRANCH  13  14
ENDBRANCH   1  13
TORSDOF 5
ENDMDL
