MODEL 1
REMARK VINA RESULT:      -1.3      0.000      0.000
REMARK  12 active torsions:
REMARK  status: ('A' for Active; 'I' for Inactive)
REMARK    1  A    between atoms: C_20  and  C_6 
REMARK    2  A    between atoms: C_9  and  C_7 
REMARK    3  A    between atoms: C_21  and  C_7 
REMARK    4  A    between atoms: C_10  and  C_8 
REMARK    5  A    between atoms: C_22  and  C_8 
REMARK    6  A    between atoms: C_32  and  C_9 
REMARK    7  A    between atoms: C_33  and  C_10 
REMARK    8  A    between atoms: C_23  and  C_15 
REMARK    9  A    between atoms: O_42  and  C_15 
REMARK   10  A    between atoms: O_44  and  C_32 
REMARK   11  A    between atoms: O_46  and  C_33 
REMARK   12  A    between atoms: Fe_47  and  Fe_47 
ROOT
HETATM    1 Fe   UNK N   1      38.596  29.706  19.362  0.00  0.00     0.000 Fe
ENDROOT
TORSDOF 12
ENDMDL
MODEL 2
REMARK VINA RESULT:      -1.2     10.767     10.767
REMARK  12 active torsions:
REMARK  status: ('A' for Active; 'I' for Inactive)
REMARK    1  A    between atoms: C_20  and  C_6 
REMARK    2  A    between atoms: C_9  and  C_7 
REMARK    3  A    between atoms: C_21  and  C_7 
REMARK    4  A    between atoms: C_10  and  C_8 
REMARK    5  A    between atoms: C_22  and  C_8 
REMARK    6  A    between atoms: C_32  and  C_9 
REMARK    7  A    between atoms: C_33  and  C_10 
REMARK    8  A    between atoms: C_23  and  C_15 
REMARK    9  A    between atoms: O_42  and  C_15 
REMARK   10  A    between atoms: O_44  and  C_32 
REMARK   11  A    between atoms: O_46  and  C_33 
REMARK   12  A    between atoms: Fe_47  and  Fe_47 
ROOT
HETATM    1 Fe   UNK N   1      39.964  21.073  13.075  0.00  0.00     0.000 Fe
ENDROOT
TORSDOF 12
ENDMDL
MODEL 3
REMARK VINA RESULT:      -1.2     11.042     11.042
REMARK  12 active torsions:
REMARK  status: ('A' for Active; 'I' for Inactive)
REMARK    1  A    between atoms: C_20  and  C_6 
REMARK    2  A    between atoms: C_9  and  C_7 
REMARK    3  A    between atoms: C_21  and  C_7 
REMARK    4  A    between atoms: C_10  and  C_8 
REMARK    5  A    between atoms: C_22  and  C_8 
REMARK    6  A    between atoms: C_32  and  C_9 
REMARK    7  A    between atoms: C_33  and  C_10 
REMARK    8  A    between atoms: C_23  and  C_15 
REMARK    9  A    between atoms: O_42  and  C_15 
REMARK   10  A    between atoms: O_44  and  C_32 
REMARK   11  A    between atoms: O_46  and  C_33 
REMARK   12  A    between atoms: Fe_47  and  Fe_47 
ROOT
HETATM    1 Fe   UNK N   1      35.636  21.382  12.738  0.00  0.00     0.000 Fe
ENDROOT
TORSDOF 12
ENDMDL
MODEL 4
REMARK VINA RESULT:      -1.2     31.889     31.889
REMARK  12 active torsions:
REMARK  status: ('A' for Active; 'I' for Inactive)
REMARK    1  A    between atoms: C_20  and  C_6 
REMARK    2  A    between atoms: C_9  and  C_7 
REMARK    3  A    between atoms: C_21  and  C_7 
REMARK    4  A    between atoms: C_10  and  C_8 
REMARK    5  A    between atoms: C_22  and  C_8 
REMARK    6  A    between atoms: C_32  and  C_9 
REMARK    7  A    between atoms: C_33  and  C_10 
REMARK    8  A    between atoms: C_23  and  C_15 
REMARK    9  A    between atoms: O_42  and  C_15 
REMARK   10  A    between atoms: O_44  and  C_32 
REMARK   11  A    between atoms: O_46  and  C_33 
REMARK   12  A    between atoms: Fe_47  and  Fe_47 
ROOT
HETATM    1 Fe   UNK N   1      21.453  21.778  -6.332  0.00  0.00     0.000 Fe
ENDROOT
TORSDOF 12
ENDMDL
MODEL 5
REMARK VINA RESULT:      -1.1     15.613     15.613
REMARK  12 active torsions:
REMARK  status: ('A' for Active; 'I' for Inactive)
REMARK    1  A    between atoms: C_20  and  C_6 
REMARK    2  A    between atoms: C_9  and  C_7 
REMARK    3  A    between atoms: C_21  and  C_7 
REMARK    4  A    between atoms: C_10  and  C_8 
REMARK    5  A    between atoms: C_22  and  C_8 
REMARK    6  A    between atoms: C_32  and  C_9 
REMARK    7  A    between atoms: C_33  and  C_10 
REMARK    8  A    between atoms: C_23  and  C_15 
REMARK    9  A    between atoms: O_42  and  C_15 
REMARK   10  A    between atoms: O_44  and  C_32 
REMARK   11  A    between atoms: O_46  and  C_33 
REMARK   12  A    between atoms: Fe_47  and  Fe_47 
ROOT
HETATM    1 Fe   UNK N   1      43.320  25.304   5.147  0.00  0.00     0.000 Fe
ENDROOT
TORSDOF 12
ENDMDL
MODEL 6
REMARK VINA RESULT:      -1.1     10.189     10.189
REMARK  12 active torsions:
REMARK  status: ('A' for Active; 'I' for Inactive)
REMARK    1  A    between atoms: C_20  and  C_6 
REMARK    2  A    between atoms: C_9  and  C_7 
REMARK    3  A    between atoms: C_21  and  C_7 
REMARK    4  A    between atoms: C_10  and  C_8 
REMARK    5  A    between atoms: C_22  and  C_8 
REMARK    6  A    between atoms: C_32  and  C_9 
REMARK    7  A    between atoms: C_33  and  C_10 
REMARK    8  A    between atoms: C_23  and  C_15 
REMARK    9  A    between atoms: O_42  and  C_15 
REMARK   10  A    between atoms: O_44  and  C_32 
REMARK   11  A    between atoms: O_46  and  C_33 
REMARK   12  A    between atoms: Fe_47  and  Fe_47 
ROOT
HETATM    1 Fe   UNK N   1      45.119  25.582  12.711  0.00  0.00     0.000 Fe
ENDROOT
TORSDOF 12
ENDMDL
MODEL 7
REMARK VINA RESULT:      -1.0     33.002     33.002
REMARK  12 active torsions:
REMARK  status: ('A' for Active; 'I' for Inactive)
REMARK    1  A    between atoms: C_20  and  C_6 
REMARK    2  A    between atoms: C_9  and  C_7 
REMARK    3  A    between atoms: C_21  and  C_7 
REMARK    4  A    between atoms: C_10  and  C_8 
REMARK    5  A    between atoms: C_22  and  C_8 
REMARK    6  A    between atoms: C_32  and  C_9 
REMARK    7  A    between atoms: C_33  and  C_10 
REMARK    8  A    between atoms: C_23  and  C_15 
REMARK    9  A    between atoms: O_42  and  C_15 
REMARK   10  A    between atoms: O_44  and  C_32 
REMARK   11  A    between atoms: O_46  and  C_33 
REMARK   12  A    between atoms: Fe_47  and  Fe_47 
ROOT
HETATM    1 Fe   UNK N   1      19.921  20.068  -6.084  0.00  0.00     0.000 Fe
ENDROOT
TORSDOF 12
ENDMDL
MODEL 8
REMARK VINA RESULT:      -1.0      9.040      9.040
REMARK  12 active torsions:
REMARK  status: ('A' for Active; 'I' for Inactive)
REMARK    1  A    between atoms: C_20  and  C_6 
REMARK    2  A    between atoms: C_9  and  C_7 
REMARK    3  A    between atoms: C_21  and  C_7 
REMARK    4  A    between atoms: C_10  and  C_8 
REMARK    5  A    between atoms: C_22  and  C_8 
REMARK    6  A    between atoms: C_32  and  C_9 
REMARK    7  A    between atoms: C_33  and  C_10 
REMARK    8  A    between atoms: C_23  and  C_15 
REMARK    9  A    between atoms: O_42  and  C_15 
REMARK   10  A    between atoms: O_44  and  C_32 
REMARK   11  A    between atoms: O_46  and  C_33 
REMARK   12  A    between atoms: Fe_47  and  Fe_47 
ROOT
HETATM    1 Fe   UNK N   1      41.691  21.639  22.017  0.00  0.00     0.000 Fe
ENDROOT
TORSDOF 12
ENDMDL
MODEL 9
REMARK VINA RESULT:      -1.0      4.994      4.994
REMARK  12 active torsions:
REMARK  status: ('A' for Active; 'I' for Inactive)
REMARK    1  A    between atoms: C_20  and  C_6 
REMARK    2  A    between atoms: C_9  and  C_7 
REMARK    3  A    between atoms: C_21  and  C_7 
REMARK    4  A    between atoms: C_10  and  C_8 
REMARK    5  A    between atoms: C_22  and  C_8 
REMARK    6  A    between atoms: C_32  and  C_9 
REMARK    7  A    between atoms: C_33  and  C_10 
REMARK    8  A    between atoms: C_23  and  C_15 
REMARK    9  A    between atoms: O_42  and  C_15 
REMARK   10  A    between atoms: O_44  and  C_32 
REMARK   11  A    between atoms: O_46  and  C_33 
REMARK   12  A    between atoms: Fe_47  and  Fe_47 
ROOT
HETATM    1 Fe   UNK N   1      42.899  29.357  16.852  0.00  0.00     0.000 Fe
ENDROOT
TORSDOF 12
ENDMDL
