REMARK  4 active torsions:
REMARK  status: ('A' for Active; 'I' for Inactive)
REMARK    1  A    between atoms: N_1  and  C_2 
REMARK    2  A    between atoms: C_14  and  N_13 
REMARK    3  A    between atoms: C_17  and  O_18 
REMARK    4  A    between atoms: C_19  and  O_20 
ROOT
HETATM    1  C   UNK N   1       3.992   2.368   0.109  0.00  0.00     0.131 A 
HETATM    2  N   UNK N   1       5.172   1.713  -0.112  0.00  0.00    -0.337 N 
ATOM      3  HN  UNK N   1       6.050   2.230  -0.065  1.00  0.00     0.168 HD
HETATM    4  C   UNK N   1       5.192   0.369  -0.395  0.00  0.00     0.183 A 
HETATM    5  N   UNK N   1       4.025  -0.342  -0.472  0.00  0.00    -0.336 N 
ATOM      6  HN  UNK N   1       4.029  -1.337  -0.693  1.00  0.00     0.168 HD
HETATM    7  C   UNK N   1       2.863   0.318  -0.244  0.00  0.00     0.141 A 
HETATM    8  C   UNK N   1       2.820   1.632   0.044  0.00  0.00     0.122 A 
HETATM    9  N   UNK N   1       1.541   2.017   0.223  0.00  0.00    -0.346 N 
ATOM     10  HN  UNK N   1       1.195   2.949   0.451  1.00  0.00     0.167 HD
HETATM   11  C   UNK N   1       0.816   0.878   0.031  0.00  0.00     0.186 A 
HETATM   12  N   UNK N   1       1.621  -0.180  -0.261  0.00  0.00    -0.316 N 
ENDROOT
BRANCH  12  13
HETATM   13  C   UNK N   1       1.231  -1.551  -0.603  0.00  0.00     0.146 C 
HETATM   14  C   UNK N   1       1.985  -2.596   0.141  0.00  0.00    -0.000 C 
HETATM   15  C   UNK N   1       1.217  -3.644   0.390  0.00  0.00     0.005 C 
HETATM   16  C   UNK N   1      -0.172  -3.425  -0.101  0.00  0.00     0.171 C 
HETATM   17  C   UNK N   1      -0.200  -1.904  -0.209  0.00  0.00     0.177 C 
BRANCH  16  18
HETATM   18  O   UNK N   1      -1.105  -3.859   0.838  0.00  0.00    -0.389 OA
HETATM   19  H   UNK N   1      -1.691  -3.448   1.492  0.00  0.00     0.210 HD
ENDBRANCH  16  18
BRANCH  17  20
HETATM   20  O   UNK N   1      -1.141  -1.456  -1.135  0.00  0.00    -0.390 OA
HETATM   21  H   UNK N   1      -1.198  -0.733  -1.779  0.00  0.00     0.210 HD
ENDBRANCH  17  20
ENDBRANCH  12  13
BRANCH   1  22
HETATM   22  N   UNK N   1       3.979   3.750   0.386  0.00  0.00    -0.383 N 
HETATM   23  H   UNK N   1       4.811   4.240   0.579  0.00  0.00     0.157 HD
HETATM   24  H   UNK N   1       3.122   4.234   0.386  0.00  0.00     0.157 HD
ENDBRANCH   1  22
TORSDOF 4
