MODEL 1
REMARK VINA RESULT:      -5.3      0.000      0.000
REMARK  7 active torsions:
REMARK  status: ('A' for Active; 'I' for Inactive)
REMARK    1  A    between atoms: C_6  and  C_3 
REMARK    2  A    between atoms: C_8  and  C_3 
REMARK    3  A    between atoms: C_7  and  C_4 
REMARK    4  A    between atoms: N_10  and  C_4 
REMARK    5  A    between atoms: C_9  and  C_8 
REMARK    6  A    between atoms: C_8  and  N_14 
REMARK    7  A    between atoms: O_16  and  C_9 
ROOT
HETATM    1  C   UNK N   1      34.161  15.247  10.051  0.00  0.00     0.136 A 
HETATM    2  C   UNK N   1      34.956  15.205  11.172  0.00  0.00     0.057 A 
HETATM    3  N   UNK N   1      35.514  16.418  11.348  0.00  0.00    -0.285 N 
ATOM      4  HN  UNK N   1      36.154  16.690  12.094  1.00  0.00     0.184 HD
HETATM    5  N   UNK N   1      35.072  17.191  10.367  0.00  0.00    -0.019 NA
HETATM    6  N   UNK N   1      34.264  16.502   9.574  0.00  0.00    -0.270 N 
ENDROOT
BRANCH   6   7
HETATM    7  C   UNK N   1      33.529  17.024   8.412  0.00  0.00     0.203 C 
BRANCH   7   8
HETATM    8  C   UNK N   1      32.108  17.536   8.757  0.00  0.00     0.041 C 
BRANCH   8   9
HETATM    9  C   UNK N   1      30.971  17.447   7.723  0.00  0.00    -0.020 C 
HETATM   10  C   UNK N   1      31.118  16.334   6.709  0.00  0.00     0.009 C 
HETATM   11  C   UNK N   1      29.583  17.455   8.337  0.00  0.00     0.009 C 
ENDBRANCH   8   9
ENDBRANCH   7   8
BRANCH   7  12
HETATM   12  C   UNK N   1      34.339  18.044   7.644  0.00  0.00     0.165 C 
HETATM   13  O   UNK N   1      34.463  17.961   6.431  0.00  0.00    -0.648 OA
BRANCH  12  14
HETATM   14  O   UNK N   1      34.919  19.068   8.300  0.00  0.00    -0.775 OA
HETATM   15  H   UNK N   1      34.502  19.733   8.812  0.00  0.00     0.167 HD
ENDBRANCH  12  14
ENDBRANCH   7  12
ENDBRANCH   6   7
BRANCH   2  16
HETATM   16  C   UNK N   1      35.166  14.032  12.066  0.00  0.00     0.171 C 
BRANCH  16  17
HETATM   17  N   UNK N   1      34.424  12.889  11.562  0.00  0.00    -0.425 N 
HETATM   18  H   UNK N   1      33.956  12.495  10.747  0.00  0.00     0.150 HD
HETATM   19  H   UNK N   1      34.336  12.216  12.325  0.00  0.00     0.150 HD
ENDBRANCH  16  17
ENDBRANCH   2  16
TORSDOF 7
ENDMDL
MODEL 2
REMARK VINA RESULT:      -5.2      2.638      5.330
REMARK  7 active torsions:
REMARK  status: ('A' for Active; 'I' for Inactive)
REMARK    1  A    between atoms: C_6  and  C_3 
REMARK    2  A    between atoms: C_8  and  C_3 
REMARK    3  A    between atoms: C_7  and  C_4 
REMARK    4  A    between atoms: N_10  and  C_4 
REMARK    5  A    between atoms: C_9  and  C_8 
REMARK    6  A    between atoms: C_8  and  N_14 
REMARK    7  A    between atoms: O_16  and  C_9 
ROOT
HETATM    1  C   UNK N   1      30.754  17.710   8.698  0.00  0.00     0.136 A 
HETATM    2  C   UNK N   1      29.786  17.526   7.738  0.00  0.00     0.057 A 
HETATM    3  N   UNK N   1      30.389  17.224   6.573  0.00  0.00    -0.285 N 
ATOM      4  HN  UNK N   1      29.931  17.038   5.682  1.00  0.00     0.184 HD
HETATM    5  N   UNK N   1      31.694  17.215   6.806  0.00  0.00    -0.019 NA
HETATM    6  N   UNK N   1      31.932  17.512   8.075  0.00  0.00    -0.270 N 
ENDROOT
BRANCH   6   7
HETATM    7  C   UNK N   1      33.247  17.544   8.732  0.00  0.00     0.203 C 
BRANCH   7   8
HETATM    8  C   UNK N   1      33.733  16.154   9.212  0.00  0.00     0.041 C 
BRANCH   8   9
HETATM    9  C   UNK N   1      35.194  15.942   9.650  0.00  0.00    -0.020 C 
HETATM   10  C   UNK N   1      35.453  16.155  11.125  0.00  0.00     0.009 C 
HETATM   11  C   UNK N   1      35.795  14.635   9.166  0.00  0.00     0.009 C 
ENDBRANCH   8   9
ENDBRANCH   7   8
BRANCH   7  12
HETATM   12  C   UNK N   1      34.280  18.258   7.891  0.00  0.00     0.165 C 
HETATM   13  O   UNK N   1      34.954  19.163   8.360  0.00  0.00    -0.648 OA
BRANCH  12  14
HETATM   14  O   UNK N   1      34.474  17.883   6.611  0.00  0.00    -0.775 OA
HETATM   15  H   UNK N   1      33.846  17.526   6.015  0.00  0.00     0.167 HD
ENDBRANCH  12  14
ENDBRANCH   7  12
ENDBRANCH   6   7
BRANCH   2  16
HETATM   16  C   UNK N   1      28.313  17.622   7.936  0.00  0.00     0.171 C 
BRANCH  16  17
HETATM   17  N   UNK N   1      28.022  18.498   9.059  0.00  0.00    -0.425 N 
HETATM   18  H   UNK N   1      27.826  19.460   9.334  0.00  0.00     0.150 HD
HETATM   19  H   UNK N   1      28.008  17.925   9.903  0.00  0.00     0.150 HD
ENDBRANCH  16  17
ENDBRANCH   2  16
TORSDOF 7
ENDMDL
MODEL 3
REMARK VINA RESULT:      -5.1      3.661      5.209
REMARK  7 active torsions:
REMARK  status: ('A' for Active; 'I' for Inactive)
REMARK    1  A    between atoms: C_6  and  C_3 
REMARK    2  A    between atoms: C_8  and  C_3 
REMARK    3  A    between atoms: C_7  and  C_4 
REMARK    4  A    between atoms: N_10  and  C_4 
REMARK    5  A    between atoms: C_9  and  C_8 
REMARK    6  A    between atoms: C_8  and  N_14 
REMARK    7  A    between atoms: O_16  and  C_9 
ROOT
HETATM    1  C   UNK N   1      30.305  17.121   6.555  0.00  0.00     0.136 A 
HETATM    2  C   UNK N   1      29.673  17.529   7.706  0.00  0.00     0.057 A 
HETATM    3  N   UNK N   1      30.610  17.863   8.614  0.00  0.00    -0.285 N 
ATOM      4  HN  UNK N   1      30.445  18.199   9.562  1.00  0.00     0.184 HD
HETATM    5  N   UNK N   1      31.789  17.672   8.039  0.00  0.00    -0.019 NA
HETATM    6  N   UNK N   1      31.625  17.219   6.804  0.00  0.00    -0.270 N 
ENDROOT
BRANCH   6   7
HETATM    7  C   UNK N   1      32.689  16.944   5.827  0.00  0.00     0.203 C 
BRANCH   7   8
HETATM    8  C   UNK N   1      32.524  17.721   4.497  0.00  0.00     0.041 C 
BRANCH   8   9
HETATM    9  C   UNK N   1      32.345  16.968   3.167  0.00  0.00    -0.020 C 
HETATM   10  C   UNK N   1      33.361  15.877   2.911  0.00  0.00     0.009 C 
HETATM   11  C   UNK N   1      30.930  16.471   2.930  0.00  0.00     0.009 C 
ENDBRANCH   8   9
ENDBRANCH   7   8
BRANCH   7  12
HETATM   12  C   UNK N   1      34.065  17.116   6.430  0.00  0.00     0.165 C 
HETATM   13  O   UNK N   1      34.890  16.216   6.374  0.00  0.00    -0.648 OA
BRANCH  12  14
HETATM   14  O   UNK N   1      34.394  18.280   7.021  0.00  0.00    -0.775 OA
HETATM   15  H   UNK N   1      35.246  18.572   7.283  0.00  0.00     0.167 HD
ENDBRANCH  12  14
ENDBRANCH   7  12
ENDBRANCH   6   7
BRANCH   2  16
HETATM   16  C   UNK N   1      28.203  17.613   7.928  0.00  0.00     0.171 C 
BRANCH  16  17
HETATM   17  N   UNK N   1      27.926  18.426   9.100  0.00  0.00    -0.425 N 
HETATM   18  H   UNK N   1      27.284  18.570   9.879  0.00  0.00     0.150 HD
HETATM   19  H   UNK N   1      28.662  19.129   9.170  0.00  0.00     0.150 HD
ENDBRANCH  16  17
ENDBRANCH   2  16
TORSDOF 7
ENDMDL
MODEL 4
REMARK VINA RESULT:      -5.0      2.382      2.815
REMARK  7 active torsions:
REMARK  status: ('A' for Active; 'I' for Inactive)
REMARK    1  A    between atoms: C_6  and  C_3 
REMARK    2  A    between atoms: C_8  and  C_3 
REMARK    3  A    between atoms: C_7  and  C_4 
REMARK    4  A    between atoms: N_10  and  C_4 
REMARK    5  A    between atoms: C_9  and  C_8 
REMARK    6  A    between atoms: C_8  and  N_14 
REMARK    7  A    between atoms: O_16  and  C_9 
ROOT
HETATM    1  C   UNK N   1      34.259  14.578   8.111  0.00  0.00     0.136 A 
HETATM    2  C   UNK N   1      33.489  13.714   8.855  0.00  0.00     0.057 A 
HETATM    3  N   UNK N   1      32.558  14.429   9.514  0.00  0.00    -0.285 N 
ATOM      4  HN  UNK N   1      31.847  14.063  10.147  1.00  0.00     0.184 HD
HETATM    5  N   UNK N   1      32.741  15.699   9.183  0.00  0.00    -0.019 NA
HETATM    6  N   UNK N   1      33.763  15.808   8.347  0.00  0.00    -0.270 N 
ENDROOT
BRANCH   6   7
HETATM    7  C   UNK N   1      34.240  17.044   7.708  0.00  0.00     0.203 C 
BRANCH   7   8
HETATM    8  C   UNK N   1      33.152  17.770   6.877  0.00  0.00     0.041 C 
BRANCH   8   9
HETATM    9  C   UNK N   1      32.434  17.047   5.724  0.00  0.00    -0.020 C 
HETATM   10  C   UNK N   1      30.930  16.962   5.865  0.00  0.00     0.009 C 
HETATM   11  C   UNK N   1      32.832  17.543   4.346  0.00  0.00     0.009 C 
ENDBRANCH   8   9
ENDBRANCH   7   8
BRANCH   7  12
HETATM   12  C   UNK N   1      34.921  17.963   8.697  0.00  0.00     0.165 C 
HETATM   13  O   UNK N   1      35.175  19.122   8.402  0.00  0.00    -0.648 OA
BRANCH  12  14
HETATM   14  O   UNK N   1      35.238  17.506   9.924  0.00  0.00    -0.775 OA
HETATM   15  H   UNK N   1      34.979  17.858  10.753  0.00  0.00     0.167 HD
ENDBRANCH  12  14
ENDBRANCH   7  12
ENDBRANCH   6   7
BRANCH   2  16
HETATM   16  C   UNK N   1      33.633  12.234   8.922  0.00  0.00     0.171 C 
BRANCH  16  17
HETATM   17  N   UNK N   1      32.410  11.641   9.438  0.00  0.00    -0.425 N 
HETATM   18  H   UNK N   1      31.894  11.404  10.284  0.00  0.00     0.150 HD
HETATM   19  H   UNK N   1      31.848  11.347   8.639  0.00  0.00     0.150 HD
ENDBRANCH  16  17
ENDBRANCH   2  16
TORSDOF 7
ENDMDL
MODEL 5
REMARK VINA RESULT:      -4.9      1.838      2.224
REMARK  7 active torsions:
REMARK  status: ('A' for Active; 'I' for Inactive)
REMARK    1  A    between atoms: C_6  and  C_3 
REMARK    2  A    between atoms: C_8  and  C_3 
REMARK    3  A    between atoms: C_7  and  C_4 
REMARK    4  A    between atoms: N_10  and  C_4 
REMARK    5  A    between atoms: C_9  and  C_8 
REMARK    6  A    between atoms: C_8  and  N_14 
REMARK    7  A    between atoms: O_16  and  C_9 
ROOT
HETATM    1  C   UNK N   1      35.447  14.942   9.554  0.00  0.00     0.136 A 
HETATM    2  C   UNK N   1      36.053  14.881  10.787  0.00  0.00     0.057 A 
HETATM    3  N   UNK N   1      36.180  16.133  11.265  0.00  0.00    -0.285 N 
ATOM      4  HN  UNK N   1      36.595  16.405  12.156  1.00  0.00     0.184 HD
HETATM    5  N   UNK N   1      35.663  16.947  10.356  0.00  0.00    -0.019 NA
HETATM    6  N   UNK N   1      35.225  16.249   9.318  0.00  0.00    -0.270 N 
ENDROOT
BRANCH   6   7
HETATM    7  C   UNK N   1      34.534  16.785   8.135  0.00  0.00     0.203 C 
BRANCH   7   8
HETATM    8  C   UNK N   1      33.277  15.974   7.731  0.00  0.00     0.041 C 
BRANCH   8   9
HETATM    9  C   UNK N   1      32.916  15.775   6.248  0.00  0.00    -0.020 C 
HETATM   10  C   UNK N   1      31.705  16.551   5.779  0.00  0.00     0.009 C 
HETATM   11  C   UNK N   1      34.089  15.957   5.303  0.00  0.00     0.009 C 
ENDBRANCH   8   9
ENDBRANCH   7   8
BRANCH   7  12
HETATM   12  C   UNK N   1      34.247  18.264   8.272  0.00  0.00     0.165 C 
HETATM   13  O   UNK N   1      33.101  18.685   8.235  0.00  0.00    -0.648 OA
BRANCH  12  14
HETATM   14  O   UNK N   1      35.265  19.127   8.452  0.00  0.00    -0.775 OA
HETATM   15  H   UNK N   1      35.885  19.427   7.816  0.00  0.00     0.167 HD
ENDBRANCH  12  14
ENDBRANCH   7  12
ENDBRANCH   6   7
BRANCH   2  16
HETATM   16  C   UNK N   1      36.487  13.648  11.500  0.00  0.00     0.171 C 
BRANCH  16  17
HETATM   17  N   UNK N   1      37.913  13.443  11.310  0.00  0.00    -0.425 N 
HETATM   18  H   UNK N   1      38.634  13.193  10.634  0.00  0.00     0.150 HD
HETATM   19  H   UNK N   1      38.373  13.617  12.203  0.00  0.00     0.150 HD
ENDBRANCH  16  17
ENDBRANCH   2  16
TORSDOF 7
ENDMDL
MODEL 6
REMARK VINA RESULT:      -4.8     16.517     18.320
REMARK  7 active torsions:
REMARK  status: ('A' for Active; 'I' for Inactive)
REMARK    1  A    between atoms: C_6  and  C_3 
REMARK    2  A    between atoms: C_8  and  C_3 
REMARK    3  A    between atoms: C_7  and  C_4 
REMARK    4  A    between atoms: N_10  and  C_4 
REMARK    5  A    between atoms: C_9  and  C_8 
REMARK    6  A    between atoms: C_8  and  N_14 
REMARK    7  A    between atoms: O_16  and  C_9 
ROOT
HETATM    1  C   UNK N   1      25.762  23.346  -5.955  0.00  0.00     0.136 A 
HETATM    2  C   UNK N   1      25.961  22.479  -7.005  0.00  0.00     0.057 A 
HETATM    3  N   UNK N   1      27.280  22.421  -7.268  0.00  0.00    -0.285 N 
ATOM      4  HN  UNK N   1      27.730  21.865  -7.995  1.00  0.00     0.184 HD
HETATM    5  N   UNK N   1      27.882  23.225  -6.403  0.00  0.00    -0.019 NA
HETATM    6  N   UNK N   1      26.985  23.794  -5.611  0.00  0.00    -0.270 N 
ENDROOT
BRANCH   6   7
HETATM    7  C   UNK N   1      27.264  24.701  -4.488  0.00  0.00     0.203 C 
BRANCH   7   8
HETATM    8  C   UNK N   1      26.060  25.597  -4.102  0.00  0.00     0.041 C 
BRANCH   8   9
HETATM    9  C   UNK N   1      25.870  26.978  -4.756  0.00  0.00    -0.020 C 
HETATM   10  C   UNK N   1      24.770  27.043  -5.793  0.00  0.00     0.009 C 
HETATM   11  C   UNK N   1      25.758  28.117  -3.760  0.00  0.00     0.009 C 
ENDBRANCH   8   9
ENDBRANCH   7   8
BRANCH   7  12
HETATM   12  C   UNK N   1      27.841  23.965  -3.299  0.00  0.00     0.165 C 
HETATM   13  O   UNK N   1      27.178  23.794  -2.287  0.00  0.00    -0.648 OA
BRANCH  12  14
HETATM   14  O   UNK N   1      29.094  23.476  -3.361  0.00  0.00    -0.775 OA
HETATM   15  H   UNK N   1      29.601  23.287  -4.126  0.00  0.00     0.167 HD
ENDBRANCH  12  14
ENDBRANCH   7  12
ENDBRANCH   6   7
BRANCH   2  16
HETATM   16  C   UNK N   1      24.912  21.711  -7.729  0.00  0.00     0.171 C 
BRANCH  16  17
HETATM   17  N   UNK N   1      23.780  21.470  -6.850  0.00  0.00    -0.425 N 
HETATM   18  H   UNK N   1      23.500  21.139  -5.928  0.00  0.00     0.150 HD
HETATM   19  H   UNK N   1      22.934  21.736  -7.354  0.00  0.00     0.150 HD
ENDBRANCH  16  17
ENDBRANCH   2  16
TORSDOF 7
ENDMDL
MODEL 7
REMARK VINA RESULT:      -4.8     16.442     18.158
REMARK  7 active torsions:
REMARK  status: ('A' for Active; 'I' for Inactive)
REMARK    1  A    between atoms: C_6  and  C_3 
REMARK    2  A    between atoms: C_8  and  C_3 
REMARK    3  A    between atoms: C_7  and  C_4 
REMARK    4  A    between atoms: N_10  and  C_4 
REMARK    5  A    between atoms: C_9  and  C_8 
REMARK    6  A    between atoms: C_8  and  N_14 
REMARK    7  A    between atoms: O_16  and  C_9 
ROOT
HETATM    1  C   UNK N   1      28.269  25.528  -4.309  0.00  0.00     0.136 A 
HETATM    2  C   UNK N   1      28.302  24.342  -3.612  0.00  0.00     0.057 A 
HETATM    3  N   UNK N   1      27.065  24.083  -3.148  0.00  0.00    -0.285 N 
ATOM      4  HN  UNK N   1      26.782  23.275  -2.593  1.00  0.00     0.184 HD
HETATM    5  N   UNK N   1      26.286  25.076  -3.550  0.00  0.00    -0.019 NA
HETATM    6  N   UNK N   1      26.994  25.957  -4.242  0.00  0.00    -0.270 N 
ENDROOT
BRANCH   6   7
HETATM    7  C   UNK N   1      26.476  27.164  -4.905  0.00  0.00     0.203 C 
BRANCH   7   8
HETATM    8  C   UNK N   1      25.413  26.866  -5.992  0.00  0.00     0.041 C 
BRANCH   8   9
HETATM    9  C   UNK N   1      25.830  26.297  -7.360  0.00  0.00    -0.020 C 
HETATM   10  C   UNK N   1      27.121  26.857  -7.915  0.00  0.00     0.009 C 
HETATM   11  C   UNK N   1      25.813  24.781  -7.424  0.00  0.00     0.009 C 
ENDBRANCH   8   9
ENDBRANCH   7   8
BRANCH   7  12
HETATM   12  C   UNK N   1      26.007  28.198  -3.906  0.00  0.00     0.165 C 
HETATM   13  O   UNK N   1      26.085  29.392  -4.157  0.00  0.00    -0.648 OA
BRANCH  12  14
HETATM   14  O   UNK N   1      25.481  27.801  -2.731  0.00  0.00    -0.775 OA
HETATM   15  H   UNK N   1      25.001  28.316  -2.113  0.00  0.00     0.167 HD
ENDBRANCH  12  14
ENDBRANCH   7  12
ENDBRANCH   6   7
BRANCH   2  16
HETATM   16  C   UNK N   1      29.490  23.468  -3.409  0.00  0.00     0.171 C 
BRANCH  16  17
HETATM   17  N   UNK N   1      29.543  23.019  -2.028  0.00  0.00    -0.425 N 
HETATM   18  H   UNK N   1      29.607  22.202  -1.421  0.00  0.00     0.150 HD
HETATM   19  H   UNK N   1      29.498  23.846  -1.432  0.00  0.00     0.150 HD
ENDBRANCH  16  17
ENDBRANCH   2  16
TORSDOF 7
ENDMDL
MODEL 8
REMARK VINA RESULT:      -4.8     12.251     13.311
REMARK  7 active torsions:
REMARK  status: ('A' for Active; 'I' for Inactive)
REMARK    1  A    between atoms: C_6  and  C_3 
REMARK    2  A    between atoms: C_8  and  C_3 
REMARK    3  A    between atoms: C_7  and  C_4 
REMARK    4  A    between atoms: N_10  and  C_4 
REMARK    5  A    between atoms: C_9  and  C_8 
REMARK    6  A    between atoms: C_8  and  N_14 
REMARK    7  A    between atoms: O_16  and  C_9 
ROOT
HETATM    1  C   UNK N   1      21.878  14.026   9.446  0.00  0.00     0.136 A 
HETATM    2  C   UNK N   1      21.552  13.008  10.311  0.00  0.00     0.057 A 
HETATM    3  N   UNK N   1      20.226  13.047  10.539  0.00  0.00    -0.285 N 
ATOM      4  HN  UNK N   1      19.694  12.420  11.142  1.00  0.00     0.184 HD
HETATM    5  N   UNK N   1      19.742  14.058   9.831  0.00  0.00    -0.019 NA
HETATM    6  N   UNK N   1      20.723  14.662   9.175  0.00  0.00    -0.270 N 
ENDROOT
BRANCH   6   7
HETATM    7  C   UNK N   1      20.581  15.787   8.237  0.00  0.00     0.203 C 
BRANCH   7   8
HETATM    8  C   UNK N   1      20.338  15.345   6.772  0.00  0.00     0.041 C 
BRANCH   8   9
HETATM    9  C   UNK N   1      21.148  15.969   5.621  0.00  0.00    -0.020 C 
HETATM   10  C   UNK N   1      20.362  16.896   4.721  0.00  0.00     0.009 C 
HETATM   11  C   UNK N   1      22.453  16.604   6.064  0.00  0.00     0.009 C 
ENDBRANCH   8   9
ENDBRANCH   7   8
BRANCH   7  12
HETATM   12  C   UNK N   1      19.557  16.792   8.714  0.00  0.00     0.165 C 
HETATM   13  O   UNK N   1      19.897  17.912   9.068  0.00  0.00    -0.648 OA
BRANCH  12  14
HETATM   14  O   UNK N   1      18.252  16.459   8.733  0.00  0.00    -0.775 OA
HETATM   15  H   UNK N   1      17.716  16.279   9.480  0.00  0.00     0.167 HD
ENDBRANCH  12  14
ENDBRANCH   7  12
ENDBRANCH   6   7
BRANCH   2  16
HETATM   16  C   UNK N   1      22.488  12.008  10.895  0.00  0.00     0.171 C 
BRANCH  16  17
HETATM   17  N   UNK N   1      22.068  11.666  12.244  0.00  0.00    -0.425 N 
HETATM   18  H   UNK N   1      22.112  10.955  12.973  0.00  0.00     0.150 HD
HETATM   19  H   UNK N   1      21.509  12.441  12.600  0.00  0.00     0.150 HD
ENDBRANCH  16  17
ENDBRANCH   2  16
TORSDOF 7
ENDMDL
MODEL 9
REMARK VINA RESULT:      -4.7      4.762      7.659
REMARK  7 active torsions:
REMARK  status: ('A' for Active; 'I' for Inactive)
REMARK    1  A    between atoms: C_6  and  C_3 
REMARK    2  A    between atoms: C_8  and  C_3 
REMARK    3  A    between atoms: C_7  and  C_4 
REMARK    4  A    between atoms: N_10  and  C_4 
REMARK    5  A    between atoms: C_9  and  C_8 
REMARK    6  A    between atoms: C_8  and  N_14 
REMARK    7  A    between atoms: O_16  and  C_9 
ROOT
HETATM    1  C   UNK N   1      35.388  14.553  12.397  0.00  0.00     0.136 A 
HETATM    2  C   UNK N   1      36.040  14.850  11.222  0.00  0.00     0.057 A 
HETATM    3  N   UNK N   1      37.149  14.090  11.143  0.00  0.00    -0.285 N 
ATOM      4  HN  UNK N   1      37.834  14.091  10.388  1.00  0.00     0.184 HD
HETATM    5  N   UNK N   1      37.180  13.339  12.235  0.00  0.00    -0.019 NA
HETATM    6  N   UNK N   1      36.135  13.609  13.003  0.00  0.00    -0.270 N 
ENDROOT
BRANCH   6   7
HETATM    7  C   UNK N   1      35.785  12.943  14.267  0.00  0.00     0.203 C 
BRANCH   7   8
HETATM    8  C   UNK N   1      36.082  11.422  14.268  0.00  0.00     0.041 C 
BRANCH   8   9
HETATM    9  C   UNK N   1      35.095  10.432  14.913  0.00  0.00    -0.020 C 
HETATM   10  C   UNK N   1      33.637  10.698  14.608  0.00  0.00     0.009 C 
HETATM   11  C   UNK N   1      35.451   8.975  14.682  0.00  0.00     0.009 C 
ENDBRANCH   8   9
ENDBRANCH   7   8
BRANCH   7  12
HETATM   12  C   UNK N   1      36.386  13.650  15.461  0.00  0.00     0.165 C 
HETATM   13  O   UNK N   1      35.806  13.665  16.537  0.00  0.00    -0.648 OA
BRANCH  12  14
HETATM   14  O   UNK N   1      37.583  14.257  15.345  0.00  0.00    -0.775 OA
HETATM   15  H   UNK N   1      37.774  15.077  14.935  0.00  0.00     0.167 HD
ENDBRANCH  12  14
ENDBRANCH   7  12
ENDBRANCH   6   7
BRANCH   2  16
HETATM   16  C   UNK N   1      35.603  15.829  10.190  0.00  0.00     0.171 C 
BRANCH  16  17
HETATM   17  N   UNK N   1      35.125  17.043  10.832  0.00  0.00    -0.425 N 
HETATM   18  H   UNK N   1      35.315  17.726  11.564  0.00  0.00     0.150 HD
HETATM   19  H   UNK N   1      34.260  17.319  10.367  0.00  0.00     0.150 HD
ENDBRANCH  16  17
ENDBRANCH   2  16
TORSDOF 7
ENDMDL
