MODEL 1
REMARK VINA RESULT:      -9.5      0.000      0.000
REMARK  12 active torsions:
REMARK  status: ('A' for Active; 'I' for Inactive)
REMARK    1  A    between atoms: C_22  and  C_21 
REMARK    2  A    between atoms: C_28  and  C_21 
REMARK    3  A    between atoms: O_43  and  C_23 
REMARK    4  A    between atoms: C_33  and  C_28 
REMARK    5  A    between atoms: C_28  and  N_34 
REMARK    6  A    between atoms: N_35  and  C_29 
REMARK    7  A    between atoms: N_36  and  C_30 
REMARK    8  A    between atoms: S_44  and  C_31 
REMARK    9  A    between atoms: S_45  and  C_32 
REMARK   10  A    between atoms: O_38  and  C_33 
REMARK   11  A    between atoms: S_44  and  N_34 
REMARK   12  A    between atoms: S_45  and  O_43 
ROOT
HETATM    1  C   UNK N   1      35.239  13.602   8.062  0.00  0.00     0.075 C 
ENDROOT
BRANCH   1   2
HETATM    2  C   UNK N   1      36.299  13.339   9.068  0.00  0.00    -0.056 C 
HETATM    3  C   UNK N   1      36.448  12.022   9.519  0.00  0.00     0.010 C 
HETATM    4  C   UNK N   1      36.800  11.779  10.834  0.00  0.00     0.039 C 
HETATM    5  C   UNK N   1      37.032  12.848  11.691  0.00  0.00     0.089 C 
HETATM    6  C   UNK N   1      37.043  14.161  11.196  0.00  0.00     0.039 C 
HETATM    7  C   UNK N   1      36.648  14.409   9.890  0.00  0.00     0.010 C 
BRANCH   5   8
HETATM    8  O   UNK N   1      37.224  12.601  12.996  0.00  0.00    -0.229 OA
BRANCH   8   9
HETATM    9  S   UNK N   1      36.098  13.101  14.136  0.00  0.00     0.303 S 
HETATM   10  O   UNK N   1      36.487  14.534  14.536  0.00  0.00    -0.193 OA
HETATM   11  O   UNK N   1      34.789  13.248  13.348  0.00  0.00    -0.193 OA
BRANCH   9  12
HETATM   12  C   UNK N   1      36.104  11.876  15.427  0.00  0.00     0.098 A 
HETATM   13  C   UNK N   1      36.446  10.565  15.072  0.00  0.00     0.027 A 
HETATM   14  C   UNK N   1      36.462   9.556  16.021  0.00  0.00     0.003 A 
HETATM   15  C   UNK N   1      36.129   9.847  17.337  0.00  0.00     0.014 A 
HETATM   16  C   UNK N   1      35.778  11.153  17.731  0.00  0.00     0.002 A 
HETATM   17  C   UNK N   1      35.770  12.176  16.748  0.00  0.00     0.000 A 
HETATM   18  C   UNK N   1      35.429  11.462  19.075  0.00  0.00     0.040 A 
HETATM   19  C   UNK N   1      35.425  13.485  17.098  0.00  0.00     0.014 A 
HETATM   20  C   UNK N   1      35.086  13.792  18.406  0.00  0.00     0.003 A 
HETATM   21  C   UNK N   1      35.086  12.797  19.377  0.00  0.00     0.030 A 
BRANCH  18  22
HETATM   22  N   UNK N   1      35.403  10.494  20.141  0.00  0.00    -0.389 N 
HETATM   23  C   UNK N   1      34.190   9.777  20.437  0.00  0.00     0.149 C 
HETATM   24  C   UNK N   1      36.552  10.193  20.963  0.00  0.00     0.149 C 
ENDBRANCH  18  22
ENDBRANCH   9  12
ENDBRANCH   8   9
ENDBRANCH   5   8
ENDBRANCH   1   2
BRANCH   1  25
HETATM   25  C   UNK N   1      34.457  14.855   8.562  0.00  0.00     0.195 C 
BRANCH  25  26
HETATM   26  C   UNK N   1      33.137  14.503   9.243  0.00  0.00     0.164 C 
HETATM   27  O   UNK N   1      32.312  13.817   8.662  0.00  0.00    -0.648 OA
BRANCH  26  28
HETATM   28  O   UNK N   1      32.853  14.977  10.475  0.00  0.00    -0.775 OA
HETATM   29  H   UNK N   1      33.025  15.396  11.296  0.00  0.00     0.167 HD
ENDBRANCH  26  28
ENDBRANCH  25  26
BRANCH  25  30
HETATM   30  N   UNK N   1      34.176  15.708   7.397  0.00  0.00    -0.300 N 
HETATM   31  H   UNK N   1      34.260  15.410   6.425  0.00  0.00     0.173 HD
BRANCH  30  32
HETATM   32  S   UNK N   1      33.675  17.310   7.908  0.00  0.00     0.260 S 
HETATM   33  O   UNK N   1      34.210  17.414   9.345  0.00  0.00    -0.200 OA
HETATM   34  O   UNK N   1      34.548  18.278   7.097  0.00  0.00    -0.200 OA
BRANCH  32  35
HETATM   35  C   UNK N   1      31.909  17.441   7.719  0.00  0.00     0.090 A 
HETATM   36  C   UNK N   1      31.164  17.840   8.832  0.00  0.00     0.026 A 
HETATM   37  C   UNK N   1      29.799  18.061   8.724  0.00  0.00     0.003 A 
HETATM   38  C   UNK N   1      29.171  17.908   7.491  0.00  0.00     0.014 A 
HETATM   39  C   UNK N   1      29.889  17.507   6.350  0.00  0.00     0.002 A 
HETATM   40  C   UNK N   1      31.280  17.257   6.481  0.00  0.00    -0.000 A 
HETATM   41  C   UNK N   1      29.265  17.365   5.075  0.00  0.00     0.040 A 
HETATM   42  C   UNK N   1      32.028  16.852   5.371  0.00  0.00     0.014 A 
HETATM   43  C   UNK N   1      31.420  16.682   4.138  0.00  0.00     0.003 A 
HETATM   44  C   UNK N   1      30.061  16.940   3.991  0.00  0.00     0.030 A 
BRANCH  41  45
HETATM   45  N   UNK N   1      27.876  17.653   4.827  0.00  0.00    -0.389 N 
HETATM   46  C   UNK N   1      26.864  16.700   5.205  0.00  0.00     0.149 C 
HETATM   47  C   UNK N   1      27.427  18.833   4.129  0.00  0.00     0.149 C 
ENDBRANCH  41  45
ENDBRANCH  32  35
ENDBRANCH  30  32
ENDBRANCH  25  30
ENDBRANCH   1  25
TORSDOF 12
ENDMDL
MODEL 2
REMARK VINA RESULT:      -9.4     10.377     14.186
REMARK  12 active torsions:
REMARK  status: ('A' for Active; 'I' for Inactive)
REMARK    1  A    between atoms: C_22  and  C_21 
REMARK    2  A    between atoms: C_28  and  C_21 
REMARK    3  A    between atoms: O_43  and  C_23 
REMARK    4  A    between atoms: C_33  and  C_28 
REMARK    5  A    between atoms: C_28  and  N_34 
REMARK    6  A    between atoms: N_35  and  C_29 
REMARK    7  A    between atoms: N_36  and  C_30 
REMARK    8  A    between atoms: S_44  and  C_31 
REMARK    9  A    between atoms: S_45  and  C_32 
REMARK   10  A    between atoms: O_38  and  C_33 
REMARK   11  A    between atoms: S_44  and  N_34 
REMARK   12  A    between atoms: S_45  and  O_43 
ROOT
HETATM    1  C   UNK N   1      27.335  19.758   3.894  0.00  0.00     0.075 C 
ENDROOT
BRANCH   1   2
HETATM    2  C   UNK N   1      25.982  19.473   3.349  0.00  0.00    -0.056 C 
HETATM    3  C   UNK N   1      25.260  20.549   2.821  0.00  0.00     0.010 C 
HETATM    4  C   UNK N   1      23.886  20.599   2.972  0.00  0.00     0.039 C 
HETATM    5  C   UNK N   1      23.230  19.561   3.625  0.00  0.00     0.089 C 
HETATM    6  C   UNK N   1      23.935  18.409   4.006  0.00  0.00     0.039 C 
HETATM    7  C   UNK N   1      25.317  18.377   3.894  0.00  0.00     0.010 C 
BRANCH   5   8
HETATM    8  O   UNK N   1      21.923  19.693   3.897  0.00  0.00    -0.229 OA
BRANCH   8   9
HETATM    9  S   UNK N   1      20.773  18.876   2.986  0.00  0.00     0.303 S 
HETATM   10  O   UNK N   1      19.406  19.454   3.390  0.00  0.00    -0.193 OA
HETATM   11  O   UNK N   1      21.003  19.362   1.548  0.00  0.00    -0.193 OA
BRANCH   9  12
HETATM   12  C   UNK N   1      21.031  17.140   3.279  0.00  0.00     0.098 A 
HETATM   13  C   UNK N   1      21.174  16.310   2.161  0.00  0.00     0.027 A 
HETATM   14  C   UNK N   1      21.368  14.947   2.310  0.00  0.00     0.003 A 
HETATM   15  C   UNK N   1      21.415  14.397   3.584  0.00  0.00     0.014 A 
HETATM   16  C   UNK N   1      21.273  15.200   4.733  0.00  0.00     0.002 A 
HETATM   17  C   UNK N   1      21.080  16.596   4.563  0.00  0.00     0.000 A 
HETATM   18  C   UNK N   1      21.314  14.648   6.043  0.00  0.00     0.040 A 
HETATM   19  C   UNK N   1      20.933  17.427   5.678  0.00  0.00     0.014 A 
HETATM   20  C   UNK N   1      20.973  16.894   6.956  0.00  0.00     0.003 A 
HETATM   21  C   UNK N   1      21.159  15.528   7.136  0.00  0.00     0.030 A 
BRANCH  18  22
HETATM   22  N   UNK N   1      21.501  13.247   6.319  0.00  0.00    -0.389 N 
HETATM   23  C   UNK N   1      20.472  12.300   5.979  0.00  0.00     0.149 C 
HETATM   24  C   UNK N   1      22.691  12.716   6.941  0.00  0.00     0.149 C 
ENDBRANCH  18  22
ENDBRANCH   9  12
ENDBRANCH   8   9
ENDBRANCH   5   8
ENDBRANCH   1   2
BRANCH   1  25
HETATM   25  C   UNK N   1      27.306  19.326   5.392  0.00  0.00     0.195 C 
BRANCH  25  26
HETATM   26  C   UNK N   1      27.082  20.496   6.346  0.00  0.00     0.164 C 
HETATM   27  O   UNK N   1      27.473  21.613   6.049  0.00  0.00    -0.648 OA
BRANCH  26  28
HETATM   28  O   UNK N   1      26.485  20.301   7.542  0.00  0.00    -0.775 OA
HETATM   29  H   UNK N   1      26.440  20.137   8.463  0.00  0.00     0.167 HD
ENDBRANCH  26  28
ENDBRANCH  25  26
BRANCH  25  30
HETATM   30  N   UNK N   1      28.599  18.699   5.707  0.00  0.00    -0.300 N 
HETATM   31  H   UNK N   1      29.505  19.048   5.393  0.00  0.00     0.173 HD
BRANCH  30  32
HETATM   32  S   UNK N   1      28.371  17.271   6.697  0.00  0.00     0.260 S 
HETATM   33  O   UNK N   1      29.796  16.718   6.867  0.00  0.00    -0.200 OA
HETATM   34  O   UNK N   1      27.994  17.804   8.086  0.00  0.00    -0.200 OA
BRANCH  32  35
HETATM   35  C   UNK N   1      27.207  16.195   5.885  0.00  0.00     0.090 A 
HETATM   36  C   UNK N   1      26.004  15.925   6.542  0.00  0.00     0.026 A 
HETATM   37  C   UNK N   1      25.012  15.180   5.920  0.00  0.00     0.003 A 
HETATM   38  C   UNK N   1      25.209  14.720   4.620  0.00  0.00     0.014 A 
HETATM   39  C   UNK N   1      26.407  14.973   3.929  0.00  0.00     0.002 A 
HETATM   40  C   UNK N   1      27.424  15.712   4.589  0.00  0.00    -0.000 A 
HETATM   41  C   UNK N   1      26.617  14.527   2.590  0.00  0.00     0.040 A 
HETATM   42  C   UNK N   1      28.631  15.981   3.936  0.00  0.00     0.014 A 
HETATM   43  C   UNK N   1      28.852  15.521   2.648  0.00  0.00     0.003 A 
HETATM   44  C   UNK N   1      27.858  14.811   1.984  0.00  0.00     0.030 A 
BRANCH  41  45
HETATM   45  N   UNK N   1      25.626  13.823   1.816  0.00  0.00    -0.389 N 
HETATM   46  C   UNK N   1      24.648  14.559   1.057  0.00  0.00     0.149 C 
HETATM   47  C   UNK N   1      25.498  12.386   1.819  0.00  0.00     0.149 C 
ENDBRANCH  41  45
ENDBRANCH  32  35
ENDBRANCH  30  32
ENDBRANCH  25  30
ENDBRANCH   1  25
TORSDOF 12
ENDMDL
MODEL 3
REMARK VINA RESULT:      -9.3     18.875     21.814
REMARK  12 active torsions:
REMARK  status: ('A' for Active; 'I' for Inactive)
REMARK    1  A    between atoms: C_22  and  C_21 
REMARK    2  A    between atoms: C_28  and  C_21 
REMARK    3  A    between atoms: O_43  and  C_23 
REMARK    4  A    between atoms: C_33  and  C_28 
REMARK    5  A    between atoms: C_28  and  N_34 
REMARK    6  A    between atoms: N_35  and  C_29 
REMARK    7  A    between atoms: N_36  and  C_30 
REMARK    8  A    between atoms: S_44  and  C_31 
REMARK    9  A    between atoms: S_45  and  C_32 
REMARK   10  A    between atoms: O_38  and  C_33 
REMARK   11  A    between atoms: S_44  and  N_34 
REMARK   12  A    between atoms: S_45  and  O_43 
ROOT
HETATM    1  C   UNK N   1      27.551  22.315  -8.393  0.00  0.00     0.075 C 
ENDROOT
BRANCH   1   2
HETATM    2  C   UNK N   1      28.647  22.507  -7.409  0.00  0.00    -0.056 C 
HETATM    3  C   UNK N   1      29.596  21.485  -7.292  0.00  0.00     0.010 C 
HETATM    4  C   UNK N   1      30.145  21.191  -6.057  0.00  0.00     0.039 C 
HETATM    5  C   UNK N   1      29.770  21.936  -4.945  0.00  0.00     0.089 C 
HETATM    6  C   UNK N   1      28.947  23.063  -5.094  0.00  0.00     0.039 C 
HETATM    7  C   UNK N   1      28.361  23.331  -6.322  0.00  0.00     0.010 C 
BRANCH   5   8
HETATM    8  O   UNK N   1      30.194  21.546  -3.733  0.00  0.00    -0.229 OA
BRANCH   8   9
HETATM    9  S   UNK N   1      31.341  22.443  -2.898  0.00  0.00     0.303 S 
HETATM   10  O   UNK N   1      30.594  23.151  -1.755  0.00  0.00    -0.193 OA
HETATM   11  O   UNK N   1      32.224  21.393  -2.208  0.00  0.00    -0.193 OA
BRANCH   9  12
HETATM   12  C   UNK N   1      32.147  23.480  -4.098  0.00  0.00     0.098 A 
HETATM   13  C   UNK N   1      33.187  22.914  -4.846  0.00  0.00     0.027 A 
HETATM   14  C   UNK N   1      33.869  23.663  -5.792  0.00  0.00     0.003 A 
HETATM   15  C   UNK N   1      33.520  24.992  -5.994  0.00  0.00     0.014 A 
HETATM   16  C   UNK N   1      32.480  25.596  -5.260  0.00  0.00     0.002 A 
HETATM   17  C   UNK N   1      31.789  24.813  -4.298  0.00  0.00     0.000 A 
HETATM   18  C   UNK N   1      32.117  26.957  -5.455  0.00  0.00     0.040 A 
HETATM   19  C   UNK N   1      30.753  25.376  -3.546  0.00  0.00     0.014 A 
HETATM   20  C   UNK N   1      30.395  26.701  -3.733  0.00  0.00     0.003 A 
HETATM   21  C   UNK N   1      31.067  27.479  -4.670  0.00  0.00     0.030 A 
BRANCH  18  22
HETATM   22  N   UNK N   1      32.759  27.832  -6.401  0.00  0.00    -0.389 N 
HETATM   23  C   UNK N   1      32.268  27.921  -7.752  0.00  0.00     0.149 C 
HETATM   24  C   UNK N   1      33.905  28.647  -6.073  0.00  0.00     0.149 C 
ENDBRANCH  18  22
ENDBRANCH   9  12
ENDBRANCH   8   9
ENDBRANCH   5   8
ENDBRANCH   1   2
BRANCH   1  25
HETATM   25  C   UNK N   1      26.414  23.302  -7.986  0.00  0.00     0.195 C 
BRANCH  25  26
HETATM   26  C   UNK N   1      25.140  22.593  -7.538  0.00  0.00     0.164 C 
HETATM   27  O   UNK N   1      24.967  22.328  -6.359  0.00  0.00    -0.648 OA
BRANCH  26  28
HETATM   28  O   UNK N   1      24.210  22.216  -8.442  0.00  0.00    -0.775 OA
HETATM   29  H   UNK N   1      23.352  22.140  -8.812  0.00  0.00     0.167 HD
ENDBRANCH  26  28
ENDBRANCH  25  26
BRANCH  25  30
HETATM   30  N   UNK N   1      26.104  24.141  -9.153  0.00  0.00    -0.300 N 
HETATM   31  H   UNK N   1      25.493  23.864  -9.922  0.00  0.00     0.173 HD
BRANCH  30  32
HETATM   32  S   UNK N   1      26.927  25.686  -9.043  0.00  0.00     0.260 S 
HETATM   33  O   UNK N   1      28.414  25.311  -9.151  0.00  0.00    -0.200 OA
HETATM   34  O   UNK N   1      26.611  26.401 -10.364  0.00  0.00    -0.200 OA
BRANCH  32  35
HETATM   35  C   UNK N   1      26.430  26.489  -7.534  0.00  0.00     0.090 A 
HETATM   36  C   UNK N   1      25.387  25.914  -6.804  0.00  0.00     0.026 A 
HETATM   37  C   UNK N   1      25.022  26.431  -5.569  0.00  0.00     0.003 A 
HETATM   38  C   UNK N   1      25.718  27.516  -5.042  0.00  0.00     0.014 A 
HETATM   39  C   UNK N   1      26.773  28.120  -5.749  0.00  0.00     0.002 A 
HETATM   40  C   UNK N   1      27.117  27.598  -7.024  0.00  0.00    -0.000 A 
HETATM   41  C   UNK N   1      27.510  29.219  -5.215  0.00  0.00     0.040 A 
HETATM   42  C   UNK N   1      28.158  28.174  -7.760  0.00  0.00     0.014 A 
HETATM   43  C   UNK N   1      28.855  29.262  -7.259  0.00  0.00     0.003 A 
HETATM   44  C   UNK N   1      28.539  29.772  -6.004  0.00  0.00     0.030 A 
BRANCH  41  45
HETATM   45  N   UNK N   1      27.277  29.780  -3.909  0.00  0.00    -0.389 N 
HETATM   46  C   UNK N   1      26.455  30.954  -3.765  0.00  0.00     0.149 C 
HETATM   47  C   UNK N   1      27.900  29.273  -2.711  0.00  0.00     0.149 C 
ENDBRANCH  41  45
ENDBRANCH  32  35
ENDBRANCH  30  32
ENDBRANCH  25  30
ENDBRANCH   1  25
TORSDOF 12
ENDMDL
MODEL 4
REMARK VINA RESULT:      -9.2      1.667     12.157
REMARK  12 active torsions:
REMARK  status: ('A' for Active; 'I' for Inactive)
REMARK    1  A    between atoms: C_22  and  C_21 
REMARK    2  A    between atoms: C_28  and  C_21 
REMARK    3  A    between atoms: O_43  and  C_23 
REMARK    4  A    between atoms: C_33  and  C_28 
REMARK    5  A    between atoms: C_28  and  N_34 
REMARK    6  A    between atoms: N_35  and  C_29 
REMARK    7  A    between atoms: N_36  and  C_30 
REMARK    8  A    between atoms: S_44  and  C_31 
REMARK    9  A    between atoms: S_45  and  C_32 
REMARK   10  A    between atoms: O_38  and  C_33 
REMARK   11  A    between atoms: S_44  and  N_34 
REMARK   12  A    between atoms: S_45  and  O_43 
ROOT
HETATM    1  C   UNK N   1      35.873  11.247  10.110  0.00  0.00     0.075 C 
ENDROOT
BRANCH   1   2
HETATM    2  C   UNK N   1      35.401  12.653  10.027  0.00  0.00    -0.056 C 
HETATM    3  C   UNK N   1      34.178  12.887   9.388  0.00  0.00     0.010 C 
HETATM    4  C   UNK N   1      33.998  14.035   8.637  0.00  0.00     0.039 C 
HETATM    5  C   UNK N   1      35.029  14.963   8.548  0.00  0.00     0.089 C 
HETATM    6  C   UNK N   1      36.190  14.807   9.321  0.00  0.00     0.039 C 
HETATM    7  C   UNK N   1      36.388  13.636  10.038  0.00  0.00     0.010 C 
BRANCH   5   8
HETATM    8  O   UNK N   1      34.899  15.994   7.700  0.00  0.00    -0.229 OA
BRANCH   8   9
HETATM    9  S   UNK N   1      34.113  17.400   8.175  0.00  0.00     0.303 S 
HETATM   10  O   UNK N   1      34.327  17.528   9.693  0.00  0.00    -0.193 OA
HETATM   11  O   UNK N   1      34.943  18.534   7.557  0.00  0.00    -0.193 OA
BRANCH   9  12
HETATM   12  C   UNK N   1      32.432  17.258   7.608  0.00  0.00     0.098 A 
HETATM   13  C   UNK N   1      31.426  17.190   8.579  0.00  0.00     0.027 A 
HETATM   14  C   UNK N   1      30.095  17.068   8.214  0.00  0.00     0.003 A 
HETATM   15  C   UNK N   1      29.757  17.008   6.869  0.00  0.00     0.014 A 
HETATM   16  C   UNK N   1      30.742  17.071   5.863  0.00  0.00     0.002 A 
HETATM   17  C   UNK N   1      32.100  17.200   6.255  0.00  0.00     0.000 A 
HETATM   18  C   UNK N   1      30.408  17.005   4.482  0.00  0.00     0.040 A 
HETATM   19  C   UNK N   1      33.107  17.265   5.287  0.00  0.00     0.014 A 
HETATM   20  C   UNK N   1      32.788  17.201   3.940  0.00  0.00     0.003 A 
HETATM   21  C   UNK N   1      31.461  17.072   3.545  0.00  0.00     0.030 A 
BRANCH  18  22
HETATM   22  N   UNK N   1      29.063  16.870   3.986  0.00  0.00    -0.389 N 
HETATM   23  C   UNK N   1      28.595  15.597   3.503  0.00  0.00     0.149 C 
HETATM   24  C   UNK N   1      28.126  17.968   3.934  0.00  0.00     0.149 C 
ENDBRANCH  18  22
ENDBRANCH   9  12
ENDBRANCH   8   9
ENDBRANCH   5   8
ENDBRANCH   1   2
BRANCH   1  25
HETATM   25  C   UNK N   1      36.350  11.028  11.578  0.00  0.00     0.195 C 
BRANCH  25  26
HETATM   26  C   UNK N   1      36.984   9.658  11.801  0.00  0.00     0.164 C 
HETATM   27  O   UNK N   1      38.155   9.571  12.135  0.00  0.00    -0.648 OA
BRANCH  26  28
HETATM   28  O   UNK N   1      36.271   8.530  11.593  0.00  0.00    -0.775 OA
HETATM   29  H   UNK N   1      35.781   7.901  11.100  0.00  0.00     0.167 HD
ENDBRANCH  26  28
ENDBRANCH  25  26
BRANCH  25  30
HETATM   30  N   UNK N   1      35.180  11.157  12.459  0.00  0.00    -0.300 N 
HETATM   31  H   UNK N   1      34.274  10.719  12.289  0.00  0.00     0.173 HD
BRANCH  30  32
HETATM   32  S   UNK N   1      35.554  12.165  13.844  0.00  0.00     0.260 S 
HETATM   33  O   UNK N   1      36.967  12.688  13.538  0.00  0.00    -0.200 OA
HETATM   34  O   UNK N   1      34.646  13.395  13.699  0.00  0.00    -0.200 OA
BRANCH  32  35
HETATM   35  C   UNK N   1      35.384  11.187  15.322  0.00  0.00     0.090 A 
HETATM   36  C   UNK N   1      35.408   9.797  15.189  0.00  0.00     0.026 A 
HETATM   37  C   UNK N   1      35.385   8.980  16.310  0.00  0.00     0.003 A 
HETATM   38  C   UNK N   1      35.363   9.552  17.579  0.00  0.00     0.014 A 
HETATM   39  C   UNK N   1      35.338  10.948  17.752  0.00  0.00     0.002 A 
HETATM   40  C   UNK N   1      35.334  11.771  16.595  0.00  0.00    -0.000 A 
HETATM   41  C   UNK N   1      35.337  11.550  19.045  0.00  0.00     0.040 A 
HETATM   42  C   UNK N   1      35.305  13.163  16.724  0.00  0.00     0.014 A 
HETATM   43  C   UNK N   1      35.271  13.752  17.978  0.00  0.00     0.003 A 
HETATM   44  C   UNK N   1      35.292  12.958  19.120  0.00  0.00     0.030 A 
BRANCH  41  45
HETATM   45  N   UNK N   1      35.401  10.805  20.276  0.00  0.00    -0.389 N 
HETATM   46  C   UNK N   1      36.678  10.429  20.825  0.00  0.00     0.149 C 
HETATM   47  C   UNK N   1      34.230  10.328  20.970  0.00  0.00     0.149 C 
ENDBRANCH  41  45
ENDBRANCH  32  35
ENDBRANCH  30  32
ENDBRANCH  25  30
ENDBRANCH   1  25
TORSDOF 12
ENDMDL
MODEL 5
REMARK VINA RESULT:      -9.2      8.182     13.509
REMARK  12 active torsions:
REMARK  status: ('A' for Active; 'I' for Inactive)
REMARK    1  A    between atoms: C_22  and  C_21 
REMARK    2  A    between atoms: C_28  and  C_21 
REMARK    3  A    between atoms: O_43  and  C_23 
REMARK    4  A    between atoms: C_33  and  C_28 
REMARK    5  A    between atoms: C_28  and  N_34 
REMARK    6  A    between atoms: N_35  and  C_29 
REMARK    7  A    between atoms: N_36  and  C_30 
REMARK    8  A    between atoms: S_44  and  C_31 
REMARK    9  A    between atoms: S_45  and  C_32 
REMARK   10  A    between atoms: O_38  and  C_33 
REMARK   11  A    between atoms: S_44  and  N_34 
REMARK   12  A    between atoms: S_45  and  O_43 
ROOT
HETATM    1  C   UNK N   1      21.099  18.287   4.079  0.00  0.00     0.075 C 
ENDROOT
BRANCH   1   2
HETATM    2  C   UNK N   1      22.550  18.024   3.903  0.00  0.00    -0.056 C 
HETATM    3  C   UNK N   1      23.064  16.845   4.456  0.00  0.00     0.010 C 
HETATM    4  C   UNK N   1      24.340  16.832   4.991  0.00  0.00     0.039 C 
HETATM    5  C   UNK N   1      25.113  17.987   4.946  0.00  0.00     0.089 C 
HETATM    6  C   UNK N   1      24.659  19.115   4.246  0.00  0.00     0.039 C 
HETATM    7  C   UNK N   1      23.365  19.144   3.749  0.00  0.00     0.010 C 
BRANCH   5   8
HETATM    8  O   UNK N   1      26.285  18.004   5.599  0.00  0.00    -0.229 OA
BRANCH   8   9
HETATM    9  S   UNK N   1      27.732  17.828   4.765  0.00  0.00     0.303 S 
HETATM   10  O   UNK N   1      27.520  16.684   3.759  0.00  0.00    -0.193 OA
HETATM   11  O   UNK N   1      27.841  19.098   3.909  0.00  0.00    -0.193 OA
BRANCH   9  12
HETATM   12  C   UNK N   1      29.000  17.598   5.991  0.00  0.00     0.098 A 
HETATM   13  C   UNK N   1      28.598  17.525   7.331  0.00  0.00     0.027 A 
HETATM   14  C   UNK N   1      29.530  17.357   8.342  0.00  0.00     0.003 A 
HETATM   15  C   UNK N   1      30.878  17.266   8.023  0.00  0.00     0.014 A 
HETATM   16  C   UNK N   1      31.321  17.337   6.687  0.00  0.00     0.002 A 
HETATM   17  C   UNK N   1      30.353  17.505   5.663  0.00  0.00     0.000 A 
HETATM   18  C   UNK N   1      32.699  17.251   6.349  0.00  0.00     0.040 A 
HETATM   19  C   UNK N   1      30.751  17.583   4.325  0.00  0.00     0.014 A 
HETATM   20  C   UNK N   1      32.093  17.498   3.989  0.00  0.00     0.003 A 
HETATM   21  C   UNK N   1      33.051  17.337   4.984  0.00  0.00     0.030 A 
BRANCH  18  22
HETATM   22  N   UNK N   1      33.755  17.085   7.314  0.00  0.00    -0.389 N 
HETATM   23  C   UNK N   1      34.204  15.765   7.674  0.00  0.00     0.149 C 
HETATM   24  C   UNK N   1      34.408  18.194   7.970  0.00  0.00     0.149 C 
ENDBRANCH  18  22
ENDBRANCH   9  12
ENDBRANCH   8   9
ENDBRANCH   5   8
ENDBRANCH   1   2
BRANCH   1  25
HETATM   25  C   UNK N   1      20.349  17.191   3.262  0.00  0.00     0.195 C 
BRANCH  25  26
HETATM   26  C   UNK N   1      19.691  17.736   1.997  0.00  0.00     0.164 C 
HETATM   27  O   UNK N   1      20.140  17.449   0.900  0.00  0.00    -0.648 OA
BRANCH  26  28
HETATM   28  O   UNK N   1      18.631  18.570   2.080  0.00  0.00    -0.775 OA
HETATM   29  H   UNK N   1      17.762  18.836   2.310  0.00  0.00     0.167 HD
ENDBRANCH  26  28
ENDBRANCH  25  26
BRANCH  25  30
HETATM   30  N   UNK N   1      19.308  16.614   4.126  0.00  0.00    -0.300 N 
HETATM   31  H   UNK N   1      18.469  17.107   4.433  0.00  0.00     0.173 HD
BRANCH  30  32
HETATM   32  S   UNK N   1      19.707  14.962   4.558  0.00  0.00     0.260 S 
HETATM   33  O   UNK N   1      18.388  14.204   4.339  0.00  0.00    -0.200 OA
HETATM   34  O   UNK N   1      20.629  14.468   3.435  0.00  0.00    -0.200 OA
BRANCH  32  35
HETATM   35  C   UNK N   1      20.351  14.948   6.218  0.00  0.00     0.090 A 
HETATM   36  C   UNK N   1      20.147  16.084   7.005  0.00  0.00     0.026 A 
HETATM   37  C   UNK N   1      20.532  16.097   8.338  0.00  0.00     0.003 A 
HETATM   38  C   UNK N   1      21.103  14.960   8.902  0.00  0.00     0.014 A 
HETATM   39  C   UNK N   1      21.324  13.798   8.140  0.00  0.00     0.002 A 
HETATM   40  C   UNK N   1      20.951  13.808   6.770  0.00  0.00    -0.000 A 
HETATM   41  C   UNK N   1      21.889  12.618   8.707  0.00  0.00     0.040 A 
HETATM   42  C   UNK N   1      21.158  12.675   5.978  0.00  0.00     0.014 A 
HETATM   43  C   UNK N   1      21.736  11.537   6.517  0.00  0.00     0.003 A 
HETATM   44  C   UNK N   1      22.091  11.507   7.862  0.00  0.00     0.030 A 
BRANCH  41  45
HETATM   45  N   UNK N   1      22.244  12.488  10.097  0.00  0.00    -0.389 N 
HETATM   46  C   UNK N   1      21.218  12.288  11.088  0.00  0.00     0.149 C 
HETATM   47  C   UNK N   1      23.595  12.630  10.582  0.00  0.00     0.149 C 
ENDBRANCH  41  45
ENDBRANCH  32  35
ENDBRANCH  30  32
ENDBRANCH  25  30
ENDBRANCH   1  25
TORSDOF 12
ENDMDL
MODEL 6
REMARK VINA RESULT:      -9.2     19.016     22.070
REMARK  12 active torsions:
REMARK  status: ('A' for Active; 'I' for Inactive)
REMARK    1  A    between atoms: C_22  and  C_21 
REMARK    2  A    between atoms: C_28  and  C_21 
REMARK    3  A    between atoms: O_43  and  C_23 
REMARK    4  A    between atoms: C_33  and  C_28 
REMARK    5  A    between atoms: C_28  and  N_34 
REMARK    6  A    between atoms: N_35  and  C_29 
REMARK    7  A    between atoms: N_36  and  C_30 
REMARK    8  A    between atoms: S_44  and  C_31 
REMARK    9  A    between atoms: S_45  and  C_32 
REMARK   10  A    between atoms: O_38  and  C_33 
REMARK   11  A    between atoms: S_44  and  N_34 
REMARK   12  A    between atoms: S_45  and  O_43 
ROOT
HETATM    1  C   UNK N   1      26.212  22.956  -7.274  0.00  0.00     0.075 C 
ENDROOT
BRANCH   1   2
HETATM    2  C   UNK N   1      27.562  23.074  -6.664  0.00  0.00    -0.056 C 
HETATM    3  C   UNK N   1      28.505  22.093  -6.991  0.00  0.00     0.010 C 
HETATM    4  C   UNK N   1      29.418  21.670  -6.042  0.00  0.00     0.039 C 
HETATM    5  C   UNK N   1      29.409  22.247  -4.777  0.00  0.00     0.089 C 
HETATM    6  C   UNK N   1      28.574  23.341  -4.505  0.00  0.00     0.039 C 
HETATM    7  C   UNK N   1      27.629  23.736  -5.440  0.00  0.00     0.010 C 
BRANCH   5   8
HETATM    8  O   UNK N   1      30.195  21.725  -3.823  0.00  0.00    -0.229 OA
BRANCH   8   9
HETATM    9  S   UNK N   1      31.278  22.694  -2.982  0.00  0.00     0.303 S 
HETATM   10  O   UNK N   1      30.462  23.427  -1.904  0.00  0.00    -0.193 OA
HETATM   11  O   UNK N   1      32.163  21.705  -2.211  0.00  0.00    -0.193 OA
BRANCH   9  12
HETATM   12  C   UNK N   1      32.102  23.705  -4.193  0.00  0.00     0.098 A 
HETATM   13  C   UNK N   1      33.087  23.096  -4.981  0.00  0.00     0.027 A 
HETATM   14  C   UNK N   1      33.779  23.821  -5.937  0.00  0.00     0.003 A 
HETATM   15  C   UNK N   1      33.495  25.169  -6.112  0.00  0.00     0.014 A 
HETATM   16  C   UNK N   1      32.512  25.817  -5.337  0.00  0.00     0.002 A 
HETATM   17  C   UNK N   1      31.810  25.058  -4.365  0.00  0.00     0.000 A 
HETATM   18  C   UNK N   1      32.216  27.198  -5.504  0.00  0.00     0.040 A 
HETATM   19  C   UNK N   1      30.828  25.664  -3.575  0.00  0.00     0.014 A 
HETATM   20  C   UNK N   1      30.536  27.009  -3.733  0.00  0.00     0.003 A 
HETATM   21  C   UNK N   1      31.219  27.763  -4.680  0.00  0.00     0.030 A 
BRANCH  18  22
HETATM   22  N   UNK N   1      32.876  28.051  -6.458  0.00  0.00    -0.389 N 
HETATM   23  C   UNK N   1      33.989  28.867  -6.050  0.00  0.00     0.149 C 
HETATM   24  C   UNK N   1      32.473  28.148  -7.842  0.00  0.00     0.149 C 
ENDBRANCH  18  22
ENDBRANCH   9  12
ENDBRANCH   8   9
ENDBRANCH   5   8
ENDBRANCH   1   2
BRANCH   1  25
HETATM   25  C   UNK N   1      26.289  23.670  -8.658  0.00  0.00     0.195 C 
BRANCH  25  26
HETATM   26  C   UNK N   1      26.481  22.700  -9.820  0.00  0.00     0.164 C 
HETATM   27  O   UNK N   1      25.555  21.997 -10.192  0.00  0.00    -0.648 OA
BRANCH  26  28
HETATM   28  O   UNK N   1      27.684  22.581 -10.423  0.00  0.00    -0.775 OA
HETATM   29  H   UNK N   1      28.545  22.844 -10.683  0.00  0.00     0.167 HD
ENDBRANCH  26  28
ENDBRANCH  25  26
BRANCH  25  30
HETATM   30  N   UNK N   1      27.428  24.601  -8.625  0.00  0.00    -0.300 N 
HETATM   31  H   UNK N   1      28.380  24.344  -8.364  0.00  0.00     0.173 HD
BRANCH  30  32
HETATM   32  S   UNK N   1      26.925  26.213  -9.098  0.00  0.00     0.260 S 
HETATM   33  O   UNK N   1      27.517  26.377 -10.507  0.00  0.00    -0.200 OA
HETATM   34  O   UNK N   1      25.410  26.108  -9.323  0.00  0.00    -0.200 OA
BRANCH  32  35
HETATM   35  C   UNK N   1      27.497  27.370  -7.871  0.00  0.00     0.090 A 
HETATM   36  C   UNK N   1      28.549  28.220  -8.219  0.00  0.00     0.026 A 
HETATM   37  C   UNK N   1      28.972  29.213  -7.347  0.00  0.00     0.003 A 
HETATM   38  C   UNK N   1      28.325  29.379  -6.125  0.00  0.00     0.014 A 
HETATM   39  C   UNK N   1      27.262  28.541  -5.741  0.00  0.00     0.002 A 
HETATM   40  C   UNK N   1      26.858  27.512  -6.632  0.00  0.00    -0.000 A 
HETATM   41  C   UNK N   1      26.575  28.711  -4.503  0.00  0.00     0.040 A 
HETATM   42  C   UNK N   1      25.809  26.656  -6.285  0.00  0.00     0.014 A 
HETATM   43  C   UNK N   1      25.160  26.796  -5.069  0.00  0.00     0.003 A 
HETATM   44  C   UNK N   1      25.533  27.811  -4.194  0.00  0.00     0.030 A 
BRANCH  41  45
HETATM   45  N   UNK N   1      26.869  29.760  -3.561  0.00  0.00    -0.389 N 
HETATM   46  C   UNK N   1      26.275  31.062  -3.724  0.00  0.00     0.149 C 
HETATM   47  C   UNK N   1      27.811  29.607  -2.479  0.00  0.00     0.149 C 
ENDBRANCH  41  45
ENDBRANCH  32  35
ENDBRANCH  30  32
ENDBRANCH  25  30
ENDBRANCH   1  25
TORSDOF 12
ENDMDL
MODEL 7
REMARK VINA RESULT:      -9.0     17.380     22.410
REMARK  12 active torsions:
REMARK  status: ('A' for Active; 'I' for Inactive)
REMARK    1  A    between atoms: C_22  and  C_21 
REMARK    2  A    between atoms: C_28  and  C_21 
REMARK    3  A    between atoms: O_43  and  C_23 
REMARK    4  A    between atoms: C_33  and  C_28 
REMARK    5  A    between atoms: C_28  and  N_34 
REMARK    6  A    between atoms: N_35  and  C_29 
REMARK    7  A    between atoms: N_36  and  C_30 
REMARK    8  A    between atoms: S_44  and  C_31 
REMARK    9  A    between atoms: S_45  and  C_32 
REMARK   10  A    between atoms: O_38  and  C_33 
REMARK   11  A    between atoms: S_44  and  N_34 
REMARK   12  A    between atoms: S_45  and  O_43 
ROOT
HETATM    1  C   UNK N   1      30.416  23.434  -4.593  0.00  0.00     0.075 C 
ENDROOT
BRANCH   1   2
HETATM    2  C   UNK N   1      29.942  23.181  -5.978  0.00  0.00    -0.056 C 
HETATM    3  C   UNK N   1      30.280  24.122  -6.957  0.00  0.00     0.010 C 
HETATM    4  C   UNK N   1      29.389  24.408  -7.977  0.00  0.00     0.039 C 
HETATM    5  C   UNK N   1      28.175  23.734  -8.035  0.00  0.00     0.089 C 
HETATM    6  C   UNK N   1      27.911  22.677  -7.151  0.00  0.00     0.039 C 
HETATM    7  C   UNK N   1      28.782  22.420  -6.103  0.00  0.00     0.010 C 
BRANCH   5   8
HETATM    8  O   UNK N   1      27.261  24.126  -8.936  0.00  0.00    -0.229 OA
BRANCH   8   9
HETATM    9  S   UNK N   1      25.826  24.845  -8.442  0.00  0.00     0.303 S 
HETATM   10  O   UNK N   1      25.440  25.849  -9.541  0.00  0.00    -0.193 OA
HETATM   11  O   UNK N   1      24.781  23.725  -8.539  0.00  0.00    -0.193 OA
BRANCH   9  12
HETATM   12  C   UNK N   1      26.122  25.504  -6.816  0.00  0.00     0.098 A 
HETATM   13  C   UNK N   1      25.579  24.809  -5.728  0.00  0.00     0.027 A 
HETATM   14  C   UNK N   1      25.759  25.268  -4.433  0.00  0.00     0.003 A 
HETATM   15  C   UNK N   1      26.480  26.434  -4.213  0.00  0.00     0.014 A 
HETATM   16  C   UNK N   1      27.039  27.161  -5.282  0.00  0.00     0.002 A 
HETATM   17  C   UNK N   1      26.850  26.675  -6.603  0.00  0.00     0.000 A 
HETATM   18  C   UNK N   1      27.776  28.359  -5.070  0.00  0.00     0.040 A 
HETATM   19  C   UNK N   1      27.387  27.369  -7.691  0.00  0.00     0.014 A 
HETATM   20  C   UNK N   1      28.106  28.536  -7.490  0.00  0.00     0.003 A 
HETATM   21  C   UNK N   1      28.296  29.024  -6.202  0.00  0.00     0.030 A 
BRANCH  18  22
HETATM   22  N   UNK N   1      28.018  28.934  -3.772  0.00  0.00    -0.389 N 
HETATM   23  C   UNK N   1      27.027  29.780  -3.160  0.00  0.00     0.149 C 
HETATM   24  C   UNK N   1      29.234  28.713  -3.025  0.00  0.00     0.149 C 
ENDBRANCH  18  22
ENDBRANCH   9  12
ENDBRANCH   8   9
ENDBRANCH   5   8
ENDBRANCH   1   2
BRANCH   1  25
HETATM   25  C   UNK N   1      31.154  22.138  -4.136  0.00  0.00     0.195 C 
BRANCH  25  26
HETATM   26  C   UNK N   1      31.486  22.135  -2.646  0.00  0.00     0.164 C 
HETATM   27  O   UNK N   1      30.903  22.893  -1.887  0.00  0.00    -0.648 OA
BRANCH  26  28
HETATM   28  O   UNK N   1      32.451  21.325  -2.160  0.00  0.00    -0.775 OA
HETATM   29  H   UNK N   1      33.250  20.836  -2.174  0.00  0.00     0.167 HD
ENDBRANCH  26  28
ENDBRANCH  25  26
BRANCH  25  30
HETATM   30  N   UNK N   1      32.406  22.036  -4.900  0.00  0.00    -0.300 N 
HETATM   31  H   UNK N   1      33.081  22.793  -5.012  0.00  0.00     0.173 HD
BRANCH  30  32
HETATM   32  S   UNK N   1      32.582  20.435  -5.592  0.00  0.00     0.260 S 
HETATM   33  O   UNK N   1      34.101  20.285  -5.775  0.00  0.00    -0.200 OA
HETATM   34  O   UNK N   1      32.231  19.467  -4.453  0.00  0.00    -0.200 OA
BRANCH  32  35
HETATM   35  C   UNK N   1      31.602  20.346  -7.077  0.00  0.00     0.090 A 
HETATM   36  C   UNK N   1      30.494  19.496  -7.075  0.00  0.00     0.026 A 
HETATM   37  C   UNK N   1      29.632  19.459  -8.161  0.00  0.00     0.003 A 
HETATM   38  C   UNK N   1      29.860  20.294  -9.252  0.00  0.00     0.014 A 
HETATM   39  C   UNK N   1      30.966  21.162  -9.288  0.00  0.00     0.002 A 
HETATM   40  C   UNK N   1      31.856  21.169  -8.182  0.00  0.00    -0.000 A 
HETATM   41  C   UNK N   1      31.204  22.038 -10.388  0.00  0.00     0.040 A 
HETATM   42  C   UNK N   1      32.970  22.014  -8.182  0.00  0.00     0.014 A 
HETATM   43  C   UNK N   1      33.222  22.843  -9.263  0.00  0.00     0.003 A 
HETATM   44  C   UNK N   1      32.349  22.860 -10.346  0.00  0.00     0.030 A 
BRANCH  41  45
HETATM   45  N   UNK N   1      30.330  22.148 -11.528  0.00  0.00    -0.389 N 
HETATM   46  C   UNK N   1      30.543  21.314 -12.683  0.00  0.00     0.149 C 
HETATM   47  C   UNK N   1      29.273  23.127 -11.620  0.00  0.00     0.149 C 
ENDBRANCH  41  45
ENDBRANCH  32  35
ENDBRANCH  30  32
ENDBRANCH  25  30
ENDBRANCH   1  25
TORSDOF 12
ENDMDL
MODEL 8
REMARK VINA RESULT:      -8.9      7.821     11.870
REMARK  12 active torsions:
REMARK  status: ('A' for Active; 'I' for Inactive)
REMARK    1  A    between atoms: C_22  and  C_21 
REMARK    2  A    between atoms: C_28  and  C_21 
REMARK    3  A    between atoms: O_43  and  C_23 
REMARK    4  A    between atoms: C_33  and  C_28 
REMARK    5  A    between atoms: C_28  and  N_34 
REMARK    6  A    between atoms: N_35  and  C_29 
REMARK    7  A    between atoms: N_36  and  C_30 
REMARK    8  A    between atoms: S_44  and  C_31 
REMARK    9  A    between atoms: S_45  and  C_32 
REMARK   10  A    between atoms: O_38  and  C_33 
REMARK   11  A    between atoms: S_44  and  N_34 
REMARK   12  A    between atoms: S_45  and  O_43 
ROOT
HETATM    1  C   UNK N   1      25.214  12.508   6.738  0.00  0.00     0.075 C 
ENDROOT
BRANCH   1   2
HETATM    2  C   UNK N   1      25.926  13.776   6.436  0.00  0.00    -0.056 C 
HETATM    3  C   UNK N   1      25.419  14.951   7.003  0.00  0.00     0.010 C 
HETATM    4  C   UNK N   1      25.476  16.139   6.297  0.00  0.00     0.039 C 
HETATM    5  C   UNK N   1      26.065  16.161   5.038  0.00  0.00     0.089 C 
HETATM    6  C   UNK N   1      26.717  15.021   4.544  0.00  0.00     0.039 C 
HETATM    7  C   UNK N   1      26.622  13.820   5.230  0.00  0.00     0.010 C 
BRANCH   5   8
HETATM    8  O   UNK N   1      25.979  17.280   4.304  0.00  0.00    -0.229 OA
BRANCH   8   9
HETATM    9  S   UNK N   1      26.971  18.595   4.630  0.00  0.00     0.303 S 
HETATM   10  O   UNK N   1      26.948  19.482   3.374  0.00  0.00    -0.193 OA
HETATM   11  O   UNK N   1      26.212  19.396   5.698  0.00  0.00    -0.193 OA
BRANCH   9  12
HETATM   12  C   UNK N   1      28.548  17.932   5.120  0.00  0.00     0.098 A 
HETATM   13  C   UNK N   1      29.361  17.389   4.117  0.00  0.00     0.027 A 
HETATM   14  C   UNK N   1      30.597  16.845   4.424  0.00  0.00     0.003 A 
HETATM   15  C   UNK N   1      31.032  16.834   5.743  0.00  0.00     0.014 A 
HETATM   16  C   UNK N   1      30.242  17.369   6.779  0.00  0.00     0.002 A 
HETATM   17  C   UNK N   1      28.979  17.926   6.447  0.00  0.00     0.000 A 
HETATM   18  C   UNK N   1      30.674  17.358   8.134  0.00  0.00     0.040 A 
HETATM   19  C   UNK N   1      28.164  18.465   7.447  0.00  0.00     0.014 A 
HETATM   20  C   UNK N   1      28.581  18.458   8.768  0.00  0.00     0.003 A 
HETATM   21  C   UNK N   1      29.814  17.912   9.106  0.00  0.00     0.030 A 
BRANCH  18  22
HETATM   22  N   UNK N   1      31.934  16.812   8.571  0.00  0.00    -0.389 N 
HETATM   23  C   UNK N   1      33.121  17.625   8.543  0.00  0.00     0.149 C 
HETATM   24  C   UNK N   1      32.086  15.457   9.044  0.00  0.00     0.149 C 
ENDBRANCH  18  22
ENDBRANCH   9  12
ENDBRANCH   8   9
ENDBRANCH   5   8
ENDBRANCH   1   2
BRANCH   1  25
HETATM   25  C   UNK N   1      24.025  12.881   7.675  0.00  0.00     0.195 C 
BRANCH  25  26
HETATM   26  C   UNK N   1      24.269  12.496   9.131  0.00  0.00     0.164 C 
HETATM   27  O   UNK N   1      23.840  11.440   9.566  0.00  0.00    -0.648 OA
BRANCH  26  28
HETATM   28  O   UNK N   1      24.925  13.335   9.962  0.00  0.00    -0.775 OA
HETATM   29  H   UNK N   1      25.174  13.710  10.784  0.00  0.00     0.167 HD
ENDBRANCH  26  28
ENDBRANCH  25  26
BRANCH  25  30
HETATM   30  N   UNK N   1      22.829  12.174   7.192  0.00  0.00    -0.300 N 
HETATM   31  H   UNK N   1      22.760  11.163   7.073  0.00  0.00     0.173 HD
BRANCH  30  32
HETATM   32  S   UNK N   1      21.535  13.307   6.850  0.00  0.00     0.260 S 
HETATM   33  O   UNK N   1      20.349  12.400   6.482  0.00  0.00    -0.200 OA
HETATM   34  O   UNK N   1      21.157  13.904   8.213  0.00  0.00    -0.200 OA
BRANCH  32  35
HETATM   35  C   UNK N   1      22.082  14.432   5.583  0.00  0.00     0.090 A 
HETATM   36  C   UNK N   1      22.662  13.885   4.435  0.00  0.00     0.026 A 
HETATM   37  C   UNK N   1      23.015  14.698   3.368  0.00  0.00     0.003 A 
HETATM   38  C   UNK N   1      22.765  16.067   3.431  0.00  0.00     0.014 A 
HETATM   39  C   UNK N   1      22.183  16.651   4.570  0.00  0.00     0.002 A 
HETATM   40  C   UNK N   1      21.853  15.811   5.666  0.00  0.00    -0.000 A 
HETATM   41  C   UNK N   1      21.901  18.047   4.643  0.00  0.00     0.040 A 
HETATM   42  C   UNK N   1      21.277  16.355   6.818  0.00  0.00     0.014 A 
HETATM   43  C   UNK N   1      21.031  17.715   6.906  0.00  0.00     0.003 A 
HETATM   44  C   UNK N   1      21.333  18.548   5.834  0.00  0.00     0.030 A 
BRANCH  41  45
HETATM   45  N   UNK N   1      22.143  18.971   3.565  0.00  0.00    -0.389 N 
HETATM   46  C   UNK N   1      23.410  19.650   3.467  0.00  0.00     0.149 C 
HETATM   47  C   UNK N   1      21.138  19.330   2.594  0.00  0.00     0.149 C 
ENDBRANCH  41  45
ENDBRANCH  32  35
ENDBRANCH  30  32
ENDBRANCH  25  30
ENDBRANCH   1  25
TORSDOF 12
ENDMDL
MODEL 9
REMARK VINA RESULT:      -8.9     17.438     22.079
REMARK  12 active torsions:
REMARK  status: ('A' for Active; 'I' for Inactive)
REMARK    1  A    between atoms: C_22  and  C_21 
REMARK    2  A    between atoms: C_28  and  C_21 
REMARK    3  A    between atoms: O_43  and  C_23 
REMARK    4  A    between atoms: C_33  and  C_28 
REMARK    5  A    between atoms: C_28  and  N_34 
REMARK    6  A    between atoms: N_35  and  C_29 
REMARK    7  A    between atoms: N_36  and  C_30 
REMARK    8  A    between atoms: S_44  and  C_31 
REMARK    9  A    between atoms: S_45  and  C_32 
REMARK   10  A    between atoms: O_38  and  C_33 
REMARK   11  A    between atoms: S_44  and  N_34 
REMARK   12  A    between atoms: S_45  and  O_43 
ROOT
HETATM    1  C   UNK N   1      30.659  24.138  -5.431  0.00  0.00     0.075 C 
ENDROOT
BRANCH   1   2
HETATM    2  C   UNK N   1      30.074  23.297  -6.507  0.00  0.00    -0.056 C 
HETATM    3  C   UNK N   1      30.171  23.771  -7.820  0.00  0.00     0.010 C 
HETATM    4  C   UNK N   1      29.143  23.538  -8.716  0.00  0.00     0.039 C 
HETATM    5  C   UNK N   1      28.032  22.807  -8.310  0.00  0.00     0.089 C 
HETATM    6  C   UNK N   1      28.013  22.195  -7.047  0.00  0.00     0.039 C 
HETATM    7  C   UNK N   1      29.021  22.464  -6.134  0.00  0.00     0.010 C 
BRANCH   5   8
HETATM    8  O   UNK N   1      26.980  22.717  -9.137  0.00  0.00    -0.229 OA
BRANCH   8   9
HETATM    9  S   UNK N   1      25.741  23.848  -9.072  0.00  0.00     0.303 S 
HETATM   10  O   UNK N   1      25.247  24.038 -10.516  0.00  0.00    -0.193 OA
HETATM   11  O   UNK N   1      24.596  23.124  -8.350  0.00  0.00    -0.193 OA
BRANCH   9  12
HETATM   12  C   UNK N   1      26.404  25.282  -8.253  0.00  0.00     0.098 A 
HETATM   13  C   UNK N   1      27.001  26.265  -9.052  0.00  0.00     0.027 A 
HETATM   14  C   UNK N   1      27.549  27.403  -8.484  0.00  0.00     0.003 A 
HETATM   15  C   UNK N   1      27.510  27.568  -7.106  0.00  0.00     0.014 A 
HETATM   16  C   UNK N   1      26.921  26.600  -6.269  0.00  0.00     0.002 A 
HETATM   17  C   UNK N   1      26.360  25.441  -6.868  0.00  0.00     0.000 A 
HETATM   18  C   UNK N   1      26.880  26.754  -4.856  0.00  0.00     0.040 A 
HETATM   19  C   UNK N   1      25.768  24.455  -6.072  0.00  0.00     0.014 A 
HETATM   20  C   UNK N   1      25.725  24.602  -4.695  0.00  0.00     0.003 A 
HETATM   21  C   UNK N   1      26.273  25.731  -4.097  0.00  0.00     0.030 A 
BRANCH  18  22
HETATM   22  N   UNK N   1      27.424  27.890  -4.156  0.00  0.00    -0.389 N 
HETATM   23  C   UNK N   1      28.828  27.939  -3.840  0.00  0.00     0.149 C 
HETATM   24  C   UNK N   1      26.623  29.014  -3.732  0.00  0.00     0.149 C 
ENDBRANCH  18  22
ENDBRANCH   9  12
ENDBRANCH   8   9
ENDBRANCH   5   8
ENDBRANCH   1   2
BRANCH   1  25
HETATM   25  C   UNK N   1      30.891  23.195  -4.211  0.00  0.00     0.195 C 
BRANCH  25  26
HETATM   26  C   UNK N   1      30.654  23.884  -2.870  0.00  0.00     0.164 C 
HETATM   27  O   UNK N   1      30.594  25.101  -2.808  0.00  0.00    -0.648 OA
BRANCH  26  28
HETATM   28  O   UNK N   1      30.546  23.159  -1.736  0.00  0.00    -0.775 OA
HETATM   29  H   UNK N   1      30.479  23.012  -0.812  0.00  0.00     0.167 HD
ENDBRANCH  26  28
ENDBRANCH  25  26
BRANCH  25  30
HETATM   30  N   UNK N   1      32.284  22.725  -4.261  0.00  0.00    -0.300 N 
HETATM   31  H   UNK N   1      33.075  23.285  -4.581  0.00  0.00     0.173 HD
BRANCH  30  32
HETATM   32  S   UNK N   1      32.401  21.070  -3.694  0.00  0.00     0.260 S 
HETATM   33  O   UNK N   1      32.890  21.219  -2.244  0.00  0.00    -0.200 OA
HETATM   34  O   UNK N   1      30.949  20.589  -3.566  0.00  0.00    -0.200 OA
BRANCH  32  35
HETATM   35  C   UNK N   1      33.473  20.166  -4.792  0.00  0.00     0.090 A 
HETATM   36  C   UNK N   1      34.696  19.719  -4.285  0.00  0.00     0.026 A 
HETATM   37  C   UNK N   1      35.530  18.923  -5.056  0.00  0.00     0.003 A 
HETATM   38  C   UNK N   1      35.133  18.544  -6.335  0.00  0.00     0.014 A 
HETATM   39  C   UNK N   1      33.909  18.976  -6.878  0.00  0.00     0.002 A 
HETATM   40  C   UNK N   1      33.079  19.814  -6.089  0.00  0.00    -0.000 A 
HETATM   41  C   UNK N   1      33.479  18.581  -8.179  0.00  0.00     0.040 A 
HETATM   42  C   UNK N   1      31.857  20.267  -6.595  0.00  0.00     0.014 A 
HETATM   43  C   UNK N   1      31.449  19.913  -7.871  0.00  0.00     0.003 A 
HETATM   44  C   UNK N   1      32.245  19.078  -8.648  0.00  0.00     0.030 A 
BRANCH  41  45
HETATM   45  N   UNK N   1      34.220  17.687  -9.032  0.00  0.00    -0.389 N 
HETATM   46  C   UNK N   1      35.139  18.218 -10.006  0.00  0.00     0.149 C 
HETATM   47  C   UNK N   1      34.033  16.257  -9.027  0.00  0.00     0.149 C 
ENDBRANCH  41  45
ENDBRANCH  32  35
ENDBRANCH  30  32
ENDBRANCH  25  30
ENDBRANCH   1  25
TORSDOF 12
ENDMDL
