MODEL 1
REMARK VINA RESULT:      -4.4      0.000      0.000
REMARK  7 active torsions:
REMARK  status: ('A' for Active; 'I' for Inactive)
REMARK    1  A    between atoms: C_2  and  C_1 
REMARK    2  A    between atoms: P_10  and  C_1 
REMARK    3  A    between atoms: C_3  and  C_2 
REMARK    4  A    between atoms: C_2  and  N_4 
REMARK    5  A    between atoms: O_6  and  C_3 
REMARK    6  A    between atoms: P_10  and  O_7 
REMARK    7  A    between atoms: P_10  and  O_8 
ROOT
HETATM    1  C   UNK N   1      34.601  16.923   9.079  0.00  0.00     0.184 C 
ENDROOT
BRANCH   1   2
HETATM    2  C   UNK N   1      33.207  16.299   9.095  0.00  0.00     0.160 C 
BRANCH   2   3
HETATM    3  P   UNK N   1      33.305  14.433   9.194  0.00  0.00     0.238 P 
HETATM    4  O   UNK N   1      34.791  14.836   8.991  0.00  0.00    -0.653 OA
BRANCH   3   5
HETATM    5  O   UNK N   1      33.983  13.373  10.388  0.00  0.00    -0.329 OA
HETATM    6  H   UNK N   1      34.492  13.670  11.158  0.00  0.00     0.220 HD
ENDBRANCH   3   5
BRANCH   3   7
HETATM    7  O   UNK N   1      32.918  15.173  10.715  0.00  0.00    -0.329 OA
HETATM    8  H   UNK N   1      33.424  15.678  11.371  0.00  0.00     0.220 HD
ENDBRANCH   3   7
ENDBRANCH   2   3
ENDBRANCH   1   2
BRANCH   1   9
HETATM    9  C   UNK N   1      34.625  18.146   8.198  0.00  0.00     0.163 C 
HETATM   10  O   UNK N   1      34.014  18.172   7.148  0.00  0.00    -0.648 OA
BRANCH   9  11
HETATM   11  O   UNK N   1      35.317  19.236   8.594  0.00  0.00    -0.775 OA
HETATM   12  H   UNK N   1      34.972  19.894   9.166  0.00  0.00     0.167 HD
ENDBRANCH   9  11
ENDBRANCH   1   9
BRANCH   1  13
HETATM   13  N   UNK N   1      35.011  17.274  10.434  0.00  0.00    -0.417 N 
HETATM   14  H   UNK N   1      35.547  18.116  10.648  0.00  0.00     0.150 HD
HETATM   15  H   UNK N   1      34.752  16.652  11.200  0.00  0.00     0.150 HD
ENDBRANCH   1  13
TORSDOF 7
ENDMDL
MODEL 2
REMARK VINA RESULT:      -4.3      3.120      3.701
REMARK  7 active torsions:
REMARK  status: ('A' for Active; 'I' for Inactive)
REMARK    1  A    between atoms: C_2  and  C_1 
REMARK    2  A    between atoms: P_10  and  C_1 
REMARK    3  A    between atoms: C_3  and  C_2 
REMARK    4  A    between atoms: C_2  and  N_4 
REMARK    5  A    between atoms: O_6  and  C_3 
REMARK    6  A    between atoms: P_10  and  O_7 
REMARK    7  A    between atoms: P_10  and  O_8 
ROOT
HETATM    1  C   UNK N   1      34.845  15.050  11.427  0.00  0.00     0.184 C 
ENDROOT
BRANCH   1   2
HETATM    2  C   UNK N   1      35.525  13.717  11.122  0.00  0.00     0.160 C 
BRANCH   2   3
HETATM    3  P   UNK N   1      35.442  12.566  12.595  0.00  0.00     0.238 P 
HETATM    4  O   UNK N   1      34.974  13.917  13.200  0.00  0.00    -0.653 OA
BRANCH   3   5
HETATM    5  O   UNK N   1      34.099  11.945  13.502  0.00  0.00    -0.329 OA
HETATM    6  H   UNK N   1      34.155  11.206  14.128  0.00  0.00     0.220 HD
ENDBRANCH   3   5
BRANCH   3   7
HETATM    7  O   UNK N   1      34.217  12.239  11.410  0.00  0.00    -0.329 OA
HETATM    8  H   UNK N   1      33.316  12.565  11.258  0.00  0.00     0.220 HD
ENDBRANCH   3   7
ENDBRANCH   2   3
ENDBRANCH   1   2
BRANCH   1   9
HETATM    9  C   UNK N   1      35.667  16.197  10.901  0.00  0.00     0.163 C 
HETATM   10  O   UNK N   1      35.139  17.228  10.533  0.00  0.00    -0.648 OA
BRANCH   9  11
HETATM   11  O   UNK N   1      37.013  16.087  10.859  0.00  0.00    -0.775 OA
HETATM   12  H   UNK N   1      37.584  16.774  10.577  0.00  0.00     0.167 HD
ENDBRANCH   9  11
ENDBRANCH   1   9
BRANCH   1  13
HETATM   13  N   UNK N   1      33.510  15.080  10.838  0.00  0.00    -0.417 N 
HETATM   14  H   UNK N   1      33.057  15.945  10.542  0.00  0.00     0.150 HD
HETATM   15  H   UNK N   1      33.008  14.199  10.719  0.00  0.00     0.150 HD
ENDBRANCH   1  13
TORSDOF 7
ENDMDL
MODEL 3
REMARK VINA RESULT:      -4.0      2.159      4.195
REMARK  7 active torsions:
REMARK  status: ('A' for Active; 'I' for Inactive)
REMARK    1  A    between atoms: C_2  and  C_1 
REMARK    2  A    between atoms: P_10  and  C_1 
REMARK    3  A    between atoms: C_3  and  C_2 
REMARK    4  A    between atoms: C_2  and  N_4 
REMARK    5  A    between atoms: O_6  and  C_3 
REMARK    6  A    between atoms: P_10  and  O_7 
REMARK    7  A    between atoms: P_10  and  O_8 
ROOT
HETATM    1  C   UNK N   1      34.194  15.789   9.683  0.00  0.00     0.184 C 
ENDROOT
BRANCH   1   2
HETATM    2  C   UNK N   1      34.729  17.173   9.323  0.00  0.00     0.160 C 
BRANCH   2   3
HETATM    3  P   UNK N   1      33.835  17.876   7.837  0.00  0.00     0.238 P 
HETATM    4  O   UNK N   1      35.022  18.861   8.009  0.00  0.00    -0.653 OA
BRANCH   3   5
HETATM    5  O   UNK N   1      34.278  17.977   6.163  0.00  0.00    -0.329 OA
HETATM    6  H   UNK N   1      34.143  18.760   5.606  0.00  0.00     0.220 HD
ENDBRANCH   3   5
BRANCH   3   7
HETATM    7  O   UNK N   1      34.636  16.375   7.498  0.00  0.00    -0.329 OA
HETATM    8  H   UNK N   1      35.549  16.057   7.590  0.00  0.00     0.220 HD
ENDBRANCH   3   7
ENDBRANCH   2   3
ENDBRANCH   1   2
BRANCH   1   9
HETATM    9  C   UNK N   1      34.685  15.369  11.044  0.00  0.00     0.163 C 
HETATM   10  O   UNK N   1      35.614  15.942  11.578  0.00  0.00    -0.648 OA
BRANCH   9  11
HETATM   11  O   UNK N   1      34.069  14.354  11.688  0.00  0.00    -0.775 OA
HETATM   12  H   UNK N   1      33.138  14.263  11.748  0.00  0.00     0.167 HD
ENDBRANCH   9  11
ENDBRANCH   1   9
BRANCH   1  13
HETATM   13  N   UNK N   1      32.735  15.790   9.655  0.00  0.00    -0.417 N 
HETATM   14  H   UNK N   1      32.200  15.770   8.787  0.00  0.00     0.150 HD
HETATM   15  H   UNK N   1      32.229  15.812  10.541  0.00  0.00     0.150 HD
ENDBRANCH   1  13
TORSDOF 7
ENDMDL
MODEL 4
REMARK VINA RESULT:      -4.0      2.064      4.222
REMARK  7 active torsions:
REMARK  status: ('A' for Active; 'I' for Inactive)
REMARK    1  A    between atoms: C_2  and  C_1 
REMARK    2  A    between atoms: P_10  and  C_1 
REMARK    3  A    between atoms: C_3  and  C_2 
REMARK    4  A    between atoms: C_2  and  N_4 
REMARK    5  A    between atoms: O_6  and  C_3 
REMARK    6  A    between atoms: P_10  and  O_7 
REMARK    7  A    between atoms: P_10  and  O_8 
ROOT
HETATM    1  C   UNK N   1      32.521  15.570   8.560  0.00  0.00     0.184 C 
ENDROOT
BRANCH   1   2
HETATM    2  C   UNK N   1      33.671  16.271   7.840  0.00  0.00     0.160 C 
BRANCH   2   3
HETATM    3  P   UNK N   1      33.746  18.084   8.296  0.00  0.00     0.238 P 
HETATM    4  O   UNK N   1      34.562  17.419   9.436  0.00  0.00    -0.653 OA
BRANCH   3   5
HETATM    5  O   UNK N   1      35.058  19.218   8.312  0.00  0.00    -0.329 OA
HETATM    6  H   UNK N   1      35.181  19.904   8.987  0.00  0.00     0.220 HD
ENDBRANCH   3   5
BRANCH   3   7
HETATM    7  O   UNK N   1      34.683  17.700   6.887  0.00  0.00    -0.329 OA
HETATM    8  H   UNK N   1      34.467  17.502   5.962  0.00  0.00     0.220 HD
ENDBRANCH   3   7
ENDBRANCH   2   3
ENDBRANCH   1   2
BRANCH   1   9
HETATM    9  C   UNK N   1      33.049  14.627   9.610  0.00  0.00     0.163 C 
HETATM   10  O   UNK N   1      33.448  13.518   9.312  0.00  0.00    -0.648 OA
BRANCH   9  11
HETATM   11  O   UNK N   1      33.101  15.029  10.899  0.00  0.00    -0.775 OA
HETATM   12  H   UNK N   1      33.427  14.497  11.599  0.00  0.00     0.167 HD
ENDBRANCH   9  11
ENDBRANCH   1   9
BRANCH   1  13
HETATM   13  N   UNK N   1      31.635  16.554   9.171  0.00  0.00    -0.417 N 
HETATM   14  H   UNK N   1      30.904  17.038   8.649  0.00  0.00     0.150 HD
HETATM   15  H   UNK N   1      31.751  16.768  10.162  0.00  0.00     0.150 HD
ENDBRANCH   1  13
TORSDOF 7
ENDMDL
MODEL 5
REMARK VINA RESULT:      -3.9      1.753      4.144
REMARK  7 active torsions:
REMARK  status: ('A' for Active; 'I' for Inactive)
REMARK    1  A    between atoms: C_2  and  C_1 
REMARK    2  A    between atoms: P_10  and  C_1 
REMARK    3  A    between atoms: C_3  and  C_2 
REMARK    4  A    between atoms: C_2  and  N_4 
REMARK    5  A    between atoms: O_6  and  C_3 
REMARK    6  A    between atoms: P_10  and  O_7 
REMARK    7  A    between atoms: P_10  and  O_8 
ROOT
HETATM    1  C   UNK N   1      34.041  16.375   9.428  0.00  0.00     0.184 C 
ENDROOT
BRANCH   1   2
HETATM    2  C   UNK N   1      34.662  16.294   8.035  0.00  0.00     0.160 C 
BRANCH   2   3
HETATM    3  P   UNK N   1      33.614  17.198   6.776  0.00  0.00     0.238 P 
HETATM    4  O   UNK N   1      34.519  18.330   7.332  0.00  0.00    -0.653 OA
BRANCH   3   5
HETATM    5  O   UNK N   1      34.010  17.927   5.253  0.00  0.00    -0.329 OA
HETATM    6  H   UNK N   1      33.518  18.660   4.851  0.00  0.00     0.220 HD
ENDBRANCH   3   5
BRANCH   3   7
HETATM    7  O   UNK N   1      34.762  16.117   6.052  0.00  0.00    -0.329 OA
HETATM    8  H   UNK N   1      35.547  15.646   6.374  0.00  0.00     0.220 HD
ENDBRANCH   3   7
ENDBRANCH   2   3
ENDBRANCH   1   2
BRANCH   1   9
HETATM    9  C   UNK N   1      33.863  14.996  10.011  0.00  0.00     0.163 C 
HETATM   10  O   UNK N   1      34.125  14.004   9.359  0.00  0.00    -0.648 OA
BRANCH   9  11
HETATM   11  O   UNK N   1      33.428  14.863  11.282  0.00  0.00    -0.775 OA
HETATM   12  H   UNK N   1      33.404  14.047  11.743  0.00  0.00     0.167 HD
ENDBRANCH   9  11
ENDBRANCH   1   9
BRANCH   1  13
HETATM   13  N   UNK N   1      34.878  17.185  10.306  0.00  0.00    -0.417 N 
HETATM   14  H   UNK N   1      35.266  16.830  11.181  0.00  0.00     0.150 HD
HETATM   15  H   UNK N   1      35.083  18.147  10.036  0.00  0.00     0.150 HD
ENDBRANCH   1  13
TORSDOF 7
ENDMDL
MODEL 6
REMARK VINA RESULT:      -3.9      2.286      3.778
REMARK  7 active torsions:
REMARK  status: ('A' for Active; 'I' for Inactive)
REMARK    1  A    between atoms: C_2  and  C_1 
REMARK    2  A    between atoms: P_10  and  C_1 
REMARK    3  A    between atoms: C_3  and  C_2 
REMARK    4  A    between atoms: C_2  and  N_4 
REMARK    5  A    between atoms: O_6  and  C_3 
REMARK    6  A    between atoms: P_10  and  O_7 
REMARK    7  A    between atoms: P_10  and  O_8 
ROOT
HETATM    1  C   UNK N   1      34.130  15.922   9.607  0.00  0.00     0.184 C 
ENDROOT
BRANCH   1   2
HETATM    2  C   UNK N   1      33.546  17.038   8.743  0.00  0.00     0.160 C 
BRANCH   2   3
HETATM    3  P   UNK N   1      33.930  16.760   6.933  0.00  0.00     0.238 P 
HETATM    4  O   UNK N   1      32.419  17.118   6.904  0.00  0.00    -0.653 OA
BRANCH   3   5
HETATM    5  O   UNK N   1      33.991  17.849   5.584  0.00  0.00    -0.329 OA
HETATM    6  H   UNK N   1      33.722  18.780   5.619  0.00  0.00     0.220 HD
ENDBRANCH   3   5
BRANCH   3   7
HETATM    7  O   UNK N   1      34.649  18.207   7.563  0.00  0.00    -0.329 OA
HETATM    8  H   UNK N   1      35.045  18.998   7.163  0.00  0.00     0.220 HD
ENDBRANCH   3   7
ENDBRANCH   2   3
ENDBRANCH   1   2
BRANCH   1   9
HETATM    9  C   UNK N   1      35.157  16.473  10.562  0.00  0.00     0.163 C 
HETATM   10  O   UNK N   1      35.484  15.852  11.555  0.00  0.00    -0.648 OA
BRANCH   9  11
HETATM   11  O   UNK N   1      35.739  17.663  10.299  0.00  0.00    -0.775 OA
HETATM   12  H   UNK N   1      35.351  18.326   9.761  0.00  0.00     0.167 HD
ENDBRANCH   9  11
ENDBRANCH   1   9
BRANCH   1  13
HETATM   13  N   UNK N   1      33.067  15.251  10.348  0.00  0.00    -0.417 N 
HETATM   14  H   UNK N   1      32.104  15.205  10.012  0.00  0.00     0.150 HD
HETATM   15  H   UNK N   1      33.295  14.808  11.238  0.00  0.00     0.150 HD
ENDBRANCH   1  13
TORSDOF 7
ENDMDL
MODEL 7
REMARK VINA RESULT:      -3.9      3.776      5.578
REMARK  7 active torsions:
REMARK  status: ('A' for Active; 'I' for Inactive)
REMARK    1  A    between atoms: C_2  and  C_1 
REMARK    2  A    between atoms: P_10  and  C_1 
REMARK    3  A    between atoms: C_3  and  C_2 
REMARK    4  A    between atoms: C_2  and  N_4 
REMARK    5  A    between atoms: O_6  and  C_3 
REMARK    6  A    between atoms: P_10  and  O_7 
REMARK    7  A    between atoms: P_10  and  O_8 
ROOT
HETATM    1  C   UNK N   1      35.720  14.093  12.678  0.00  0.00     0.184 C 
ENDROOT
BRANCH   1   2
HETATM    2  C   UNK N   1      36.259  14.226  11.255  0.00  0.00     0.160 C 
BRANCH   2   3
HETATM    3  P   UNK N   1      35.306  15.516  10.292  0.00  0.00     0.238 P 
HETATM    4  O   UNK N   1      34.411  15.305  11.543  0.00  0.00    -0.653 OA
BRANCH   3   5
HETATM    5  O   UNK N   1      34.980  17.190  10.611  0.00  0.00    -0.329 OA
HETATM    6  H   UNK N   1      34.143  17.635  10.406  0.00  0.00     0.220 HD
ENDBRANCH   3   5
BRANCH   3   7
HETATM    7  O   UNK N   1      36.776  16.132  10.978  0.00  0.00    -0.329 OA
HETATM    8  H   UNK N   1      37.019  16.499  11.843  0.00  0.00     0.220 HD
ENDBRANCH   3   7
ENDBRANCH   2   3
ENDBRANCH   1   2
BRANCH   1   9
HETATM    9  C   UNK N   1      35.458  12.648  13.013  0.00  0.00     0.163 C 
HETATM   10  O   UNK N   1      36.317  11.803  12.855  0.00  0.00    -0.648 OA
BRANCH   9  11
HETATM   11  O   UNK N   1      34.257  12.290  13.518  0.00  0.00    -0.775 OA
HETATM   12  H   UNK N   1      34.024  12.378  14.422  0.00  0.00     0.167 HD
ENDBRANCH   9  11
ENDBRANCH   1   9
BRANCH   1  13
HETATM   13  N   UNK N   1      36.668  14.664  13.630  0.00  0.00    -0.417 N 
HETATM   14  H   UNK N   1      37.360  15.365  13.366  0.00  0.00     0.150 HD
HETATM   15  H   UNK N   1      36.637  14.348  14.599  0.00  0.00     0.150 HD
ENDBRANCH   1  13
TORSDOF 7
ENDMDL
MODEL 8
REMARK VINA RESULT:      -3.8     12.705     13.579
REMARK  7 active torsions:
REMARK  status: ('A' for Active; 'I' for Inactive)
REMARK    1  A    between atoms: C_2  and  C_1 
REMARK    2  A    between atoms: P_10  and  C_1 
REMARK    3  A    between atoms: C_3  and  C_2 
REMARK    4  A    between atoms: C_2  and  N_4 
REMARK    5  A    between atoms: O_6  and  C_3 
REMARK    6  A    between atoms: P_10  and  O_7 
REMARK    7  A    between atoms: P_10  and  O_8 
ROOT
HETATM    1  C   UNK N   1      43.623  22.690   3.185  0.00  0.00     0.184 C 
ENDROOT
BRANCH   1   2
HETATM    2  C   UNK N   1      43.756  22.870   1.675  0.00  0.00     0.160 C 
BRANCH   2   3
HETATM    3  P   UNK N   1      42.095  23.226   0.890  0.00  0.00     0.238 P 
HETATM    4  O   UNK N   1      41.700  22.806   2.332  0.00  0.00    -0.653 OA
BRANCH   3   5
HETATM    5  O   UNK N   1      40.930  24.480   1.171  0.00  0.00    -0.329 OA
HETATM    6  H   UNK N   1      40.989  25.133   1.885  0.00  0.00     0.220 HD
ENDBRANCH   3   5
BRANCH   3   7
HETATM    7  O   UNK N   1      43.038  24.657   1.159  0.00  0.00    -0.329 OA
HETATM    8  H   UNK N   1      43.979  24.828   1.325  0.00  0.00     0.220 HD
ENDBRANCH   3   7
ENDBRANCH   2   3
ENDBRANCH   1   2
BRANCH   1   9
HETATM    9  C   UNK N   1      44.680  21.748   3.702  0.00  0.00     0.163 C 
HETATM   10  O   UNK N   1      44.531  20.543   3.634  0.00  0.00    -0.648 OA
BRANCH   9  11
HETATM   11  O   UNK N   1      45.818  22.250   4.228  0.00  0.00    -0.775 OA
HETATM   12  H   UNK N   1      45.846  22.996   4.794  0.00  0.00     0.167 HD
ENDBRANCH   9  11
ENDBRANCH   1   9
BRANCH   1  13
HETATM   13  N   UNK N   1      43.731  23.981   3.857  0.00  0.00    -0.417 N 
HETATM   14  H   UNK N   1      44.628  24.398   4.110  0.00  0.00     0.150 HD
HETATM   15  H   UNK N   1      42.875  24.487   4.085  0.00  0.00     0.150 HD
ENDBRANCH   1  13
TORSDOF 7
ENDMDL
MODEL 9
REMARK VINA RESULT:      -3.8     11.253     12.567
REMARK  7 active torsions:
REMARK  status: ('A' for Active; 'I' for Inactive)
REMARK    1  A    between atoms: C_2  and  C_1 
REMARK    2  A    between atoms: P_10  and  C_1 
REMARK    3  A    between atoms: C_3  and  C_2 
REMARK    4  A    between atoms: C_2  and  N_4 
REMARK    5  A    between atoms: O_6  and  C_3 
REMARK    6  A    between atoms: P_10  and  O_7 
REMARK    7  A    between atoms: P_10  and  O_8 
ROOT
HETATM    1  C   UNK N   1      41.796  22.564   1.830  0.00  0.00     0.184 C 
ENDROOT
BRANCH   1   2
HETATM    2  C   UNK N   1      42.584  22.103   3.054  0.00  0.00     0.160 C 
BRANCH   2   3
HETATM    3  P   UNK N   1      44.388  22.580   2.913  0.00  0.00     0.238 P 
HETATM    4  O   UNK N   1      43.814  23.705   3.815  0.00  0.00    -0.653 OA
BRANCH   3   5
HETATM    5  O   UNK N   1      45.672  22.599   4.079  0.00  0.00    -0.329 OA
HETATM    6  H   UNK N   1      45.915  23.370   4.615  0.00  0.00     0.220 HD
ENDBRANCH   3   5
BRANCH   3   7
HETATM    7  O   UNK N   1      44.136  21.158   3.876  0.00  0.00    -0.329 OA
HETATM    8  H   UNK N   1      44.433  20.873   4.754  0.00  0.00     0.220 HD
ENDBRANCH   3   7
ENDBRANCH   2   3
ENDBRANCH   1   2
BRANCH   1   9
HETATM    9  C   UNK N   1      40.541  21.746   1.667  0.00  0.00     0.163 C 
HETATM   10  O   UNK N   1      40.174  21.375   0.570  0.00  0.00    -0.648 OA
BRANCH   9  11
HETATM   11  O   UNK N   1      39.826  21.402   2.761  0.00  0.00    -0.775 OA
HETATM   12  H   UNK N   1      38.929  21.638   2.893  0.00  0.00     0.167 HD
ENDBRANCH   9  11
ENDBRANCH   1   9
BRANCH   1  13
HETATM   13  N   UNK N   1      41.459  23.979   1.952  0.00  0.00    -0.417 N 
HETATM   14  H   UNK N   1      42.166  24.714   1.983  0.00  0.00     0.150 HD
HETATM   15  H   UNK N   1      40.476  24.244   2.008  0.00  0.00     0.150 HD
ENDBRANCH   1  13
TORSDOF 7
ENDMDL
