MODEL 1
REMARK VINA RESULT:      -5.5      0.000      0.000
REMARK  2 active torsions:
REMARK  status: ('A' for Active; 'I' for Inactive)
REMARK    1  A    between atoms: N_1  and  C_2 
REMARK    2  A    between atoms: C_3  and  N_10 
ROOT
HETATM    1  C   UNK N   1      33.320  16.380   8.771  0.00  0.00     0.145 A 
HETATM    2  C   UNK N   1      34.431  17.226   8.992  0.00  0.00     0.209 A 
HETATM    3  N   UNK N   1      35.220  17.010  10.077  0.00  0.00    -0.287 N 
HETATM    4  C   UNK N   1      34.968  15.998  10.958  0.00  0.00     0.328 A 
HETATM    5  O   UNK N   1      35.696  15.836  11.918  0.00  0.00    -0.247 OA
HETATM    6  N   UNK N   1      33.898  15.171  10.759  0.00  0.00    -0.273 N 
HETATM    7  C   UNK N   1      33.072  15.346   9.681  0.00  0.00     0.279 A 
HETATM    8  O   UNK N   1      32.124  14.599   9.520  0.00  0.00    -0.265 OA
HETATM    9  H   UNK N   1      35.994  17.599  10.232  0.00  0.00     0.172 HD
HETATM   10  H   UNK N   1      33.720  14.443  11.396  0.00  0.00     0.173 HD
ENDROOT
BRANCH   1  11
HETATM   11  N   UNK N   1      32.464  16.557   7.658  0.00  0.00    -0.391 N 
HETATM   12  H   UNK N   1      32.123  15.773   7.171  0.00  0.00     0.156 HD
HETATM   13  H   UNK N   1      32.211  17.465   7.372  0.00  0.00     0.156 HD
ENDBRANCH   1  11
BRANCH   2  14
HETATM   14  N   UNK N   1      34.760  18.301   8.121  0.00  0.00    -0.095 N 
HETATM   15  O   UNK N   1      35.337  19.375   8.612  0.00  0.00    -0.530 OA
HETATM   16  O   UNK N   1      34.522  18.246   6.952  0.00  0.00    -0.530 OA
ENDBRANCH   2  14
TORSDOF 2
ENDMDL
MODEL 2
REMARK VINA RESULT:      -5.4     10.908     12.719
REMARK  2 active torsions:
REMARK  status: ('A' for Active; 'I' for Inactive)
REMARK    1  A    between atoms: N_1  and  C_2 
REMARK    2  A    between atoms: C_3  and  N_10 
ROOT
HETATM    1  C   UNK N   1      21.881  12.288  11.209  0.00  0.00     0.145 A 
HETATM    2  C   UNK N   1      21.976  12.879   9.928  0.00  0.00     0.209 A 
HETATM    3  N   UNK N   1      23.200  13.219   9.447  0.00  0.00    -0.287 N 
HETATM    4  C   UNK N   1      24.340  13.006  10.168  0.00  0.00     0.328 A 
HETATM    5  O   UNK N   1      25.418  13.323   9.705  0.00  0.00    -0.247 OA
HETATM    6  N   UNK N   1      24.265  12.435  11.408  0.00  0.00    -0.273 N 
HETATM    7  C   UNK N   1      23.056  12.074  11.939  0.00  0.00     0.279 A 
HETATM    8  O   UNK N   1      23.009  11.567  13.045  0.00  0.00    -0.265 OA
HETATM    9  H   UNK N   1      23.268  13.631   8.555  0.00  0.00     0.172 HD
HETATM   10  H   UNK N   1      25.089  12.283  11.925  0.00  0.00     0.173 HD
ENDROOT
BRANCH   1  11
HETATM   11  N   UNK N   1      20.633  11.914  11.761  0.00  0.00    -0.391 N 
HETATM   12  H   UNK N   1      19.929  11.544  11.180  0.00  0.00     0.156 HD
HETATM   13  H   UNK N   1      20.469  12.023  12.726  0.00  0.00     0.156 HD
ENDBRANCH   1  11
BRANCH   2  14
HETATM   14  N   UNK N   1      20.836  13.134   9.116  0.00  0.00    -0.095 N 
HETATM   15  O   UNK N   1      19.833  13.825   9.611  0.00  0.00    -0.530 OA
HETATM   16  O   UNK N   1      20.774  12.733   7.993  0.00  0.00    -0.530 OA
ENDBRANCH   2  14
TORSDOF 2
ENDMDL
MODEL 3
REMARK VINA RESULT:      -5.2      1.270      2.902
REMARK  2 active torsions:
REMARK  status: ('A' for Active; 'I' for Inactive)
REMARK    1  A    between atoms: N_1  and  C_2 
REMARK    2  A    between atoms: C_3  and  N_10 
ROOT
HETATM    1  C   UNK N   1      34.381  16.279   9.864  0.00  0.00     0.145 A 
HETATM    2  C   UNK N   1      34.042  16.606   8.531  0.00  0.00     0.209 A 
HETATM    3  N   UNK N   1      33.278  15.741   7.812  0.00  0.00    -0.287 N 
HETATM    4  C   UNK N   1      32.831  14.566   8.345  0.00  0.00     0.328 A 
HETATM    5  O   UNK N   1      32.150  13.817   7.672  0.00  0.00    -0.247 OA
HETATM    6  N   UNK N   1      33.150  14.235   9.632  0.00  0.00    -0.273 N 
HETATM    7  C   UNK N   1      33.917  15.072  10.399  0.00  0.00     0.279 A 
HETATM    8  O   UNK N   1      34.191  14.760  11.544  0.00  0.00    -0.265 OA
HETATM    9  H   UNK N   1      33.041  15.967   6.884  0.00  0.00     0.172 HD
HETATM   10  H   UNK N   1      32.826  13.387  10.012  0.00  0.00     0.173 HD
ENDROOT
BRANCH   1  11
HETATM   11  N   UNK N   1      35.173  17.141  10.659  0.00  0.00    -0.391 N 
HETATM   12  H   UNK N   1      35.661  16.784  11.435  0.00  0.00     0.156 HD
HETATM   13  H   UNK N   1      35.236  18.098  10.434  0.00  0.00     0.156 HD
ENDBRANCH   1  11
BRANCH   2  14
HETATM   14  N   UNK N   1      34.469  17.809   7.905  0.00  0.00    -0.095 N 
HETATM   15  O   UNK N   1      34.526  17.869   6.593  0.00  0.00    -0.530 OA
HETATM   16  O   UNK N   1      34.776  18.767   8.548  0.00  0.00    -0.530 OA
ENDBRANCH   2  14
TORSDOF 2
ENDMDL
MODEL 4
REMARK VINA RESULT:      -5.1      2.629      4.220
REMARK  2 active torsions:
REMARK  status: ('A' for Active; 'I' for Inactive)
REMARK    1  A    between atoms: N_1  and  C_2 
REMARK    2  A    between atoms: C_3  and  N_10 
ROOT
HETATM    1  C   UNK N   1      32.052  17.486   7.845  0.00  0.00     0.145 A 
HETATM    2  C   UNK N   1      33.388  17.775   7.483  0.00  0.00     0.209 A 
HETATM    3  N   UNK N   1      33.752  17.690   6.176  0.00  0.00    -0.287 N 
HETATM    4  C   UNK N   1      32.861  17.332   5.205  0.00  0.00     0.328 A 
HETATM    5  O   UNK N   1      33.222  17.266   4.046  0.00  0.00    -0.247 OA
HETATM    6  N   UNK N   1      31.565  17.050   5.539  0.00  0.00    -0.273 N 
HETATM    7  C   UNK N   1      31.148  17.121   6.841  0.00  0.00     0.279 A 
HETATM    8  O   UNK N   1      29.990  16.865   7.118  0.00  0.00    -0.265 OA
HETATM    9  H   UNK N   1      34.681  17.891   5.923  0.00  0.00     0.172 HD
HETATM   10  H   UNK N   1      30.926  16.792   4.836  0.00  0.00     0.173 HD
ENDROOT
BRANCH   1  11
HETATM   11  N   UNK N   1      31.617  17.558   9.190  0.00  0.00    -0.391 N 
HETATM   12  H   UNK N   1      30.655  17.592   9.394  0.00  0.00     0.156 HD
HETATM   13  H   UNK N   1      32.278  17.575   9.920  0.00  0.00     0.156 HD
ENDBRANCH   1  11
BRANCH   2  14
HETATM   14  N   UNK N   1      34.374  18.154   8.435  0.00  0.00    -0.095 N 
HETATM   15  O   UNK N   1      34.578  17.396   9.489  0.00  0.00    -0.530 OA
HETATM   16  O   UNK N   1      35.021  19.147   8.294  0.00  0.00    -0.530 OA
ENDBRANCH   2  14
TORSDOF 2
ENDMDL
MODEL 5
REMARK VINA RESULT:      -4.9     10.848     11.878
REMARK  2 active torsions:
REMARK  status: ('A' for Active; 'I' for Inactive)
REMARK    1  A    between atoms: N_1  and  C_2 
REMARK    2  A    between atoms: C_3  and  N_10 
ROOT
HETATM    1  C   UNK N   1      41.812  22.541   2.250  0.00  0.00     0.145 A 
HETATM    2  C   UNK N   1      42.735  22.080   3.216  0.00  0.00     0.209 A 
HETATM    3  N   UNK N   1      42.810  20.747   3.475  0.00  0.00    -0.287 N 
HETATM    4  C   UNK N   1      42.017  19.845   2.826  0.00  0.00     0.328 A 
HETATM    5  O   UNK N   1      42.111  18.661   3.084  0.00  0.00    -0.247 OA
HETATM    6  N   UNK N   1      41.119  20.275   1.889  0.00  0.00    -0.273 N 
HETATM    7  C   UNK N   1      41.004  21.607   1.592  0.00  0.00     0.279 A 
HETATM    8  O   UNK N   1      40.199  21.971   0.754  0.00  0.00    -0.265 OA
HETATM    9  H   UNK N   1      43.452  20.424   4.147  0.00  0.00     0.172 HD
HETATM   10  H   UNK N   1      40.549  19.621   1.424  0.00  0.00     0.173 HD
ENDROOT
BRANCH   1  11
HETATM   11  N   UNK N   1      41.691  23.917   1.939  0.00  0.00    -0.391 N 
HETATM   12  H   UNK N   1      41.087  24.488   2.465  0.00  0.00     0.156 HD
HETATM   13  H   UNK N   1      42.212  24.301   1.197  0.00  0.00     0.156 HD
ENDBRANCH   1  11
BRANCH   2  14
HETATM   14  N   UNK N   1      43.595  22.956   3.934  0.00  0.00    -0.095 N 
HETATM   15  O   UNK N   1      43.865  22.704   5.195  0.00  0.00    -0.530 OA
HETATM   16  O   UNK N   1      44.077  23.915   3.412  0.00  0.00    -0.530 OA
ENDBRANCH   2  14
TORSDOF 2
ENDMDL
MODEL 6
REMARK VINA RESULT:      -4.7      1.983      3.209
REMARK  2 active torsions:
REMARK  status: ('A' for Active; 'I' for Inactive)
REMARK    1  A    between atoms: N_1  and  C_2 
REMARK    2  A    between atoms: C_3  and  N_10 
ROOT
HETATM    1  C   UNK N   1      33.559  15.865   8.427  0.00  0.00     0.145 A 
HETATM    2  C   UNK N   1      33.604  17.246   8.730  0.00  0.00     0.209 A 
HETATM    3  N   UNK N   1      32.455  17.970   8.681  0.00  0.00    -0.287 N 
HETATM    4  C   UNK N   1      31.260  17.400   8.347  0.00  0.00     0.328 A 
HETATM    5  O   UNK N   1      30.253  18.080   8.313  0.00  0.00    -0.247 OA
HETATM    6  N   UNK N   1      31.200  16.067   8.050  0.00  0.00    -0.273 N 
HETATM    7  C   UNK N   1      32.329  15.292   8.085  0.00  0.00     0.279 A 
HETATM    8  O   UNK N   1      32.255  14.106   7.818  0.00  0.00    -0.265 OA
HETATM    9  H   UNK N   1      32.484  18.932   8.893  0.00  0.00     0.172 HD
HETATM   10  H   UNK N   1      30.337  15.660   7.810  0.00  0.00     0.173 HD
ENDROOT
BRANCH   1  11
HETATM   11  N   UNK N   1      34.723  15.062   8.461  0.00  0.00    -0.391 N 
HETATM   12  H   UNK N   1      34.891  14.408   7.745  0.00  0.00     0.156 HD
HETATM   13  H   UNK N   1      35.365  15.158   9.202  0.00  0.00     0.156 HD
ENDBRANCH   1  11
BRANCH   2  14
HETATM   14  N   UNK N   1      34.808  17.913   9.087  0.00  0.00    -0.095 N 
HETATM   15  O   UNK N   1      35.176  18.982   8.417  0.00  0.00    -0.530 OA
HETATM   16  O   UNK N   1      35.491  17.520   9.984  0.00  0.00    -0.530 OA
ENDBRANCH   2  14
TORSDOF 2
ENDMDL
MODEL 7
REMARK VINA RESULT:      -4.7     16.919     18.644
REMARK  2 active torsions:
REMARK  status: ('A' for Active; 'I' for Inactive)
REMARK    1  A    between atoms: N_1  and  C_2 
REMARK    2  A    between atoms: C_3  and  N_10 
ROOT
HETATM    1  C   UNK N   1      25.645  25.817  -4.953  0.00  0.00     0.145 A 
HETATM    2  C   UNK N   1      26.555  25.649  -3.884  0.00  0.00     0.209 A 
HETATM    3  N   UNK N   1      26.878  26.724  -3.118  0.00  0.00    -0.287 N 
HETATM    4  C   UNK N   1      26.348  27.960  -3.354  0.00  0.00     0.328 A 
HETATM    5  O   UNK N   1      26.661  28.898  -2.647  0.00  0.00    -0.247 OA
HETATM    6  N   UNK N   1      25.467  28.139  -4.384  0.00  0.00    -0.273 N 
HETATM    7  C   UNK N   1      25.108  27.088  -5.186  0.00  0.00     0.279 A 
HETATM    8  O   UNK N   1      24.322  27.267  -6.098  0.00  0.00    -0.265 OA
HETATM    9  H   UNK N   1      27.512  26.609  -2.372  0.00  0.00     0.172 HD
HETATM   10  H   UNK N   1      25.087  29.031  -4.551  0.00  0.00     0.173 HD
ENDROOT
BRANCH   1  11
HETATM   11  N   UNK N   1      25.271  24.734  -5.784  0.00  0.00    -0.391 N 
HETATM   12  H   UNK N   1      25.567  23.821  -5.564  0.00  0.00     0.156 HD
HETATM   13  H   UNK N   1      24.716  24.894  -6.582  0.00  0.00     0.156 HD
ENDBRANCH   1  11
BRANCH   2  14
HETATM   14  N   UNK N   1      27.150  24.395  -3.574  0.00  0.00    -0.095 N 
HETATM   15  O   UNK N   1      27.923  23.811  -4.462  0.00  0.00    -0.530 OA
HETATM   16  O   UNK N   1      26.960  23.863  -2.522  0.00  0.00    -0.530 OA
ENDBRANCH   2  14
TORSDOF 2
ENDMDL
MODEL 8
REMARK VINA RESULT:      -4.7     10.434     12.509
REMARK  2 active torsions:
REMARK  status: ('A' for Active; 'I' for Inactive)
REMARK    1  A    between atoms: N_1  and  C_2 
REMARK    2  A    between atoms: C_3  and  N_10 
ROOT
HETATM    1  C   UNK N   1      43.154  22.023   3.331  0.00  0.00     0.145 A 
HETATM    2  C   UNK N   1      41.989  21.336   2.918  0.00  0.00     0.209 A 
HETATM    3  N   UNK N   1      41.130  21.948   2.062  0.00  0.00    -0.287 N 
HETATM    4  C   UNK N   1      41.362  23.209   1.591  0.00  0.00     0.328 A 
HETATM    5  O   UNK N   1      40.571  23.725   0.826  0.00  0.00    -0.247 OA
HETATM    6  N   UNK N   1      42.484  23.887   1.981  0.00  0.00    -0.273 N 
HETATM    7  C   UNK N   1      43.381  23.314   2.842  0.00  0.00     0.279 A 
HETATM    8  O   UNK N   1      44.375  23.934   3.178  0.00  0.00    -0.265 OA
HETATM    9  H   UNK N   1      40.318  21.471   1.773  0.00  0.00     0.172 HD
HETATM   10  H   UNK N   1      42.648  24.795   1.639  0.00  0.00     0.173 HD
ENDROOT
BRANCH   1  11
HETATM   11  N   UNK N   1      44.084  21.434   4.221  0.00  0.00    -0.391 N 
HETATM   12  H   UNK N   1      45.046  21.459   4.014  0.00  0.00     0.156 HD
HETATM   13  H   UNK N   1      43.768  21.001   5.047  0.00  0.00     0.156 HD
ENDBRANCH   1  11
BRANCH   2  14
HETATM   14  N   UNK N   1      41.677  20.022   3.363  0.00  0.00    -0.095 N 
HETATM   15  O   UNK N   1      42.545  19.053   3.173  0.00  0.00    -0.530 OA
HETATM   16  O   UNK N   1      40.641  19.782   3.906  0.00  0.00    -0.530 OA
ENDBRANCH   2  14
TORSDOF 2
ENDMDL
MODEL 9
REMARK VINA RESULT:      -4.7     11.632     12.483
REMARK  2 active torsions:
REMARK  status: ('A' for Active; 'I' for Inactive)
REMARK    1  A    between atoms: N_1  and  C_2 
REMARK    2  A    between atoms: C_3  and  N_10 
ROOT
HETATM    1  C   UNK N   1      43.528  22.494   3.388  0.00  0.00     0.145 A 
HETATM    2  C   UNK N   1      42.476  21.881   2.668  0.00  0.00     0.209 A 
HETATM    3  N   UNK N   1      42.561  20.557   2.374  0.00  0.00    -0.287 N 
HETATM    4  C   UNK N   1      43.634  19.804   2.755  0.00  0.00     0.328 A 
HETATM    5  O   UNK N   1      43.675  18.622   2.474  0.00  0.00    -0.247 OA
HETATM    6  N   UNK N   1      44.660  20.382   3.451  0.00  0.00    -0.273 N 
HETATM    7  C   UNK N   1      44.623  21.712   3.773  0.00  0.00     0.279 A 
HETATM    8  O   UNK N   1      45.546  22.209   4.393  0.00  0.00    -0.265 OA
HETATM    9  H   UNK N   1      41.829  20.129   1.874  0.00  0.00     0.172 HD
HETATM   10  H   UNK N   1      45.432  19.836   3.724  0.00  0.00     0.173 HD
ENDROOT
BRANCH   1  11
HETATM   11  N   UNK N   1      43.494  23.869   3.721  0.00  0.00    -0.391 N 
HETATM   12  H   UNK N   1      42.630  24.331   3.812  0.00  0.00     0.156 HD
HETATM   13  H   UNK N   1      44.335  24.362   3.863  0.00  0.00     0.156 HD
ENDBRANCH   1  11
BRANCH   2  14
HETATM   14  N   UNK N   1      41.325  22.596   2.236  0.00  0.00    -0.095 N 
HETATM   15  O   UNK N   1      41.459  23.828   1.796  0.00  0.00    -0.530 OA
HETATM   16  O   UNK N   1      40.240  22.100   2.266  0.00  0.00    -0.530 OA
ENDBRANCH   2  14
TORSDOF 2
ENDMDL
