MODEL 1
REMARK VINA RESULT:      -5.9      0.000      0.000
REMARK  5 active torsions:
REMARK  status: ('A' for Active; 'I' for Inactive)
REMARK    1  A    between atoms: C_2  and  N_1 
REMARK    2  A    between atoms: C_2  and  C_3 
REMARK    3  A    between atoms: C_2  and  C_13 
REMARK    4  A    between atoms: C_3  and  C_4 
REMARK    5  A    between atoms: C_13  and  O_14 
ROOT
HETATM    1  C   UNK N   1      35.701  13.630  13.315  0.00  0.00    -0.028 A 
HETATM    2  C   UNK N   1      36.489  14.320  14.232  0.00  0.00     0.096 A 
HETATM    3  N   UNK N   1      36.446  13.687  15.433  0.00  0.00    -0.365 N 
HETATM    4  C   UNK N   1      35.649  12.614  15.263  0.00  0.00     0.042 A 
HETATM    5  C   UNK N   1      35.314  11.657  16.216  0.00  0.00     0.030 A 
HETATM    6  C   UNK N   1      34.466  10.605  15.819  0.00  0.00     0.002 A 
HETATM    7  C   UNK N   1      33.989  10.534  14.491  0.00  0.00     0.001 A 
HETATM    8  C   UNK N   1      34.352  11.516  13.554  0.00  0.00     0.014 A 
HETATM    9  C   UNK N   1      35.183  12.550  13.983  0.00  0.00    -0.002 A 
HETATM   10  H   UNK N   1      36.905  13.959  16.261  0.00  0.00     0.165 HD
ENDROOT
BRANCH   1  11
HETATM   11  C   UNK N   1      35.509  13.971  11.869  0.00  0.00     0.076 C 
BRANCH  11  12
HETATM   12  C   UNK N   1      34.823  15.316  11.595  0.00  0.00     0.177 C 
BRANCH  12  13
HETATM   13  N   UNK N   1      33.620  15.166  10.789  0.00  0.00    -0.417 N 
HETATM   14  H   UNK N   1      32.686  15.488  11.040  0.00  0.00     0.150 HD
HETATM   15  H   UNK N   1      33.721  14.694   9.891  0.00  0.00     0.150 HD
ENDBRANCH  12  13
BRANCH  12  16
HETATM   16  C   UNK N   1      35.801  16.213  10.891  0.00  0.00     0.163 C 
HETATM   17  O   UNK N   1      35.416  17.251  10.379  0.00  0.00    -0.648 OA
BRANCH  16  18
HETATM   18  O   UNK N   1      37.109  15.889  10.836  0.00  0.00    -0.775 OA
HETATM   19  H   UNK N   1      37.366  15.009  10.641  0.00  0.00     0.167 HD
ENDBRANCH  16  18
ENDBRANCH  12  16
ENDBRANCH  11  12
ENDBRANCH   1  11
TORSDOF 5
ENDMDL
MODEL 2
REMARK VINA RESULT:      -5.8     19.566     22.728
REMARK  5 active torsions:
REMARK  status: ('A' for Active; 'I' for Inactive)
REMARK    1  A    between atoms: C_2  and  N_1 
REMARK    2  A    between atoms: C_2  and  C_3 
REMARK    3  A    between atoms: C_2  and  C_13 
REMARK    4  A    between atoms: C_3  and  C_4 
REMARK    5  A    between atoms: C_13  and  O_14 
ROOT
HETATM    1  C   UNK N   1      26.705  24.323  -4.114  0.00  0.00    -0.028 A 
HETATM    2  C   UNK N   1      26.210  23.689  -5.249  0.00  0.00     0.096 A 
HETATM    3  N   UNK N   1      25.475  24.569  -5.977  0.00  0.00    -0.365 N 
HETATM    4  C   UNK N   1      25.520  25.738  -5.307  0.00  0.00     0.042 A 
HETATM    5  C   UNK N   1      24.922  26.940  -5.674  0.00  0.00     0.030 A 
HETATM    6  C   UNK N   1      25.106  28.049  -4.827  0.00  0.00     0.002 A 
HETATM    7  C   UNK N   1      25.882  27.931  -3.653  0.00  0.00     0.001 A 
HETATM    8  C   UNK N   1      26.476  26.703  -3.316  0.00  0.00     0.014 A 
HETATM    9  C   UNK N   1      26.264  25.622  -4.171  0.00  0.00    -0.002 A 
HETATM   10  H   UNK N   1      25.005  24.390  -6.823  0.00  0.00     0.165 HD
ENDROOT
BRANCH   1  11
HETATM   11  C   UNK N   1      27.594  23.720  -3.069  0.00  0.00     0.076 C 
BRANCH  11  12
HETATM   12  C   UNK N   1      29.090  24.031  -3.220  0.00  0.00     0.177 C 
BRANCH  12  13
HETATM   13  N   UNK N   1      29.485  24.168  -4.614  0.00  0.00    -0.417 N 
HETATM   14  H   UNK N   1      29.648  23.403  -5.269  0.00  0.00     0.150 HD
HETATM   15  H   UNK N   1      29.611  25.116  -4.968  0.00  0.00     0.150 HD
ENDBRANCH  12  13
BRANCH  12  16
HETATM   16  C   UNK N   1      29.871  22.922  -2.574  0.00  0.00     0.163 C 
HETATM   17  O   UNK N   1      30.343  23.079  -1.460  0.00  0.00    -0.648 OA
BRANCH  16  18
HETATM   18  O   UNK N   1      30.041  21.745  -3.209  0.00  0.00    -0.775 OA
HETATM   19  H   UNK N   1      29.492  21.519  -3.934  0.00  0.00     0.167 HD
ENDBRANCH  16  18
ENDBRANCH  12  16
ENDBRANCH  11  12
ENDBRANCH   1  11
TORSDOF 5
ENDMDL
MODEL 3
REMARK VINA RESULT:      -5.8      2.763      4.068
REMARK  5 active torsions:
REMARK  status: ('A' for Active; 'I' for Inactive)
REMARK    1  A    between atoms: C_2  and  N_1 
REMARK    2  A    between atoms: C_2  and  C_3 
REMARK    3  A    between atoms: C_2  and  C_13 
REMARK    4  A    between atoms: C_3  and  C_4 
REMARK    5  A    between atoms: C_13  and  O_14 
ROOT
HETATM    1  C   UNK N   1      35.151  13.083  17.139  0.00  0.00    -0.028 A 
HETATM    2  C   UNK N   1      35.213  14.034  18.153  0.00  0.00     0.096 A 
HETATM    3  N   UNK N   1      35.334  13.410  19.353  0.00  0.00    -0.365 N 
HETATM    4  C   UNK N   1      35.357  12.089  19.088  0.00  0.00     0.042 A 
HETATM    5  C   UNK N   1      35.480  11.050  20.006  0.00  0.00     0.030 A 
HETATM    6  C   UNK N   1      35.490   9.733  19.507  0.00  0.00     0.002 A 
HETATM    7  C   UNK N   1      35.387   9.494  18.118  0.00  0.00     0.001 A 
HETATM    8  C   UNK N   1      35.270  10.568  17.221  0.00  0.00     0.014 A 
HETATM    9  C   UNK N   1      35.251  11.858  17.749  0.00  0.00    -0.002 A 
HETATM   10  H   UNK N   1      35.394  13.837  20.239  0.00  0.00     0.165 HD
ENDROOT
BRANCH   1  11
HETATM   11  C   UNK N   1      35.057  13.352  15.668  0.00  0.00     0.076 C 
BRANCH  11  12
HETATM   12  C   UNK N   1      36.398  13.427  14.925  0.00  0.00     0.177 C 
BRANCH  12  13
HETATM   13  N   UNK N   1      37.243  14.501  15.424  0.00  0.00    -0.417 N 
HETATM   14  H   UNK N   1      36.950  15.463  15.597  0.00  0.00     0.150 HD
HETATM   15  H   UNK N   1      38.217  14.272  15.619  0.00  0.00     0.150 HD
ENDBRANCH  12  13
BRANCH  12  16
HETATM   16  C   UNK N   1      36.120  13.632  13.463  0.00  0.00     0.163 C 
HETATM   17  O   UNK N   1      34.973  13.781  13.077  0.00  0.00    -0.648 OA
BRANCH  16  18
HETATM   18  O   UNK N   1      37.132  13.670  12.574  0.00  0.00    -0.775 OA
HETATM   19  H   UNK N   1      37.462  14.494  12.273  0.00  0.00     0.167 HD
ENDBRANCH  16  18
ENDBRANCH  12  16
ENDBRANCH  11  12
ENDBRANCH   1  11
TORSDOF 5
ENDMDL
MODEL 4
REMARK VINA RESULT:      -5.5      2.282      3.756
REMARK  5 active torsions:
REMARK  status: ('A' for Active; 'I' for Inactive)
REMARK    1  A    between atoms: C_2  and  N_1 
REMARK    2  A    between atoms: C_2  and  C_3 
REMARK    3  A    between atoms: C_2  and  C_13 
REMARK    4  A    between atoms: C_3  and  C_4 
REMARK    5  A    between atoms: C_13  and  O_14 
ROOT
HETATM    1  C   UNK N   1      35.572  12.034  15.777  0.00  0.00    -0.028 A 
HETATM    2  C   UNK N   1      35.959  10.730  15.484  0.00  0.00     0.096 A 
HETATM    3  N   UNK N   1      36.128  10.036  16.639  0.00  0.00    -0.365 N 
HETATM    4  C   UNK N   1      35.841  10.894  17.638  0.00  0.00     0.042 A 
HETATM    5  C   UNK N   1      35.864  10.632  19.004  0.00  0.00     0.030 A 
HETATM    6  C   UNK N   1      35.516  11.679  19.878  0.00  0.00     0.002 A 
HETATM    7  C   UNK N   1      35.151  12.945  19.368  0.00  0.00     0.001 A 
HETATM    8  C   UNK N   1      35.134  13.173  17.982  0.00  0.00     0.014 A 
HETATM    9  C   UNK N   1      35.495  12.118  17.145  0.00  0.00    -0.002 A 
HETATM   10  H   UNK N   1      36.405   9.095  16.729  0.00  0.00     0.165 HD
ENDROOT
BRANCH   1  11
HETATM   11  C   UNK N   1      35.244  13.112  14.790  0.00  0.00     0.076 C 
BRANCH  11  12
HETATM   12  C   UNK N   1      36.443  13.687  14.022  0.00  0.00     0.177 C 
BRANCH  12  13
HETATM   13  N   UNK N   1      37.085  14.776  14.743  0.00  0.00    -0.417 N 
HETATM   14  H   UNK N   1      36.648  15.367  15.449  0.00  0.00     0.150 HD
HETATM   15  H   UNK N   1      38.062  14.965  14.521  0.00  0.00     0.150 HD
ENDBRANCH  12  13
BRANCH  12  16
HETATM   16  C   UNK N   1      35.961  14.173  12.685  0.00  0.00     0.163 C 
HETATM   17  O   UNK N   1      34.788  14.045  12.377  0.00  0.00    -0.648 OA
BRANCH  16  18
HETATM   18  O   UNK N   1      36.813  14.769  11.826  0.00  0.00    -0.775 OA
HETATM   19  H   UNK N   1      36.741  14.607  10.906  0.00  0.00     0.167 HD
ENDBRANCH  16  18
ENDBRANCH  12  16
ENDBRANCH  11  12
ENDBRANCH   1  11
TORSDOF 5
ENDMDL
MODEL 5
REMARK VINA RESULT:      -5.5      6.773      8.414
REMARK  5 active torsions:
REMARK  status: ('A' for Active; 'I' for Inactive)
REMARK    1  A    between atoms: C_2  and  N_1 
REMARK    2  A    between atoms: C_2  and  C_3 
REMARK    3  A    between atoms: C_2  and  C_13 
REMARK    4  A    between atoms: C_3  and  C_4 
REMARK    5  A    between atoms: C_13  and  O_14 
ROOT
HETATM    1  C   UNK N   1      31.798  17.207   6.858  0.00  0.00    -0.028 A 
HETATM    2  C   UNK N   1      31.150  16.368   5.957  0.00  0.00     0.096 A 
HETATM    3  N   UNK N   1      29.843  16.249   6.306  0.00  0.00    -0.365 N 
HETATM    4  C   UNK N   1      29.678  17.012   7.405  0.00  0.00     0.042 A 
HETATM    5  C   UNK N   1      28.500  17.213   8.118  0.00  0.00     0.030 A 
HETATM    6  C   UNK N   1      28.551  18.064   9.239  0.00  0.00     0.002 A 
HETATM    7  C   UNK N   1      29.762  18.691   9.607  0.00  0.00     0.001 A 
HETATM    8  C   UNK N   1      30.931  18.468   8.860  0.00  0.00     0.014 A 
HETATM    9  C   UNK N   1      30.849  17.612   7.763  0.00  0.00    -0.002 A 
HETATM   10  H   UNK N   1      29.155  15.714   5.848  0.00  0.00     0.165 HD
ENDROOT
BRANCH   1  11
HETATM   11  C   UNK N   1      33.233  17.632   6.809  0.00  0.00     0.076 C 
BRANCH  11  12
HETATM   12  C   UNK N   1      34.170  16.897   7.779  0.00  0.00     0.177 C 
BRANCH  12  13
HETATM   13  N   UNK N   1      33.469  15.894   8.566  0.00  0.00    -0.417 N 
HETATM   14  H   UNK N   1      33.489  15.809   9.582  0.00  0.00     0.150 HD
HETATM   15  H   UNK N   1      32.907  15.215   8.055  0.00  0.00     0.150 HD
ENDBRANCH  12  13
BRANCH  12  16
HETATM   16  C   UNK N   1      34.802  17.912   8.688  0.00  0.00     0.163 C 
HETATM   17  O   UNK N   1      34.890  19.076   8.335  0.00  0.00    -0.648 OA
BRANCH  16  18
HETATM   18  O   UNK N   1      35.260  17.549   9.904  0.00  0.00    -0.775 OA
HETATM   19  H   UNK N   1      35.120  18.108  10.643  0.00  0.00     0.167 HD
ENDBRANCH  16  18
ENDBRANCH  12  16
ENDBRANCH  11  12
ENDBRANCH   1  11
TORSDOF 5
ENDMDL
MODEL 6
REMARK VINA RESULT:      -5.5      8.325      9.931
REMARK  5 active torsions:
REMARK  status: ('A' for Active; 'I' for Inactive)
REMARK    1  A    between atoms: C_2  and  N_1 
REMARK    2  A    between atoms: C_2  and  C_3 
REMARK    3  A    between atoms: C_2  and  C_13 
REMARK    4  A    between atoms: C_3  and  C_4 
REMARK    5  A    between atoms: C_13  and  O_14 
ROOT
HETATM    1  C   UNK N   1      31.693  17.183   7.304  0.00  0.00    -0.028 A 
HETATM    2  C   UNK N   1      32.997  17.591   7.567  0.00  0.00     0.096 A 
HETATM    3  N   UNK N   1      33.679  17.713   6.398  0.00  0.00    -0.365 N 
HETATM    4  C   UNK N   1      32.808  17.393   5.421  0.00  0.00     0.042 A 
HETATM    5  C   UNK N   1      33.048  17.384   4.051  0.00  0.00     0.030 A 
HETATM    6  C   UNK N   1      31.985  17.025   3.201  0.00  0.00     0.002 A 
HETATM    7  C   UNK N   1      30.720  16.696   3.738  0.00  0.00     0.001 A 
HETATM    8  C   UNK N   1      30.512  16.721   5.127  0.00  0.00     0.014 A 
HETATM    9  C   UNK N   1      31.589  17.070   5.940  0.00  0.00    -0.002 A 
HETATM   10  H   UNK N   1      34.620  17.981   6.288  0.00  0.00     0.165 HD
ENDROOT
BRANCH   1  11
HETATM   11  C   UNK N   1      30.604  16.971   8.310  0.00  0.00     0.076 C 
BRANCH  11  12
HETATM   12  C   UNK N   1      29.743  18.204   8.618  0.00  0.00     0.177 C 
BRANCH  12  13
HETATM   13  N   UNK N   1      29.977  18.716   9.960  0.00  0.00    -0.417 N 
HETATM   14  H   UNK N   1      29.759  18.234  10.832  0.00  0.00     0.150 HD
HETATM   15  H   UNK N   1      30.397  19.642  10.036  0.00  0.00     0.150 HD
ENDBRANCH  12  13
BRANCH  12  16
HETATM   16  C   UNK N   1      28.298  17.825   8.461  0.00  0.00     0.163 C 
HETATM   17  O   UNK N   1      27.950  17.125   7.524  0.00  0.00    -0.648 OA
BRANCH  16  18
HETATM   18  O   UNK N   1      27.381  18.237   9.359  0.00  0.00    -0.775 OA
HETATM   19  H   UNK N   1      26.503  17.911   9.317  0.00  0.00     0.167 HD
ENDBRANCH  16  18
ENDBRANCH  12  16
ENDBRANCH  11  12
ENDBRANCH   1  11
TORSDOF 5
ENDMDL
MODEL 7
REMARK VINA RESULT:      -5.4      1.317      2.062
REMARK  5 active torsions:
REMARK  status: ('A' for Active; 'I' for Inactive)
REMARK    1  A    between atoms: C_2  and  N_1 
REMARK    2  A    between atoms: C_2  and  C_3 
REMARK    3  A    between atoms: C_2  and  C_13 
REMARK    4  A    between atoms: C_3  and  C_4 
REMARK    5  A    between atoms: C_13  and  O_14 
ROOT
HETATM    1  C   UNK N   1      35.284  12.725  12.527  0.00  0.00    -0.028 A 
HETATM    2  C   UNK N   1      34.621  11.589  12.072  0.00  0.00     0.096 A 
HETATM    3  N   UNK N   1      34.251  10.825  13.132  0.00  0.00    -0.365 N 
HETATM    4  C   UNK N   1      34.671  11.480  14.232  0.00  0.00     0.042 A 
HETATM    5  C   UNK N   1      34.509  11.087  15.557  0.00  0.00     0.030 A 
HETATM    6  C   UNK N   1      35.021  11.934  16.558  0.00  0.00     0.002 A 
HETATM    7  C   UNK N   1      35.668  13.142  16.212  0.00  0.00     0.001 A 
HETATM    8  C   UNK N   1      35.808  13.509  14.863  0.00  0.00     0.014 A 
HETATM    9  C   UNK N   1      35.300  12.642  13.896  0.00  0.00    -0.002 A 
HETATM   10  H   UNK N   1      33.772   9.964  13.102  0.00  0.00     0.165 HD
ENDROOT
BRANCH   1  11
HETATM   11  C   UNK N   1      35.818  13.844  11.686  0.00  0.00     0.076 C 
BRANCH  11  12
HETATM   12  C   UNK N   1      34.956  15.114  11.656  0.00  0.00     0.177 C 
BRANCH  12  13
HETATM   13  N   UNK N   1      33.707  14.913  10.935  0.00  0.00    -0.417 N 
HETATM   14  H   UNK N   1      32.866  15.482  11.024  0.00  0.00     0.150 HD
HETATM   15  H   UNK N   1      33.671  14.131  10.281  0.00  0.00     0.150 HD
ENDBRANCH  12  13
BRANCH  12  16
HETATM   16  C   UNK N   1      35.750  16.211  11.007  0.00  0.00     0.163 C 
HETATM   17  O   UNK N   1      35.199  17.247  10.673  0.00  0.00    -0.648 OA
BRANCH  16  18
HETATM   18  O   UNK N   1      37.076  16.068  10.806  0.00  0.00    -0.775 OA
HETATM   19  H   UNK N   1      37.663  16.064  11.536  0.00  0.00     0.167 HD
ENDBRANCH  16  18
ENDBRANCH  12  16
ENDBRANCH  11  12
ENDBRANCH   1  11
TORSDOF 5
ENDMDL
MODEL 8
REMARK VINA RESULT:      -5.4     22.659     24.863
REMARK  5 active torsions:
REMARK  status: ('A' for Active; 'I' for Inactive)
REMARK    1  A    between atoms: C_2  and  N_1 
REMARK    2  A    between atoms: C_2  and  C_3 
REMARK    3  A    between atoms: C_2  and  C_13 
REMARK    4  A    between atoms: C_3  and  C_4 
REMARK    5  A    between atoms: C_13  and  O_14 
ROOT
HETATM    1  C   UNK N   1      25.841  27.304  -5.008  0.00  0.00    -0.028 A 
HETATM    2  C   UNK N   1      25.536  27.989  -3.836  0.00  0.00     0.096 A 
HETATM    3  N   UNK N   1      26.281  29.123  -3.766  0.00  0.00    -0.365 N 
HETATM    4  C   UNK N   1      27.034  29.146  -4.884  0.00  0.00     0.042 A 
HETATM    5  C   UNK N   1      27.950  30.123  -5.260  0.00  0.00     0.030 A 
HETATM    6  C   UNK N   1      28.625  29.952  -6.484  0.00  0.00     0.002 A 
HETATM    7  C   UNK N   1      28.364  28.824  -7.293  0.00  0.00     0.001 A 
HETATM    8  C   UNK N   1      27.428  27.860  -6.884  0.00  0.00     0.014 A 
HETATM    9  C   UNK N   1      26.785  28.054  -5.662  0.00  0.00    -0.002 A 
HETATM   10  H   UNK N   1      26.273  29.793  -3.044  0.00  0.00     0.165 HD
ENDROOT
BRANCH   1  11
HETATM   11  C   UNK N   1      25.214  26.030  -5.486  0.00  0.00     0.076 C 
BRANCH  11  12
HETATM   12  C   UNK N   1      26.164  24.828  -5.591  0.00  0.00     0.177 C 
BRANCH  12  13
HETATM   13  N   UNK N   1      25.467  23.608  -5.970  0.00  0.00    -0.417 N 
HETATM   14  H   UNK N   1      24.473  23.528  -6.186  0.00  0.00     0.150 HD
HETATM   15  H   UNK N   1      26.023  22.756  -6.026  0.00  0.00     0.150 HD
ENDBRANCH  12  13
BRANCH  12  16
HETATM   16  C   UNK N   1      26.839  24.640  -4.263  0.00  0.00     0.163 C 
HETATM   17  O   UNK N   1      28.021  24.914  -4.136  0.00  0.00    -0.648 OA
BRANCH  16  18
HETATM   18  O   UNK N   1      26.144  24.186  -3.201  0.00  0.00    -0.775 OA
HETATM   19  H   UNK N   1      25.208  24.237  -3.196  0.00  0.00     0.167 HD
ENDBRANCH  16  18
ENDBRANCH  12  16
ENDBRANCH  11  12
ENDBRANCH   1  11
TORSDOF 5
ENDMDL
MODEL 9
REMARK VINA RESULT:      -5.4      3.471      4.606
REMARK  5 active torsions:
REMARK  status: ('A' for Active; 'I' for Inactive)
REMARK    1  A    between atoms: C_2  and  N_1 
REMARK    2  A    between atoms: C_2  and  C_3 
REMARK    3  A    between atoms: C_2  and  C_13 
REMARK    4  A    between atoms: C_3  and  C_4 
REMARK    5  A    between atoms: C_13  and  O_14 
ROOT
HETATM    1  C   UNK N   1      34.987  15.074   9.889  0.00  0.00    -0.028 A 
HETATM    2  C   UNK N   1      34.307  14.946  11.096  0.00  0.00     0.096 A 
HETATM    3  N   UNK N   1      35.027  14.164  11.942  0.00  0.00    -0.365 N 
HETATM    4  C   UNK N   1      36.144  13.818  11.272  0.00  0.00     0.042 A 
HETATM    5  C   UNK N   1      37.191  13.028  11.737  0.00  0.00     0.030 A 
HETATM    6  C   UNK N   1      38.275  12.798  10.868  0.00  0.00     0.002 A 
HETATM    7  C   UNK N   1      38.286  13.364   9.574  0.00  0.00     0.001 A 
HETATM    8  C   UNK N   1      37.213  14.161   9.140  0.00  0.00     0.014 A 
HETATM    9  C   UNK N   1      36.151  14.360  10.021  0.00  0.00    -0.002 A 
HETATM   10  H   UNK N   1      34.781  13.903  12.859  0.00  0.00     0.165 HD
ENDROOT
BRANCH   1  11
HETATM   11  C   UNK N   1      34.559  15.885   8.704  0.00  0.00     0.076 C 
BRANCH  11  12
HETATM   12  C   UNK N   1      33.991  17.274   9.027  0.00  0.00     0.177 C 
BRANCH  12  13
HETATM   13  N   UNK N   1      32.542  17.317   8.907  0.00  0.00    -0.417 N 
HETATM   14  H   UNK N   1      31.971  18.160   8.841  0.00  0.00     0.150 HD
HETATM   15  H   UNK N   1      32.052  16.423   8.887  0.00  0.00     0.150 HD
ENDBRANCH  12  13
BRANCH  12  16
HETATM   16  C   UNK N   1      34.612  18.270   8.090  0.00  0.00     0.163 C 
HETATM   17  O   UNK N   1      34.449  18.157   6.886  0.00  0.00    -0.648 OA
BRANCH  16  18
HETATM   18  O   UNK N   1      35.336  19.302   8.569  0.00  0.00    -0.775 OA
HETATM   19  H   UNK N   1      35.027  19.788   9.308  0.00  0.00     0.167 HD
ENDBRANCH  16  18
ENDBRANCH  12  16
ENDBRANCH  11  12
ENDBRANCH   1  11
TORSDOF 5
ENDMDL
