MODEL 1
REMARK VINA RESULT:      -5.6      0.000      0.000
REMARK  2 active torsions:
REMARK  status: ('A' for Active; 'I' for Inactive)
REMARK       I    between atoms: N_1  and  C_2 
REMARK    1  A    between atoms: C_9  and  C_10 
REMARK    2  A    between atoms: C_10  and  O_11 
ROOT
HETATM    1  N   UNK N   1      37.489  13.384  11.882  0.00  0.00    -0.234 N 
HETATM    2  C   UNK N   1      36.497  14.170  11.266  0.00  0.00     0.680 A 
HETATM    3  N   UNK N   1      35.389  13.576  10.739  0.00  0.00    -0.174 N 
ATOM      4  HN  UNK N   1      35.284  12.564  10.793  1.00  0.00     0.186 HD
HETATM    5  C   UNK N   1      34.421  14.322  10.141  0.00  0.00     0.153 A 
HETATM    6  N   UNK N   1      33.316  13.731   9.616  0.00  0.00    -0.348 N 
ATOM      7  HN  UNK N   1      33.211  12.717   9.669  1.00  0.00     0.167 HD
HETATM    8  C   UNK N   1      32.346  14.478   9.016  0.00  0.00     0.117 A 
HETATM    9  C   UNK N   1      32.488  15.875   8.941  0.00  0.00     0.049 A 
HETATM   10  N   UNK N   1      33.594  16.458   9.468  0.00  0.00    -0.349 N 
ATOM     11  HN  UNK N   1      33.700  17.472   9.414  1.00  0.00     0.166 HD
HETATM   12  C   UNK N   1      34.561  15.715  10.065  0.00  0.00     0.147 A 
HETATM   13  C   UNK N   1      35.698  16.307  10.608  0.00  0.00     0.290 A 
HETATM   14  O   UNK N   1      35.852  17.515  10.559  0.00  0.00    -0.265 OA
HETATM   15  N   UNK N   1      36.649  15.520  11.201  0.00  0.00    -0.154 N 
HETATM   16  H   UNK N   1      37.383  12.405  11.931  0.00  0.00     0.174 HD
HETATM   17  H   UNK N   1      38.290  13.811  12.263  0.00  0.00     0.174 HD
HETATM   18  H   UNK N   1      37.454  15.937  11.586  0.00  0.00     0.187 HD
ENDROOT
BRANCH   9  19
HETATM   19  C   UNK N   1      31.456  16.745   8.295  0.00  0.00     0.222 C 
BRANCH  19  20
HETATM   20  O   UNK N   1      31.175  17.879   9.059  0.00  0.00    -0.395 OA
HETATM   21  H   UNK N   1      30.279  18.253   9.060  0.00  0.00     0.209 HD
ENDBRANCH  19  20
ENDBRANCH   9  19
TORSDOF 2
ENDMDL
MODEL 2
REMARK VINA RESULT:      -5.6     16.214     16.972
REMARK  2 active torsions:
REMARK  status: ('A' for Active; 'I' for Inactive)
REMARK       I    between atoms: N_1  and  C_2 
REMARK    1  A    between atoms: C_9  and  C_10 
REMARK    2  A    between atoms: C_10  and  O_11 
ROOT
HETATM    1  N   UNK N   1      19.226  13.531   3.048  0.00  0.00    -0.234 N 
HETATM    2  C   UNK N   1      19.480  14.819   2.542  0.00  0.00     0.680 A 
HETATM    3  N   UNK N   1      19.773  15.840   3.397  0.00  0.00    -0.174 N 
ATOM      4  HN  UNK N   1      19.805  15.664   4.401  1.00  0.00     0.186 HD
HETATM    5  C   UNK N   1      20.021  17.091   2.924  0.00  0.00     0.153 A 
HETATM    6  N   UNK N   1      20.312  18.109   3.776  0.00  0.00    -0.348 N 
ATOM      7  HN  UNK N   1      20.345  17.934   4.781  1.00  0.00     0.167 HD
HETATM    8  C   UNK N   1      20.562  19.362   3.302  0.00  0.00     0.117 A 
HETATM    9  C   UNK N   1      20.517  19.606   1.918  0.00  0.00     0.049 A 
HETATM   10  N   UNK N   1      20.226  18.586   1.074  0.00  0.00    -0.349 N 
ATOM     11  HN  UNK N   1      20.193  18.760   0.069  1.00  0.00     0.166 HD
HETATM   12  C   UNK N   1      19.977  17.337   1.544  0.00  0.00     0.147 A 
HETATM   13  C   UNK N   1      19.677  16.284   0.683  0.00  0.00     0.290 A 
HETATM   14  O   UNK N   1      19.631  16.462  -0.521  0.00  0.00    -0.265 OA
HETATM   15  N   UNK N   1      19.433  15.039   1.200  0.00  0.00    -0.154 N 
HETATM   16  H   UNK N   1      19.258  13.366   4.019  0.00  0.00     0.174 HD
HETATM   17  H   UNK N   1      19.014  12.792   2.432  0.00  0.00     0.174 HD
HETATM   18  H   UNK N   1      19.221  14.294   0.594  0.00  0.00     0.187 HD
ENDROOT
BRANCH   9  19
HETATM   19  C   UNK N   1      20.782  20.962   1.341  0.00  0.00     0.222 C 
BRANCH  19  20
HETATM   20  O   UNK N   1      20.802  20.942  -0.054  0.00  0.00    -0.395 OA
HETATM   21  H   UNK N   1      20.518  20.147  -0.532  0.00  0.00     0.209 HD
ENDBRANCH  19  20
ENDBRANCH   9  19
TORSDOF 2
ENDMDL
MODEL 3
REMARK VINA RESULT:      -5.5      2.520      4.845
REMARK  2 active torsions:
REMARK  status: ('A' for Active; 'I' for Inactive)
REMARK       I    between atoms: N_1  and  C_2 
REMARK    1  A    between atoms: C_9  and  C_10 
REMARK    2  A    between atoms: C_10  and  O_11 
ROOT
HETATM    1  N   UNK N   1      34.532  18.552   8.397  0.00  0.00    -0.234 N 
HETATM    2  C   UNK N   1      34.454  17.358   9.138  0.00  0.00     0.680 A 
HETATM    3  N   UNK N   1      35.329  17.133  10.159  0.00  0.00    -0.174 N 
ATOM      4  HN  UNK N   1      36.036  17.833  10.381  1.00  0.00     0.186 HD
HETATM    5  C   UNK N   1      35.266  15.984  10.884  0.00  0.00     0.153 A 
HETATM    6  N   UNK N   1      36.138  15.760  11.903  0.00  0.00    -0.348 N 
ATOM      7  HN  UNK N   1      36.847  16.459  12.126  1.00  0.00     0.167 HD
HETATM    8  C   UNK N   1      36.076  14.608  12.630  0.00  0.00     0.117 A 
HETATM    9  C   UNK N   1      35.101  13.642  12.325  0.00  0.00     0.049 A 
HETATM   10  N   UNK N   1      34.234  13.873  11.307  0.00  0.00    -0.349 N 
ATOM     11  HN  UNK N   1      33.525  13.174  11.083  1.00  0.00     0.166 HD
HETATM   12  C   UNK N   1      34.295  15.019  10.582  0.00  0.00     0.147 A 
HETATM   13  C   UNK N   1      33.408  15.264   9.536  0.00  0.00     0.290 A 
HETATM   14  O   UNK N   1      32.552  14.447   9.247  0.00  0.00    -0.265 OA
HETATM   15  N   UNK N   1      33.505  16.433   8.830  0.00  0.00    -0.154 N 
HETATM   16  H   UNK N   1      35.218  19.225   8.616  0.00  0.00     0.174 HD
HETATM   17  H   UNK N   1      33.901  18.716   7.659  0.00  0.00     0.174 HD
HETATM   18  H   UNK N   1      32.879  16.608   8.091  0.00  0.00     0.187 HD
ENDROOT
BRANCH   9  19
HETATM   19  C   UNK N   1      34.985  12.360  13.088  0.00  0.00     0.222 C 
BRANCH  19  20
HETATM   20  O   UNK N   1      34.302  12.528  14.293  0.00  0.00    -0.395 OA
HETATM   21  H   UNK N   1      34.306  11.819  14.956  0.00  0.00     0.209 HD
ENDBRANCH  19  20
ENDBRANCH   9  19
TORSDOF 2
ENDMDL
MODEL 4
REMARK VINA RESULT:      -5.5     11.076     13.637
REMARK  2 active torsions:
REMARK  status: ('A' for Active; 'I' for Inactive)
REMARK       I    between atoms: N_1  and  C_2 
REMARK    1  A    between atoms: C_9  and  C_10 
REMARK    2  A    between atoms: C_10  and  O_11 
ROOT
HETATM    1  N   UNK N   1      26.275  18.070   5.791  0.00  0.00    -0.234 N 
HETATM    2  C   UNK N   1      25.391  18.706   4.899  0.00  0.00     0.680 A 
HETATM    3  N   UNK N   1      24.050  18.482   4.995  0.00  0.00    -0.174 N 
ATOM      4  HN  UNK N   1      23.693  17.854   5.714  1.00  0.00     0.186 HD
HETATM    5  C   UNK N   1      23.183  19.090   4.141  0.00  0.00     0.153 A 
HETATM    6  N   UNK N   1      21.846  18.867   4.236  0.00  0.00    -0.348 N 
ATOM      7  HN  UNK N   1      21.488  18.237   4.955  1.00  0.00     0.167 HD
HETATM    8  C   UNK N   1      20.976  19.475   3.380  0.00  0.00     0.117 A 
HETATM    9  C   UNK N   1      21.467  20.343   2.388  0.00  0.00     0.049 A 
HETATM   10  N   UNK N   1      22.803  20.561   2.299  0.00  0.00    -0.349 N 
ATOM     11  HN  UNK N   1      23.162  21.190   1.580  1.00  0.00     0.166 HD
HETATM   12  C   UNK N   1      23.670  19.955   3.151  0.00  0.00     0.147 A 
HETATM   13  C   UNK N   1      25.043  20.174   3.065  0.00  0.00     0.290 A 
HETATM   14  O   UNK N   1      25.499  20.920   2.217  0.00  0.00    -0.265 OA
HETATM   15  N   UNK N   1      25.881  19.543   3.945  0.00  0.00    -0.154 N 
HETATM   16  H   UNK N   1      25.924  17.463   6.484  0.00  0.00     0.174 HD
HETATM   17  H   UNK N   1      27.244  18.230   5.723  0.00  0.00     0.174 HD
HETATM   18  H   UNK N   1      26.851  19.696   3.886  0.00  0.00     0.187 HD
ENDROOT
BRANCH   9  19
HETATM   19  C   UNK N   1      20.561  21.038   1.421  0.00  0.00     0.222 C 
BRANCH  19  20
HETATM   20  O   UNK N   1      20.876  20.735   0.096  0.00  0.00    -0.395 OA
HETATM   21  H   UNK N   1      21.052  21.449  -0.536  0.00  0.00     0.209 HD
ENDBRANCH  19  20
ENDBRANCH   9  19
TORSDOF 2
ENDMDL
MODEL 5
REMARK VINA RESULT:      -5.4      2.243      4.927
REMARK  2 active torsions:
REMARK  status: ('A' for Active; 'I' for Inactive)
REMARK       I    between atoms: N_1  and  C_2 
REMARK    1  A    between atoms: C_9  and  C_10 
REMARK    2  A    between atoms: C_10  and  O_11 
ROOT
HETATM    1  N   UNK N   1      30.348  17.238   6.445  0.00  0.00    -0.234 N 
HETATM    2  C   UNK N   1      31.494  17.061   7.243  0.00  0.00     0.680 A 
HETATM    3  N   UNK N   1      31.493  16.128   8.237  0.00  0.00    -0.174 N 
ATOM      4  HN  UNK N   1      30.661  15.562   8.397  1.00  0.00     0.186 HD
HETATM    5  C   UNK N   1      32.593  15.945   9.016  0.00  0.00     0.153 A 
HETATM    6  N   UNK N   1      32.593  15.015  10.007  0.00  0.00    -0.348 N 
ATOM      7  HN  UNK N   1      31.760  14.448  10.169  1.00  0.00     0.167 HD
HETATM    8  C   UNK N   1      33.694  14.831  10.788  0.00  0.00     0.117 A 
HETATM    9  C   UNK N   1      34.844  15.611  10.568  0.00  0.00     0.049 A 
HETATM   10  N   UNK N   1      34.837  16.537   9.577  0.00  0.00    -0.349 N 
ATOM     11  HN  UNK N   1      35.669  17.105   9.414  1.00  0.00     0.166 HD
HETATM   12  C   UNK N   1      33.740  16.721   8.798  0.00  0.00     0.147 A 
HETATM   13  C   UNK N   1      33.725  17.670   7.779  0.00  0.00     0.290 A 
HETATM   14  O   UNK N   1      34.705  18.362   7.562  0.00  0.00    -0.265 OA
HETATM   15  N   UNK N   1      32.598  17.823   7.017  0.00  0.00    -0.154 N 
HETATM   16  H   UNK N   1      29.546  16.688   6.605  0.00  0.00     0.174 HD
HETATM   17  H   UNK N   1      30.347  17.911   5.727  0.00  0.00     0.174 HD
HETATM   18  H   UNK N   1      32.586  18.493   6.296  0.00  0.00     0.187 HD
ENDROOT
BRANCH   9  19
HETATM   19  C   UNK N   1      36.082  15.453  11.394  0.00  0.00     0.222 C 
BRANCH  19  20
HETATM   20  O   UNK N   1      37.185  16.074  10.808  0.00  0.00    -0.395 OA
HETATM   21  H   UNK N   1      37.055  16.747  10.120  0.00  0.00     0.209 HD
ENDBRANCH  19  20
ENDBRANCH   9  19
TORSDOF 2
ENDMDL
MODEL 6
REMARK VINA RESULT:      -5.4      2.526      4.918
REMARK  2 active torsions:
REMARK  status: ('A' for Active; 'I' for Inactive)
REMARK       I    between atoms: N_1  and  C_2 
REMARK    1  A    between atoms: C_9  and  C_10 
REMARK    2  A    between atoms: C_10  and  O_11 
ROOT
HETATM    1  N   UNK N   1      33.839  13.913   8.160  0.00  0.00    -0.234 N 
HETATM    2  C   UNK N   1      34.486  14.131   9.392  0.00  0.00     0.680 A 
HETATM    3  N   UNK N   1      34.266  13.282  10.435  0.00  0.00    -0.174 N 
ATOM      4  HN  UNK N   1      33.633  12.491  10.318  1.00  0.00     0.186 HD
HETATM    5  C   UNK N   1      34.883  13.479  11.631  0.00  0.00     0.153 A 
HETATM    6  N   UNK N   1      34.664  12.632  12.671  0.00  0.00    -0.348 N 
ATOM      7  HN  UNK N   1      34.031  11.841  12.555  1.00  0.00     0.167 HD
HETATM    8  C   UNK N   1      35.282  12.829  13.870  0.00  0.00     0.117 A 
HETATM    9  C   UNK N   1      36.156  13.919  14.033  0.00  0.00     0.049 A 
HETATM   10  N   UNK N   1      36.369  14.760  12.991  0.00  0.00    -0.349 N 
ATOM     11  HN  UNK N   1      37.003  15.552  13.106  1.00  0.00     0.166 HD
HETATM   12  C   UNK N   1      35.754  14.565  11.796  0.00  0.00     0.147 A 
HETATM   13  C   UNK N   1      35.969  15.424  10.721  0.00  0.00     0.290 A 
HETATM   14  O   UNK N   1      36.720  16.377  10.830  0.00  0.00    -0.265 OA
HETATM   15  N   UNK N   1      35.328  15.190   9.533  0.00  0.00    -0.154 N 
HETATM   16  H   UNK N   1      33.228  13.147   8.053  0.00  0.00     0.174 HD
HETATM   17  H   UNK N   1      33.997  14.525   7.406  0.00  0.00     0.174 HD
HETATM   18  H   UNK N   1      35.478  15.795   8.773  0.00  0.00     0.187 HD
ENDROOT
BRANCH   9  19
HETATM   19  C   UNK N   1      36.862  14.186  15.326  0.00  0.00     0.222 C 
BRANCH  19  20
HETATM   20  O   UNK N   1      37.661  15.327  15.261  0.00  0.00    -0.395 OA
HETATM   21  H   UNK N   1      38.611  15.245  15.078  0.00  0.00     0.209 HD
ENDBRANCH  19  20
ENDBRANCH   9  19
TORSDOF 2
ENDMDL
MODEL 7
REMARK VINA RESULT:      -5.3      2.902      3.477
REMARK  2 active torsions:
REMARK  status: ('A' for Active; 'I' for Inactive)
REMARK       I    between atoms: N_1  and  C_2 
REMARK    1  A    between atoms: C_9  and  C_10 
REMARK    2  A    between atoms: C_10  and  O_11 
ROOT
HETATM    1  N   UNK N   1      34.580  15.551  11.333  0.00  0.00    -0.234 N 
HETATM    2  C   UNK N   1      34.344  16.105  10.061  0.00  0.00     0.680 A 
HETATM    3  N   UNK N   1      33.677  15.382   9.117  0.00  0.00    -0.174 N 
ATOM      4  HN  UNK N   1      33.351  14.442   9.339  1.00  0.00     0.186 HD
HETATM    5  C   UNK N   1      33.442  15.903   7.883  0.00  0.00     0.153 A 
HETATM    6  N   UNK N   1      32.776  15.182   6.942  0.00  0.00    -0.348 N 
ATOM      7  HN  UNK N   1      32.450  14.241   7.163  1.00  0.00     0.167 HD
HETATM    8  C   UNK N   1      32.540  15.704   5.705  0.00  0.00     0.117 A 
HETATM    9  C   UNK N   1      32.989  17.001   5.398  0.00  0.00     0.049 A 
HETATM   10  N   UNK N   1      33.652  17.714   6.342  0.00  0.00    -0.349 N 
ATOM     11  HN  UNK N   1      33.978  18.656   6.122  1.00  0.00     0.166 HD
HETATM   12  C   UNK N   1      33.888  17.196   7.574  0.00  0.00     0.147 A 
HETATM   13  C   UNK N   1      34.568  17.923   8.549  0.00  0.00     0.290 A 
HETATM   14  O   UNK N   1      34.969  19.049   8.314  0.00  0.00    -0.265 OA
HETATM   15  N   UNK N   1      34.784  17.361   9.779  0.00  0.00    -0.154 N 
HETATM   16  H   UNK N   1      34.263  14.642  11.542  0.00  0.00     0.174 HD
HETATM   17  H   UNK N   1      35.061  16.073  12.016  0.00  0.00     0.174 HD
HETATM   18  H   UNK N   1      35.265  17.873  10.469  0.00  0.00     0.187 HD
ENDROOT
BRANCH   9  19
HETATM   19  C   UNK N   1      32.758  17.625   4.057  0.00  0.00     0.222 C 
BRANCH  19  20
HETATM   20  O   UNK N   1      31.450  18.090   3.914  0.00  0.00    -0.395 OA
HETATM   21  H   UNK N   1      30.833  18.040   4.661  0.00  0.00     0.209 HD
ENDBRANCH  19  20
ENDBRANCH   9  19
TORSDOF 2
ENDMDL
MODEL 8
REMARK VINA RESULT:      -5.3      4.138      6.616
REMARK  2 active torsions:
REMARK  status: ('A' for Active; 'I' for Inactive)
REMARK       I    between atoms: N_1  and  C_2 
REMARK    1  A    between atoms: C_9  and  C_10 
REMARK    2  A    between atoms: C_10  and  O_11 
ROOT
HETATM    1  N   UNK N   1      26.984  17.448   6.661  0.00  0.00    -0.234 N 
HETATM    2  C   UNK N   1      28.278  17.597   7.195  0.00  0.00     0.680 A 
HETATM    3  N   UNK N   1      29.365  17.262   6.445  0.00  0.00    -0.174 N 
ATOM      4  HN  UNK N   1      29.236  16.904   5.500  1.00  0.00     0.186 HD
HETATM    5  C   UNK N   1      30.622  17.400   6.947  0.00  0.00     0.153 A 
HETATM    6  N   UNK N   1      31.707  17.065   6.199  0.00  0.00    -0.348 N 
ATOM      7  HN  UNK N   1      31.578  16.707   5.253  1.00  0.00     0.167 HD
HETATM    8  C   UNK N   1      32.967  17.204   6.701  0.00  0.00     0.117 A 
HETATM    9  C   UNK N   1      33.147  17.697   8.006  0.00  0.00     0.049 A 
HETATM   10  N   UNK N   1      32.060  18.029   8.746  0.00  0.00    -0.349 N 
ATOM     11  HN  UNK N   1      32.187  18.388   9.693  1.00  0.00     0.166 HD
HETATM   12  C   UNK N   1      30.805  17.892   8.247  0.00  0.00     0.147 A 
HETATM   13  C   UNK N   1      29.683  18.231   9.001  0.00  0.00     0.290 A 
HETATM   14  O   UNK N   1      29.806  18.661  10.134  0.00  0.00    -0.265 OA
HETATM   15  N   UNK N   1      28.435  18.077   8.458  0.00  0.00    -0.154 N 
HETATM   16  H   UNK N   1      26.864  17.102   5.746  0.00  0.00     0.174 HD
HETATM   17  H   UNK N   1      26.197  17.691   7.201  0.00  0.00     0.174 HD
HETATM   18  H   UNK N   1      27.642  18.315   8.989  0.00  0.00     0.187 HD
ENDROOT
BRANCH   9  19
HETATM   19  C   UNK N   1      34.506  17.870   8.610  0.00  0.00     0.222 C 
BRANCH  19  20
HETATM   20  O   UNK N   1      35.029  19.141   8.366  0.00  0.00    -0.395 OA
HETATM   21  H   UNK N   1      35.406  19.352   7.497  0.00  0.00     0.209 HD
ENDBRANCH  19  20
ENDBRANCH   9  19
TORSDOF 2
ENDMDL
MODEL 9
REMARK VINA RESULT:      -5.3      1.704      1.723
REMARK  2 active torsions:
REMARK  status: ('A' for Active; 'I' for Inactive)
REMARK       I    between atoms: N_1  and  C_2 
REMARK    1  A    between atoms: C_9  and  C_10 
REMARK    2  A    between atoms: C_10  and  O_11 
ROOT
HETATM    1  N   UNK N   1      35.353  13.639  13.003  0.00  0.00    -0.234 N 
HETATM    2  C   UNK N   1      35.048  14.447  11.892  0.00  0.00     0.680 A 
HETATM    3  N   UNK N   1      34.115  14.034  10.987  0.00  0.00    -0.174 N 
ATOM      4  HN  UNK N   1      33.643  13.141  11.120  1.00  0.00     0.186 HD
HETATM    5  C   UNK N   1      33.809  14.804   9.908  0.00  0.00     0.153 A 
HETATM    6  N   UNK N   1      32.879  14.393   9.005  0.00  0.00    -0.348 N 
ATOM      7  HN  UNK N   1      32.406  13.498   9.138  1.00  0.00     0.167 HD
HETATM    8  C   UNK N   1      32.572  15.163   7.924  0.00  0.00     0.117 A 
HETATM    9  C   UNK N   1      33.222  16.396   7.739  0.00  0.00     0.049 A 
HETATM   10  N   UNK N   1      34.149  16.800   8.643  0.00  0.00    -0.349 N 
ATOM     11  HN  UNK N   1      34.623  17.694   8.511  1.00  0.00     0.166 HD
HETATM   12  C   UNK N   1      34.456  16.034   9.721  0.00  0.00     0.147 A 
HETATM   13  C   UNK N   1      35.407  16.441  10.654  0.00  0.00     0.290 A 
HETATM   14  O   UNK N   1      35.988  17.504  10.522  0.00  0.00    -0.265 OA
HETATM   15  N   UNK N   1      35.686  15.637  11.726  0.00  0.00    -0.154 N 
HETATM   16  H   UNK N   1      34.894  12.776  13.127  0.00  0.00     0.174 HD
HETATM   17  H   UNK N   1      36.027  13.936  13.657  0.00  0.00     0.174 HD
HETATM   18  H   UNK N   1      36.357  15.924  12.387  0.00  0.00     0.187 HD
ENDROOT
BRANCH   9  19
HETATM   19  C   UNK N   1      32.926  17.284   6.570  0.00  0.00     0.222 C 
BRANCH  19  20
HETATM   20  O   UNK N   1      34.081  17.869   6.050  0.00  0.00    -0.395 OA
HETATM   21  H   UNK N   1      34.870  17.962   6.607  0.00  0.00     0.209 HD
ENDBRANCH  19  20
ENDBRANCH   9  19
TORSDOF 2
ENDMDL
