REMARK  2 active torsions:
REMARK  status: ('A' for Active; 'I' for Inactive)
REMARK    1  A    between atoms: C_4  and  N_5 
REMARK    2  A    between atoms: C_6  and  N_7 
ROOT
HETATM    1  C   UNK N   1       3.332   1.716   0.000  0.00  0.00     0.049 C 
HETATM    2  C   UNK N   1       1.986   1.074  -0.000  0.00  0.00    -0.054 A 
HETATM    3  C   UNK N   1       1.908  -0.321   0.000  0.00  0.00     0.038 A 
HETATM    4  C   UNK N   1       0.665  -0.960   0.000  0.00  0.00     0.052 A 
HETATM    5  C   UNK N   1      -0.512  -0.196  -0.000  0.00  0.00     0.052 A 
HETATM    6  C   UNK N   1      -0.438   1.198  -0.000  0.00  0.00     0.038 A 
HETATM    7  C   UNK N   1       0.803   1.840  -0.000  0.00  0.00    -0.054 A 
HETATM    8  C   UNK N   1       0.838   3.330  -0.000  0.00  0.00     0.049 C 
ENDROOT
BRANCH   4   9
HETATM    9  N   UNK N   1       0.607  -2.368   0.000  0.00  0.00    -0.397 N 
HETATM   10  H   UNK N   1      -0.266  -2.825   0.000  0.00  0.00     0.156 HD
HETATM   11  H   UNK N   1       1.438  -2.895   0.000  0.00  0.00     0.156 HD
ENDBRANCH   4   9
BRANCH   5  12
HETATM   12  N   UNK N   1      -1.775  -0.825  -0.000  0.00  0.00    -0.397 N 
HETATM   13  H   UNK N   1      -2.596  -0.282   0.000  0.00  0.00     0.156 HD
HETATM   14  H   UNK N   1      -1.835  -1.808  -0.000  0.00  0.00     0.156 HD
ENDBRANCH   5  12
TORSDOF 2
