REMARK  3 active torsions:
REMARK  status: ('A' for Active; 'I' for Inactive)
REMARK    1  A    between atoms: N_1  and  C_2 
REMARK    2  A    between atoms: C_2  and  C_3 
REMARK    3  A    between atoms: C_3  and  N_4 
ROOT
HETATM    1  N   UNK N   1       0.800   1.351  -0.000  0.00  0.00    -0.407 N 
HETATM    2  C   UNK N   1       2.137   0.798   0.000  0.00  0.00     0.143 A 
HETATM    3  C   UNK N   1       2.232  -0.722  -0.000  0.00  0.00     0.187 A 
HETATM    4  O   UNK N   1       1.088  -1.550   0.000  0.00  0.00    -0.388 OA
HETATM    5  C   UNK N   1      -0.198  -0.967  -0.000  0.00  0.00     0.187 A 
HETATM    6  C   UNK N   1      -0.405   0.541   0.000  0.00  0.00     0.143 A 
ENDROOT
BRANCH   1   7
HETATM    7  C   UNK N   1       0.726   2.813   0.000  0.00  0.00     0.136 C 
BRANCH   7   8
HETATM    8  C   UNK N   1      -0.700   3.346  -0.000  0.00  0.00     0.130 C 
BRANCH   8   9
HETATM    9  N   UNK N   1      -0.676   4.796   0.000  0.00  0.00    -0.429 N 
HETATM   10  H   UNK N   1       0.216   5.290   0.000  0.00  0.00     0.149 HD
HETATM   11  H   UNK N   1      -1.550   5.321   0.000  0.00  0.00     0.149 HD
ENDBRANCH   8   9
ENDBRANCH   7   8
ENDBRANCH   1   7
TORSDOF 3
