MODEL 1
REMARK VINA RESULT:      -6.0      0.000      0.000
REMARK  23 active torsions:
REMARK  status: ('A' for Active; 'I' for Inactive)
REMARK    1  A    between atoms: C_3  and  C_2 
REMARK    2  A    between atoms: C_4  and  C_3 
REMARK    3  A    between atoms: C_5  and  C_4 
REMARK    4  A    between atoms: C_6  and  C_5 
REMARK    5  A    between atoms: C_7  and  C_6 
REMARK    6  A    between atoms: C_8  and  C_7 
REMARK    7  A    between atoms: C_9  and  C_8 
REMARK    8  A    between atoms: C_10  and  C_9 
REMARK    9  A    between atoms: C_11  and  C_10 
REMARK   10  A    between atoms: C_12  and  C_11 
REMARK   11  A    between atoms: O_32  and  C_12 
REMARK   12  A    between atoms: C_15  and  C_13 
REMARK   13  A    between atoms: O_25  and  C_13 
REMARK   14  A    between atoms: C_16  and  C_14 
REMARK   15  A    between atoms: O_26  and  C_14 
REMARK   16  A    between atoms: C_17  and  O_27 
REMARK   17  A    between atoms: C_18  and  O_28 
REMARK   18  A    between atoms: C_19  and  O_29 
REMARK   19  A    between atoms: C_20  and  O_30 
REMARK   20  A    between atoms: C_21  and  O_31 
REMARK   21  A    between atoms: C_22  and  O_35 
REMARK   22  A    between atoms: C_23  and  O_32 
REMARK   23  A    between atoms: C_24  and  O_35 
ROOT
HETATM    1  C   UNK N   1      35.645  14.045   8.777  0.00  0.00     0.180 C 
HETATM    2  C   UNK N   1      34.826  16.074   9.969  0.00  0.00     0.183 C 
HETATM    3  C   UNK N   1      34.270  15.142  11.053  0.00  0.00     0.204 C 
HETATM    4  C   UNK N   1      34.863  15.362   8.600  0.00  0.00     0.187 C 
HETATM    5  C   UNK N   1      35.074  13.829  11.051  0.00  0.00     0.291 C 
HETATM    6  O   UNK N   1      35.026  13.224   9.760  0.00  0.00    -0.348 OA
ENDROOT
BRANCH   4   7
HETATM    7  O   UNK N   1      33.559  15.030   8.134  0.00  0.00    -0.348 OA
BRANCH   7   8
HETATM    8  C   UNK N   1      32.906  16.013   7.343  0.00  0.00     0.292 C 
HETATM    9  C   UNK N   1      31.387  16.304   7.651  0.00  0.00     0.204 C 
HETATM   10  C   UNK N   1      30.943  17.349   6.631  0.00  0.00     0.183 C 
HETATM   11  C   UNK N   1      31.094  16.780   5.197  0.00  0.00     0.180 C 
HETATM   12  C   UNK N   1      32.122  15.611   5.152  0.00  0.00     0.179 C 
HETATM   13  O   UNK N   1      33.248  15.872   5.958  0.00  0.00    -0.348 OA
BRANCH   9  14
HETATM   14  O   UNK N   1      31.247  16.792   8.955  0.00  0.00    -0.388 OA
HETATM   15  H   UNK N   1      31.603  17.657   9.213  0.00  0.00     0.210 HD
ENDBRANCH   9  14
BRANCH  10  16
HETATM   16  O   UNK N   1      29.628  17.768   6.851  0.00  0.00    -0.390 OA
HETATM   17  H   UNK N   1      29.150  17.793   7.694  0.00  0.00     0.210 HD
ENDBRANCH  10  16
BRANCH  11  18
HETATM   18  O   UNK N   1      31.455  17.822   4.339  0.00  0.00    -0.390 OA
HETATM   19  H   UNK N   1      31.245  18.090   3.431  0.00  0.00     0.210 HD
ENDBRANCH  11  18
BRANCH  12  20
HETATM   20  C   UNK N   1      32.586  15.306   3.729  0.00  0.00     0.198 C 
BRANCH  20  21
HETATM   21  O   UNK N   1      33.882  14.786   3.730  0.00  0.00    -0.398 OA
HETATM   22  H   UNK N   1      34.747  14.849   3.295  0.00  0.00     0.209 HD
ENDBRANCH  20  21
ENDBRANCH  12  20
ENDBRANCH   7   8
ENDBRANCH   4   7
BRANCH   1  23
HETATM   23  C   UNK N   1      35.696  13.273   7.464  0.00  0.00     0.198 C 
BRANCH  23  24
HETATM   24  O   UNK N   1      35.567  14.147   6.382  0.00  0.00    -0.398 OA
HETATM   25  H   UNK N   1      35.272  13.817   5.519  0.00  0.00     0.209 HD
ENDBRANCH  23  24
ENDBRANCH   1  23
BRANCH   2  26
HETATM   26  O   UNK N   1      34.082  17.252   9.912  0.00  0.00    -0.390 OA
HETATM   27  H   UNK N   1      33.848  17.650   9.059  0.00  0.00     0.210 HD
ENDBRANCH   2  26
BRANCH   3  28
HETATM   28  O   UNK N   1      32.922  14.864  10.800  0.00  0.00    -0.388 OA
HETATM   29  H   UNK N   1      32.085  14.542  10.428  0.00  0.00     0.210 HD
ENDBRANCH   3  28
BRANCH   5  30
HETATM   30  O   UNK N   1      36.401  14.063  11.498  0.00  0.00    -0.359 OA
BRANCH  30  31
HETATM   31  C   UNK N   1      36.423  14.063  12.906  0.00  0.00     0.171 C 
BRANCH  31  32
HETATM   32  C   UNK N   1      36.819  12.708  13.448  0.00  0.00     0.026 C 
BRANCH  32  33
HETATM   33  C   UNK N   1      37.095  12.815  14.938  0.00  0.00     0.002 C 
BRANCH  33  34
HETATM   34  C   UNK N   1      36.692  14.185  15.461  0.00  0.00     0.000 C 
BRANCH  34  35
HETATM   35  C   UNK N   1      36.203  14.121  16.903  0.00  0.00     0.000 C 
BRANCH  35  36
HETATM   36  C   UNK N   1      34.982  13.221  17.047  0.00  0.00     0.000 C 
BRANCH  36  37
HETATM   37  C   UNK N   1      35.194  12.172  18.131  0.00  0.00     0.000 C 
BRANCH  37  38
HETATM   38  C   UNK N   1      35.752  10.883  17.557  0.00  0.00     0.000 C 
BRANCH  38  39
HETATM   39  C   UNK N   1      34.656  10.034  16.933  0.00  0.00     0.000 C 
BRANCH  39  40
HETATM   40  C   UNK N   1      34.870   9.952  15.432  0.00  0.00    -0.000 C 
BRANCH  40  41
HETATM   41  C   UNK N   1      33.764  10.685  14.698  0.00  0.00    -0.005 C 
HETATM   42  C   UNK N   1      33.863  10.387  13.217  0.00  0.00     0.005 C 
ENDBRANCH  40  41
ENDBRANCH  39  40
ENDBRANCH  38  39
ENDBRANCH  37  38
ENDBRANCH  36  37
ENDBRANCH  35  36
ENDBRANCH  34  35
ENDBRANCH  33  34
ENDBRANCH  32  33
ENDBRANCH  31  32
ENDBRANCH  30  31
ENDBRANCH   5  30
TORSDOF 23
ENDMDL
MODEL 2
REMARK VINA RESULT:      -6.0      1.750      3.471
REMARK  23 active torsions:
REMARK  status: ('A' for Active; 'I' for Inactive)
REMARK    1  A    between atoms: C_3  and  C_2 
REMARK    2  A    between atoms: C_4  and  C_3 
REMARK    3  A    between atoms: C_5  and  C_4 
REMARK    4  A    between atoms: C_6  and  C_5 
REMARK    5  A    between atoms: C_7  and  C_6 
REMARK    6  A    between atoms: C_8  and  C_7 
REMARK    7  A    between atoms: C_9  and  C_8 
REMARK    8  A    between atoms: C_10  and  C_9 
REMARK    9  A    between atoms: C_11  and  C_10 
REMARK   10  A    between atoms: C_12  and  C_11 
REMARK   11  A    between atoms: O_32  and  C_12 
REMARK   12  A    between atoms: C_15  and  C_13 
REMARK   13  A    between atoms: O_25  and  C_13 
REMARK   14  A    between atoms: C_16  and  C_14 
REMARK   15  A    between atoms: O_26  and  C_14 
REMARK   16  A    between atoms: C_17  and  O_27 
REMARK   17  A    between atoms: C_18  and  O_28 
REMARK   18  A    between atoms: C_19  and  O_29 
REMARK   19  A    between atoms: C_20  and  O_30 
REMARK   20  A    between atoms: C_21  and  O_31 
REMARK   21  A    between atoms: C_22  and  O_35 
REMARK   22  A    between atoms: C_23  and  O_32 
REMARK   23  A    between atoms: C_24  and  O_35 
ROOT
HETATM    1  C   UNK N   1      35.110  12.089   9.342  0.00  0.00     0.180 C 
HETATM    2  C   UNK N   1      36.367  13.477  10.985  0.00  0.00     0.183 C 
HETATM    3  C   UNK N   1      35.409  12.964  12.066  0.00  0.00     0.204 C 
HETATM    4  C   UNK N   1      35.676  13.499   9.605  0.00  0.00     0.187 C 
HETATM    5  C   UNK N   1      34.839  11.602  11.629  0.00  0.00     0.291 C 
HETATM    6  O   UNK N   1      34.191  11.722  10.365  0.00  0.00    -0.348 OA
ENDROOT
BRANCH   4   7
HETATM    7  O   UNK N   1      34.588  14.416   9.565  0.00  0.00    -0.348 OA
BRANCH   7   8
HETATM    8  C   UNK N   1      34.728  15.519   8.682  0.00  0.00     0.292 C 
HETATM    9  C   UNK N   1      34.661  16.966   9.306  0.00  0.00     0.204 C 
HETATM   10  C   UNK N   1      34.788  17.937   8.135  0.00  0.00     0.183 C 
HETATM   11  C   UNK N   1      33.610  17.729   7.151  0.00  0.00     0.180 C 
HETATM   12  C   UNK N   1      32.985  16.311   7.300  0.00  0.00     0.179 C 
HETATM   13  O   UNK N   1      33.969  15.320   7.481  0.00  0.00    -0.348 OA
BRANCH   9  14
HETATM   14  O   UNK N   1      35.709  17.145  10.216  0.00  0.00    -0.388 OA
HETATM   15  H   UNK N   1      35.698  16.723  11.090  0.00  0.00     0.210 HD
ENDBRANCH   9  14
BRANCH  10  16
HETATM   16  O   UNK N   1      34.836  19.267   8.563  0.00  0.00    -0.390 OA
HETATM   17  H   UNK N   1      35.581  19.727   8.979  0.00  0.00     0.210 HD
ENDBRANCH  10  16
BRANCH  11  18
HETATM   18  O   UNK N   1      34.070  17.959   5.851  0.00  0.00    -0.390 OA
HETATM   19  H   UNK N   1      33.866  18.578   5.131  0.00  0.00     0.210 HD
ENDBRANCH  11  18
BRANCH  12  20
HETATM   20  C   UNK N   1      32.114  15.936   6.102  0.00  0.00     0.198 C 
BRANCH  20  21
HETATM   21  O   UNK N   1      31.196  16.948   5.819  0.00  0.00    -0.398 OA
HETATM   22  H   UNK N   1      30.415  17.411   6.163  0.00  0.00     0.209 HD
ENDBRANCH  20  21
ENDBRANCH  12  20
ENDBRANCH   7   8
ENDBRANCH   4   7
BRANCH   1  23
HETATM   23  C   UNK N   1      34.385  12.046   8.002  0.00  0.00     0.198 C 
BRANCH  23  24
HETATM   24  O   UNK N   1      33.063  12.472   8.152  0.00  0.00    -0.398 OA
HETATM   25  H   UNK N   1      32.640  13.008   7.463  0.00  0.00     0.209 HD
ENDBRANCH  23  24
ENDBRANCH   1  23
BRANCH   2  26
HETATM   26  O   UNK N   1      36.860  14.736  11.329  0.00  0.00    -0.390 OA
HETATM   27  H   UNK N   1      37.755  15.006  11.072  0.00  0.00     0.210 HD
ENDBRANCH   2  26
BRANCH   3  28
HETATM   28  O   UNK N   1      34.359  13.872  12.247  0.00  0.00    -0.388 OA
HETATM   29  H   UNK N   1      33.544  14.390  12.161  0.00  0.00     0.210 HD
ENDBRANCH   3  28
BRANCH   5  30
HETATM   30  O   UNK N   1      35.861  10.616  11.631  0.00  0.00    -0.359 OA
BRANCH  30  31
HETATM   31  C   UNK N   1      35.339   9.407  12.128  0.00  0.00     0.171 C 
BRANCH  31  32
HETATM   32  C   UNK N   1      35.554   9.289  13.621  0.00  0.00     0.026 C 
BRANCH  32  33
HETATM   33  C   UNK N   1      36.991   9.649  13.959  0.00  0.00     0.002 C 
BRANCH  33  34
HETATM   34  C   UNK N   1      37.137   9.929  15.447  0.00  0.00     0.000 C 
BRANCH  34  35
HETATM   35  C   UNK N   1      36.509   8.830  16.294  0.00  0.00     0.000 C 
BRANCH  35  36
HETATM   36  C   UNK N   1      35.584   9.398  17.364  0.00  0.00     0.000 C 
BRANCH  36  37
HETATM   37  C   UNK N   1      34.975  10.722  16.921  0.00  0.00     0.000 C 
BRANCH  37  38
HETATM   38  C   UNK N   1      35.504  11.881  17.746  0.00  0.00     0.000 C 
BRANCH  38  39
HETATM   39  C   UNK N   1      35.035  13.216  17.191  0.00  0.00     0.000 C 
BRANCH  39  40
HETATM   40  C   UNK N   1      35.298  13.266  15.697  0.00  0.00    -0.000 C 
BRANCH  40  41
HETATM   41  C   UNK N   1      36.770  13.509  15.427  0.00  0.00    -0.005 C 
HETATM   42  C   UNK N   1      37.114  14.940  15.783  0.00  0.00     0.005 C 
ENDBRANCH  40  41
ENDBRANCH  39  40
ENDBRANCH  38  39
ENDBRANCH  37  38
ENDBRANCH  36  37
ENDBRANCH  35  36
ENDBRANCH  34  35
ENDBRANCH  33  34
ENDBRANCH  32  33
ENDBRANCH  31  32
ENDBRANCH  30  31
ENDBRANCH   5  30
TORSDOF 23
ENDMDL
MODEL 3
REMARK VINA RESULT:      -6.0      1.640      2.873
REMARK  23 active torsions:
REMARK  status: ('A' for Active; 'I' for Inactive)
REMARK    1  A    between atoms: C_3  and  C_2 
REMARK    2  A    between atoms: C_4  and  C_3 
REMARK    3  A    between atoms: C_5  and  C_4 
REMARK    4  A    between atoms: C_6  and  C_5 
REMARK    5  A    between atoms: C_7  and  C_6 
REMARK    6  A    between atoms: C_8  and  C_7 
REMARK    7  A    between atoms: C_9  and  C_8 
REMARK    8  A    between atoms: C_10  and  C_9 
REMARK    9  A    between atoms: C_11  and  C_10 
REMARK   10  A    between atoms: C_12  and  C_11 
REMARK   11  A    between atoms: O_32  and  C_12 
REMARK   12  A    between atoms: C_15  and  C_13 
REMARK   13  A    between atoms: O_25  and  C_13 
REMARK   14  A    between atoms: C_16  and  C_14 
REMARK   15  A    between atoms: O_26  and  C_14 
REMARK   16  A    between atoms: C_17  and  O_27 
REMARK   17  A    between atoms: C_18  and  O_28 
REMARK   18  A    between atoms: C_19  and  O_29 
REMARK   19  A    between atoms: C_20  and  O_30 
REMARK   20  A    between atoms: C_21  and  O_31 
REMARK   21  A    between atoms: C_22  and  O_35 
REMARK   22  A    between atoms: C_23  and  O_32 
REMARK   23  A    between atoms: C_24  and  O_35 
ROOT
HETATM    1  C   UNK N   1      33.660  14.794   7.011  0.00  0.00     0.180 C 
HETATM    2  C   UNK N   1      33.721  16.521   8.804  0.00  0.00     0.183 C 
HETATM    3  C   UNK N   1      33.692  15.379   9.827  0.00  0.00     0.204 C 
HETATM    4  C   UNK N   1      33.013  16.106   7.497  0.00  0.00     0.187 C 
HETATM    5  C   UNK N   1      34.269  14.107   9.179  0.00  0.00     0.291 C 
HETATM    6  O   UNK N   1      33.536  13.779   8.000  0.00  0.00    -0.348 OA
ENDROOT
BRANCH   4   7
HETATM    7  O   UNK N   1      31.625  15.856   7.696  0.00  0.00    -0.348 OA
BRANCH   7   8
HETATM    8  C   UNK N   1      30.750  16.949   7.463  0.00  0.00     0.292 C 
HETATM    9  C   UNK N   1      29.623  17.222   8.531  0.00  0.00     0.204 C 
HETATM   10  C   UNK N   1      28.818  18.405   8.002  0.00  0.00     0.183 C 
HETATM   11  C   UNK N   1      28.178  18.038   6.639  0.00  0.00     0.180 C 
HETATM   12  C   UNK N   1      28.940  16.868   5.948  0.00  0.00     0.179 C 
HETATM   13  O   UNK N   1      30.335  16.995   6.090  0.00  0.00    -0.348 OA
BRANCH   9  14
HETATM   14  O   UNK N   1      30.200  17.528   9.769  0.00  0.00    -0.388 OA
HETATM   15  H   UNK N   1      30.133  18.416  10.153  0.00  0.00     0.210 HD
ENDBRANCH   9  14
BRANCH  10  16
HETATM   16  O   UNK N   1      27.833  18.814   8.906  0.00  0.00    -0.390 OA
HETATM   17  H   UNK N   1      26.935  19.118   8.705  0.00  0.00     0.210 HD
ENDBRANCH  10  16
BRANCH  11  18
HETATM   18  O   UNK N   1      28.147  19.182   5.838  0.00  0.00    -0.390 OA
HETATM   19  H   UNK N   1      28.552  20.063   5.853  0.00  0.00     0.210 HD
ENDBRANCH  11  18
BRANCH  12  20
HETATM   20  C   UNK N   1      28.598  16.755   4.464  0.00  0.00     0.198 C 
BRANCH  20  21
HETATM   21  O   UNK N   1      29.463  17.533   3.693  0.00  0.00    -0.398 OA
HETATM   22  H   UNK N   1      29.580  17.933   2.817  0.00  0.00     0.209 HD
ENDBRANCH  20  21
ENDBRANCH  12  20
ENDBRANCH   7   8
ENDBRANCH   4   7
BRANCH   1  23
HETATM   23  C   UNK N   1      32.986  14.307   5.733  0.00  0.00     0.198 C 
BRANCH  23  24
HETATM   24  O   UNK N   1      32.611  15.393   4.939  0.00  0.00    -0.398 OA
HETATM   25  H   UNK N   1      31.703  15.467   4.606  0.00  0.00     0.209 HD
ENDBRANCH  23  24
ENDBRANCH   1  23
BRANCH   2  26
HETATM   26  O   UNK N   1      33.154  17.675   9.347  0.00  0.00    -0.390 OA
HETATM   27  H   UNK N   1      32.233  17.912   9.157  0.00  0.00     0.210 HD
ENDBRANCH   2  26
BRANCH   3  28
HETATM   28  O   UNK N   1      32.376  15.136  10.238  0.00  0.00    -0.388 OA
HETATM   29  H   UNK N   1      31.522  15.144  10.698  0.00  0.00     0.210 HD
ENDBRANCH   3  28
BRANCH   5  30
HETATM   30  O   UNK N   1      35.659  14.265   8.934  0.00  0.00    -0.359 OA
BRANCH  30  31
HETATM   31  C   UNK N   1      36.315  13.044   9.177  0.00  0.00     0.171 C 
BRANCH  31  32
HETATM   32  C   UNK N   1      35.869  12.433  10.487  0.00  0.00     0.026 C 
BRANCH  32  33
HETATM   33  C   UNK N   1      37.070  11.852  11.214  0.00  0.00     0.002 C 
BRANCH  33  34
HETATM   34  C   UNK N   1      37.095  12.314  12.663  0.00  0.00     0.000 C 
BRANCH  34  35
HETATM   35  C   UNK N   1      36.039  13.377  12.936  0.00  0.00     0.000 C 
BRANCH  35  36
HETATM   36  C   UNK N   1      36.397  14.236  14.142  0.00  0.00     0.000 C 
BRANCH  36  37
HETATM   37  C   UNK N   1      36.508  13.394  15.407  0.00  0.00     0.000 C 
BRANCH  37  38
HETATM   38  C   UNK N   1      35.141  13.016  15.944  0.00  0.00     0.000 C 
BRANCH  38  39
HETATM   39  C   UNK N   1      35.149  11.622  16.551  0.00  0.00     0.000 C 
BRANCH  39  40
HETATM   40  C   UNK N   1      34.972  10.589  15.453  0.00  0.00    -0.000 C 
BRANCH  40  41
HETATM   41  C   UNK N   1      33.718  10.880  14.650  0.00  0.00    -0.005 C 
HETATM   42  C   UNK N   1      33.907  10.388  13.231  0.00  0.00     0.005 C 
ENDBRANCH  40  41
ENDBRANCH  39  40
ENDBRANCH  38  39
ENDBRANCH  37  38
ENDBRANCH  36  37
ENDBRANCH  35  36
ENDBRANCH  34  35
ENDBRANCH  33  34
ENDBRANCH  32  33
ENDBRANCH  31  32
ENDBRANCH  30  31
ENDBRANCH   5  30
TORSDOF 23
ENDMDL
MODEL 4
REMARK VINA RESULT:      -5.7      2.238      3.491
REMARK  23 active torsions:
REMARK  status: ('A' for Active; 'I' for Inactive)
REMARK    1  A    between atoms: C_3  and  C_2 
REMARK    2  A    between atoms: C_4  and  C_3 
REMARK    3  A    between atoms: C_5  and  C_4 
REMARK    4  A    between atoms: C_6  and  C_5 
REMARK    5  A    between atoms: C_7  and  C_6 
REMARK    6  A    between atoms: C_8  and  C_7 
REMARK    7  A    between atoms: C_9  and  C_8 
REMARK    8  A    between atoms: C_10  and  C_9 
REMARK    9  A    between atoms: C_11  and  C_10 
REMARK   10  A    between atoms: C_12  and  C_11 
REMARK   11  A    between atoms: O_32  and  C_12 
REMARK   12  A    between atoms: C_15  and  C_13 
REMARK   13  A    between atoms: O_25  and  C_13 
REMARK   14  A    between atoms: C_16  and  C_14 
REMARK   15  A    between atoms: O_26  and  C_14 
REMARK   16  A    between atoms: C_17  and  O_27 
REMARK   17  A    between atoms: C_18  and  O_28 
REMARK   18  A    between atoms: C_19  and  O_29 
REMARK   19  A    between atoms: C_20  and  O_30 
REMARK   20  A    between atoms: C_21  and  O_31 
REMARK   21  A    between atoms: C_22  and  O_35 
REMARK   22  A    between atoms: C_23  and  O_32 
REMARK   23  A    between atoms: C_24  and  O_35 
ROOT
HETATM    1  C   UNK N   1      35.091  12.067   9.747  0.00  0.00     0.180 C 
HETATM    2  C   UNK N   1      36.576  13.712  10.886  0.00  0.00     0.183 C 
HETATM    3  C   UNK N   1      35.797  13.435  12.177  0.00  0.00     0.204 C 
HETATM    4  C   UNK N   1      35.682  13.488   9.648  0.00  0.00     0.187 C 
HETATM    5  C   UNK N   1      35.176  12.028  12.100  0.00  0.00     0.291 C 
HETATM    6  O   UNK N   1      34.342  11.921  10.948  0.00  0.00    -0.348 OA
ENDROOT
BRANCH   4   7
HETATM    7  O   UNK N   1      34.594  14.406   9.599  0.00  0.00    -0.348 OA
BRANCH   7   8
HETATM    8  C   UNK N   1      34.717  15.475   8.673  0.00  0.00     0.292 C 
HETATM    9  C   UNK N   1      34.585  16.943   9.234  0.00  0.00     0.204 C 
HETATM   10  C   UNK N   1      34.705  17.868   8.026  0.00  0.00     0.183 C 
HETATM   11  C   UNK N   1      33.558  17.578   7.026  0.00  0.00     0.180 C 
HETATM   12  C   UNK N   1      32.979  16.146   7.222  0.00  0.00     0.179 C 
HETATM   13  O   UNK N   1      33.992  15.199   7.466  0.00  0.00    -0.348 OA
BRANCH   9  14
HETATM   14  O   UNK N   1      35.605  17.197  10.158  0.00  0.00    -0.388 OA
HETATM   15  H   UNK N   1      36.167  16.484  10.500  0.00  0.00     0.210 HD
ENDBRANCH   9  14
BRANCH  10  16
HETATM   16  O   UNK N   1      34.697  19.216   8.398  0.00  0.00    -0.390 OA
HETATM   17  H   UNK N   1      34.051  19.670   8.960  0.00  0.00     0.210 HD
ENDBRANCH  10  16
BRANCH  11  18
HETATM   18  O   UNK N   1      34.039  17.770   5.728  0.00  0.00    -0.390 OA
HETATM   19  H   UNK N   1      34.607  18.414   5.276  0.00  0.00     0.210 HD
ENDBRANCH  11  18
BRANCH  12  20
HETATM   20  C   UNK N   1      32.149  15.691   6.023  0.00  0.00     0.198 C 
BRANCH  20  21
HETATM   21  O   UNK N   1      32.966  15.146   5.031  0.00  0.00    -0.398 OA
HETATM   22  H   UNK N   1      33.353  15.318   4.158  0.00  0.00     0.209 HD
ENDBRANCH  20  21
ENDBRANCH  12  20
ENDBRANCH   7   8
ENDBRANCH   4   7
BRANCH   1  23
HETATM   23  C   UNK N   1      34.170  11.788   8.566  0.00  0.00     0.198 C 
BRANCH  23  24
HETATM   24  O   UNK N   1      32.953  12.451   8.733  0.00  0.00    -0.398 OA
HETATM   25  H   UNK N   1      32.827  13.066   9.472  0.00  0.00     0.209 HD
ENDBRANCH  23  24
ENDBRANCH   1  23
BRANCH   2  26
HETATM   26  O   UNK N   1      37.107  15.002  10.905  0.00  0.00    -0.390 OA
HETATM   27  H   UNK N   1      36.791  15.678  10.285  0.00  0.00     0.210 HD
ENDBRANCH   2  26
BRANCH   3  28
HETATM   28  O   UNK N   1      34.782  14.384  12.339  0.00  0.00    -0.388 OA
HETATM   29  H   UNK N   1      34.269  15.181  12.546  0.00  0.00     0.210 HD
ENDBRANCH   3  28
BRANCH   5  30
HETATM   30  O   UNK N   1      36.193  11.037  12.135  0.00  0.00    -0.359 OA
BRANCH  30  31
HETATM   31  C   UNK N   1      36.347  10.577  13.457  0.00  0.00     0.171 C 
BRANCH  31  32
HETATM   32  C   UNK N   1      35.068   9.954  13.972  0.00  0.00     0.026 C 
BRANCH  32  33
HETATM   33  C   UNK N   1      34.604  10.696  15.214  0.00  0.00     0.002 C 
BRANCH  33  34
HETATM   34  C   UNK N   1      35.793  11.107  16.069  0.00  0.00     0.000 C 
BRANCH  34  35
HETATM   35  C   UNK N   1      35.375  12.012  17.221  0.00  0.00     0.000 C 
BRANCH  35  36
HETATM   36  C   UNK N   1      35.164  11.228  18.510  0.00  0.00     0.000 C 
BRANCH  36  37
HETATM   37  C   UNK N   1      35.864   9.875  18.455  0.00  0.00     0.000 C 
BRANCH  37  38
HETATM   38  C   UNK N   1      34.949   8.757  18.917  0.00  0.00     0.000 C 
BRANCH  38  39
HETATM   39  C   UNK N   1      33.904   9.264  19.898  0.00  0.00     0.000 C 
BRANCH  39  40
HETATM   40  C   UNK N   1      32.922   8.151  20.215  0.00  0.00    -0.000 C 
BRANCH  40  41
HETATM   41  C   UNK N   1      31.523   8.711  20.383  0.00  0.00    -0.005 C 
HETATM   42  C   UNK N   1      30.510   7.635  20.054  0.00  0.00     0.005 C 
ENDBRANCH  40  41
ENDBRANCH  39  40
ENDBRANCH  38  39
ENDBRANCH  37  38
ENDBRANCH  36  37
ENDBRANCH  35  36
ENDBRANCH  34  35
ENDBRANCH  33  34
ENDBRANCH  32  33
ENDBRANCH  31  32
ENDBRANCH  30  31
ENDBRANCH   5  30
TORSDOF 23
ENDMDL
MODEL 5
REMARK VINA RESULT:      -5.7      2.010      3.329
REMARK  23 active torsions:
REMARK  status: ('A' for Active; 'I' for Inactive)
REMARK    1  A    between atoms: C_3  and  C_2 
REMARK    2  A    between atoms: C_4  and  C_3 
REMARK    3  A    between atoms: C_5  and  C_4 
REMARK    4  A    between atoms: C_6  and  C_5 
REMARK    5  A    between atoms: C_7  and  C_6 
REMARK    6  A    between atoms: C_8  and  C_7 
REMARK    7  A    between atoms: C_9  and  C_8 
REMARK    8  A    between atoms: C_10  and  C_9 
REMARK    9  A    between atoms: C_11  and  C_10 
REMARK   10  A    between atoms: C_12  and  C_11 
REMARK   11  A    between atoms: O_32  and  C_12 
REMARK   12  A    between atoms: C_15  and  C_13 
REMARK   13  A    between atoms: O_25  and  C_13 
REMARK   14  A    between atoms: C_16  and  C_14 
REMARK   15  A    between atoms: O_26  and  C_14 
REMARK   16  A    between atoms: C_17  and  O_27 
REMARK   17  A    between atoms: C_18  and  O_28 
REMARK   18  A    between atoms: C_19  and  O_29 
REMARK   19  A    between atoms: C_20  and  O_30 
REMARK   20  A    between atoms: C_21  and  O_31 
REMARK   21  A    between atoms: C_22  and  O_35 
REMARK   22  A    between atoms: C_23  and  O_32 
REMARK   23  A    between atoms: C_24  and  O_35 
ROOT
HETATM    1  C   UNK N   1      35.107  12.235   9.932  0.00  0.00     0.180 C 
HETATM    2  C   UNK N   1      36.971  13.782  10.514  0.00  0.00     0.183 C 
HETATM    3  C   UNK N   1      36.529  13.673  11.978  0.00  0.00     0.204 C 
HETATM    4  C   UNK N   1      35.773  13.575   9.562  0.00  0.00     0.187 C 
HETATM    5  C   UNK N   1      35.789  12.338  12.183  0.00  0.00     0.291 C 
HETATM    6  O   UNK N   1      34.681  12.247  11.290  0.00  0.00    -0.348 OA
ENDROOT
BRANCH   4   7
HETATM    7  O   UNK N   1      34.794  14.599   9.705  0.00  0.00    -0.348 OA
BRANCH   7   8
HETATM    8  C   UNK N   1      34.858  15.664   8.768  0.00  0.00     0.292 C 
HETATM    9  C   UNK N   1      34.642  17.128   9.312  0.00  0.00     0.204 C 
HETATM   10  C   UNK N   1      34.714  18.045   8.095  0.00  0.00     0.183 C 
HETATM   11  C   UNK N   1      33.587  17.681   7.096  0.00  0.00     0.180 C 
HETATM   12  C   UNK N   1      33.089  16.220   7.306  0.00  0.00     0.179 C 
HETATM   13  O   UNK N   1      34.153  15.335   7.562  0.00  0.00    -0.348 OA
BRANCH   9  14
HETATM   14  O   UNK N   1      35.644  17.448  10.235  0.00  0.00    -0.388 OA
HETATM   15  H   UNK N   1      35.480  18.062  10.968  0.00  0.00     0.210 HD
ENDBRANCH   9  14
BRANCH  10  16
HETATM   16  O   UNK N   1      34.629  19.394   8.452  0.00  0.00    -0.390 OA
HETATM   17  H   UNK N   1      33.905  20.011   8.263  0.00  0.00     0.210 HD
ENDBRANCH  10  16
BRANCH  11  18
HETATM   18  O   UNK N   1      34.059  17.886   5.797  0.00  0.00    -0.390 OA
HETATM   19  H   UNK N   1      33.814  18.439   5.038  0.00  0.00     0.210 HD
ENDBRANCH  11  18
BRANCH  12  20
HETATM   20  C   UNK N   1      32.289  15.706   6.110  0.00  0.00     0.198 C 
BRANCH  20  21
HETATM   21  O   UNK N   1      32.510  14.342   5.914  0.00  0.00    -0.398 OA
HETATM   22  H   UNK N   1      32.804  13.529   6.354  0.00  0.00     0.209 HD
ENDBRANCH  20  21
ENDBRANCH  12  20
ENDBRANCH   7   8
ENDBRANCH   4   7
BRANCH   1  23
HETATM   23  C   UNK N   1      33.893  11.980   9.047  0.00  0.00     0.198 C 
BRANCH  23  24
HETATM   24  O   UNK N   1      34.144  12.412   7.743  0.00  0.00    -0.398 OA
HETATM   25  H   UNK N   1      33.430  12.427   7.086  0.00  0.00     0.209 HD
ENDBRANCH  23  24
ENDBRANCH   1  23
BRANCH   2  26
HETATM   26  O   UNK N   1      37.599  15.006  10.285  0.00  0.00    -0.390 OA
HETATM   27  H   UNK N   1      37.568  15.424   9.410  0.00  0.00     0.210 HD
ENDBRANCH   2  26
BRANCH   3  28
HETATM   28  O   UNK N   1      35.676  14.733  12.302  0.00  0.00    -0.388 OA
HETATM   29  H   UNK N   1      34.904  15.298  12.467  0.00  0.00     0.210 HD
ENDBRANCH   3  28
BRANCH   5  30
HETATM   30  O   UNK N   1      36.691  11.249  12.052  0.00  0.00    -0.359 OA
BRANCH  30  31
HETATM   31  C   UNK N   1      37.636  11.300  13.094  0.00  0.00     0.171 C 
BRANCH  31  32
HETATM   32  C   UNK N   1      37.693   9.989  13.847  0.00  0.00     0.026 C 
BRANCH  32  33
HETATM   33  C   UNK N   1      37.390  10.230  15.316  0.00  0.00     0.002 C 
BRANCH  33  34
HETATM   34  C   UNK N   1      36.831  11.629  15.526  0.00  0.00     0.000 C 
BRANCH  34  35
HETATM   35  C   UNK N   1      35.473  11.599  16.216  0.00  0.00     0.000 C 
BRANCH  35  36
HETATM   36  C   UNK N   1      35.041  12.985  16.678  0.00  0.00     0.000 C 
BRANCH  36  37
HETATM   37  C   UNK N   1      35.131  13.116  18.193  0.00  0.00     0.000 C 
BRANCH  37  38
HETATM   38  C   UNK N   1      35.109  11.759  18.871  0.00  0.00     0.000 C 
BRANCH  38  39
HETATM   39  C   UNK N   1      35.884  11.780  20.178  0.00  0.00     0.000 C 
BRANCH  39  40
HETATM   40  C   UNK N   1      36.565  10.439  20.386  0.00  0.00    -0.000 C 
BRANCH  40  41
HETATM   41  C   UNK N   1      36.705   9.706  19.066  0.00  0.00    -0.005 C 
HETATM   42  C   UNK N   1      37.566   8.477  19.265  0.00  0.00     0.005 C 
ENDBRANCH  40  41
ENDBRANCH  39  40
ENDBRANCH  38  39
ENDBRANCH  37  38
ENDBRANCH  36  37
ENDBRANCH  35  36
ENDBRANCH  34  35
ENDBRANCH  33  34
ENDBRANCH  32  33
ENDBRANCH  31  32
ENDBRANCH  30  31
ENDBRANCH   5  30
TORSDOF 23
ENDMDL
MODEL 6
REMARK VINA RESULT:      -5.7      2.019      3.309
REMARK  23 active torsions:
REMARK  status: ('A' for Active; 'I' for Inactive)
REMARK    1  A    between atoms: C_3  and  C_2 
REMARK    2  A    between atoms: C_4  and  C_3 
REMARK    3  A    between atoms: C_5  and  C_4 
REMARK    4  A    between atoms: C_6  and  C_5 
REMARK    5  A    between atoms: C_7  and  C_6 
REMARK    6  A    between atoms: C_8  and  C_7 
REMARK    7  A    between atoms: C_9  and  C_8 
REMARK    8  A    between atoms: C_10  and  C_9 
REMARK    9  A    between atoms: C_11  and  C_10 
REMARK   10  A    between atoms: C_12  and  C_11 
REMARK   11  A    between atoms: O_32  and  C_12 
REMARK   12  A    between atoms: C_15  and  C_13 
REMARK   13  A    between atoms: O_25  and  C_13 
REMARK   14  A    between atoms: C_16  and  C_14 
REMARK   15  A    between atoms: O_26  and  C_14 
REMARK   16  A    between atoms: C_17  and  O_27 
REMARK   17  A    between atoms: C_18  and  O_28 
REMARK   18  A    between atoms: C_19  and  O_29 
REMARK   19  A    between atoms: C_20  and  O_30 
REMARK   20  A    between atoms: C_21  and  O_31 
REMARK   21  A    between atoms: C_22  and  O_35 
REMARK   22  A    between atoms: C_23  and  O_32 
REMARK   23  A    between atoms: C_24  and  O_35 
ROOT
HETATM    1  C   UNK N   1      34.231  16.745   8.400  0.00  0.00     0.180 C 
HETATM    2  C   UNK N   1      32.855  15.206   9.793  0.00  0.00     0.183 C 
HETATM    3  C   UNK N   1      33.404  14.047   8.953  0.00  0.00     0.204 C 
HETATM    4  C   UNK N   1      32.818  16.511   8.969  0.00  0.00     0.187 C 
HETATM    5  C   UNK N   1      34.767  14.453   8.363  0.00  0.00     0.291 C 
HETATM    6  O   UNK N   1      34.633  15.645   7.592  0.00  0.00    -0.348 OA
ENDROOT
BRANCH   4   7
HETATM    7  O   UNK N   1      31.918  16.425   7.869  0.00  0.00    -0.348 OA
BRANCH   7   8
HETATM    8  C   UNK N   1      30.883  17.396   7.827  0.00  0.00     0.292 C 
HETATM    9  C   UNK N   1      29.650  17.189   8.789  0.00  0.00     0.204 C 
HETATM   10  C   UNK N   1      28.689  18.338   8.495  0.00  0.00     0.183 C 
HETATM   11  C   UNK N   1      28.226  18.270   7.018  0.00  0.00     0.180 C 
HETATM   12  C   UNK N   1      29.231  17.467   6.141  0.00  0.00     0.179 C 
HETATM   13  O   UNK N   1      30.568  17.758   6.476  0.00  0.00    -0.348 OA
BRANCH   9  14
HETATM   14  O   UNK N   1      30.071  17.223  10.123  0.00  0.00    -0.388 OA
HETATM   15  H   UNK N   1      30.452  16.441  10.554  0.00  0.00     0.210 HD
ENDBRANCH   9  14
BRANCH  10  16
HETATM   16  O   UNK N   1      27.585  18.326   9.352  0.00  0.00    -0.390 OA
HETATM   17  H   UNK N   1      26.651  18.437   9.114  0.00  0.00     0.210 HD
ENDBRANCH  10  16
BRANCH  11  18
HETATM   18  O   UNK N   1      28.052  19.574   6.546  0.00  0.00    -0.390 OA
HETATM   19  H   UNK N   1      28.512  20.167   5.930  0.00  0.00     0.210 HD
ENDBRANCH  11  18
BRANCH  12  20
HETATM   20  C   UNK N   1      29.024  17.719   4.649  0.00  0.00     0.198 C 
BRANCH  20  21
HETATM   21  O   UNK N   1      27.665  17.725   4.330  0.00  0.00    -0.398 OA
HETATM   22  H   UNK N   1      26.924  17.158   4.065  0.00  0.00     0.209 HD
ENDBRANCH  20  21
ENDBRANCH  12  20
ENDBRANCH   7   8
ENDBRANCH   4   7
BRANCH   1  23
HETATM   23  C   UNK N   1      34.261  18.008   7.547  0.00  0.00     0.198 C 
BRANCH  23  24
HETATM   24  O   UNK N   1      34.900  19.042   8.234  0.00  0.00    -0.398 OA
HETATM   25  H   UNK N   1      34.943  19.932   7.850  0.00  0.00     0.209 HD
ENDBRANCH  23  24
ENDBRANCH   1  23
BRANCH   2  26
HETATM   26  O   UNK N   1      31.594  14.886  10.299  0.00  0.00    -0.390 OA
HETATM   27  H   UNK N   1      31.474  14.124  10.887  0.00  0.00     0.210 HD
ENDBRANCH   2  26
BRANCH   3  28
HETATM   28  O   UNK N   1      32.517  13.745   7.914  0.00  0.00    -0.388 OA
HETATM   29  H   UNK N   1      31.737  13.511   7.386  0.00  0.00     0.210 HD
ENDBRANCH   3  28
BRANCH   5  30
HETATM   30  O   UNK N   1      35.736  14.571   9.394  0.00  0.00    -0.359 OA
BRANCH  30  31
HETATM   31  C   UNK N   1      35.862  13.336  10.056  0.00  0.00     0.171 C 
BRANCH  31  32
HETATM   32  C   UNK N   1      36.478  13.510  11.427  0.00  0.00     0.026 C 
BRANCH  32  33
HETATM   33  C   UNK N   1      35.413  13.960  12.412  0.00  0.00     0.002 C 
BRANCH  33  34
HETATM   34  C   UNK N   1      36.003  14.118  13.805  0.00  0.00     0.000 C 
BRANCH  34  35
HETATM   35  C   UNK N   1      36.701  12.847  14.272  0.00  0.00     0.000 C 
BRANCH  35  36
HETATM   36  C   UNK N   1      36.041  12.261  15.513  0.00  0.00     0.000 C 
BRANCH  36  37
HETATM   37  C   UNK N   1      34.528  12.190  15.353  0.00  0.00     0.000 C 
BRANCH  37  38
HETATM   38  C   UNK N   1      34.072  10.789  14.992  0.00  0.00     0.000 C 
BRANCH  38  39
HETATM   39  C   UNK N   1      33.813  10.657  13.500  0.00  0.00     0.000 C 
BRANCH  39  40
HETATM   40  C   UNK N   1      35.008  10.000  12.833  0.00  0.00    -0.000 C 
BRANCH  40  41
HETATM   41  C   UNK N   1      34.745   9.800  11.353  0.00  0.00    -0.005 C 
HETATM   42  C   UNK N   1      33.259   9.617  11.130  0.00  0.00     0.005 C 
ENDBRANCH  40  41
ENDBRANCH  39  40
ENDBRANCH  38  39
ENDBRANCH  37  38
ENDBRANCH  36  37
ENDBRANCH  35  36
ENDBRANCH  34  35
ENDBRANCH  33  34
ENDBRANCH  32  33
ENDBRANCH  31  32
ENDBRANCH  30  31
ENDBRANCH   5  30
TORSDOF 23
ENDMDL
MODEL 7
REMARK VINA RESULT:      -5.6      1.761      2.399
REMARK  23 active torsions:
REMARK  status: ('A' for Active; 'I' for Inactive)
REMARK    1  A    between atoms: C_3  and  C_2 
REMARK    2  A    between atoms: C_4  and  C_3 
REMARK    3  A    between atoms: C_5  and  C_4 
REMARK    4  A    between atoms: C_6  and  C_5 
REMARK    5  A    between atoms: C_7  and  C_6 
REMARK    6  A    between atoms: C_8  and  C_7 
REMARK    7  A    between atoms: C_9  and  C_8 
REMARK    8  A    between atoms: C_10  and  C_9 
REMARK    9  A    between atoms: C_11  and  C_10 
REMARK   10  A    between atoms: C_12  and  C_11 
REMARK   11  A    between atoms: O_32  and  C_12 
REMARK   12  A    between atoms: C_15  and  C_13 
REMARK   13  A    between atoms: O_25  and  C_13 
REMARK   14  A    between atoms: C_16  and  C_14 
REMARK   15  A    between atoms: O_26  and  C_14 
REMARK   16  A    between atoms: C_17  and  O_27 
REMARK   17  A    between atoms: C_18  and  O_28 
REMARK   18  A    between atoms: C_19  and  O_29 
REMARK   19  A    between atoms: C_20  and  O_30 
REMARK   20  A    between atoms: C_21  and  O_31 
REMARK   21  A    between atoms: C_22  and  O_35 
REMARK   22  A    between atoms: C_23  and  O_32 
REMARK   23  A    between atoms: C_24  and  O_35 
ROOT
HETATM    1  C   UNK N   1      36.208  13.907   9.484  0.00  0.00     0.180 C 
HETATM    2  C   UNK N   1      35.255  15.985  10.472  0.00  0.00     0.183 C 
HETATM    3  C   UNK N   1      34.566  15.103  11.520  0.00  0.00     0.204 C 
HETATM    4  C   UNK N   1      35.458  15.212   9.152  0.00  0.00     0.187 C 
HETATM    5  C   UNK N   1      35.360  13.793  11.677  0.00  0.00     0.291 C 
HETATM    6  O   UNK N   1      35.469  13.130  10.419  0.00  0.00    -0.348 OA
ENDROOT
BRANCH   4   7
HETATM    7  O   UNK N   1      34.221  14.856   8.544  0.00  0.00    -0.348 OA
BRANCH   7   8
HETATM    8  C   UNK N   1      33.628  15.838   7.706  0.00  0.00     0.292 C 
HETATM    9  C   UNK N   1      32.074  16.068   7.840  0.00  0.00     0.204 C 
HETATM   10  C   UNK N   1      31.713  17.125   6.800  0.00  0.00     0.183 C 
HETATM   11  C   UNK N   1      32.051  16.602   5.381  0.00  0.00     0.180 C 
HETATM   12  C   UNK N   1      33.120  15.471   5.428  0.00  0.00     0.179 C 
HETATM   13  O   UNK N   1      34.134  15.747   6.366  0.00  0.00    -0.348 OA
BRANCH   9  14
HETATM   14  O   UNK N   1      31.765  16.515   9.129  0.00  0.00    -0.388 OA
HETATM   15  H   UNK N   1      32.384  16.398   9.867  0.00  0.00     0.210 HD
ENDBRANCH   9  14
BRANCH  10  16
HETATM   16  O   UNK N   1      30.367  17.493   6.874  0.00  0.00    -0.390 OA
HETATM   17  H   UNK N   1      29.988  18.257   7.337  0.00  0.00     0.210 HD
ENDBRANCH  10  16
BRANCH  11  18
HETATM   18  O   UNK N   1      32.471  17.680   4.596  0.00  0.00    -0.390 OA
HETATM   19  H   UNK N   1      33.281  18.205   4.497  0.00  0.00     0.210 HD
ENDBRANCH  11  18
BRANCH  12  20
HETATM   20  C   UNK N   1      33.758  15.222   4.063  0.00  0.00     0.198 C 
BRANCH  20  21
HETATM   21  O   UNK N   1      32.801  15.286   3.049  0.00  0.00    -0.398 OA
HETATM   22  H   UNK N   1      32.375  14.771   2.345  0.00  0.00     0.209 HD
ENDBRANCH  20  21
ENDBRANCH  12  20
ENDBRANCH   7   8
ENDBRANCH   4   7
BRANCH   1  23
HETATM   23  C   UNK N   1      36.418  13.075   8.224  0.00  0.00     0.198 C 
BRANCH  23  24
HETATM   24  O   UNK N   1      36.491  13.904   7.102  0.00  0.00    -0.398 OA
HETATM   25  H   UNK N   1      35.786  13.890   6.436  0.00  0.00     0.209 HD
ENDBRANCH  23  24
ENDBRANCH   1  23
BRANCH   2  26
HETATM   26  O   UNK N   1      34.528  17.159  10.269  0.00  0.00    -0.390 OA
HETATM   27  H   UNK N   1      34.547  17.873  10.925  0.00  0.00     0.210 HD
ENDBRANCH   2  26
BRANCH   3  28
HETATM   28  O   UNK N   1      33.258  14.810  11.115  0.00  0.00    -0.388 OA
HETATM   29  H   UNK N   1      32.346  14.486  11.059  0.00  0.00     0.210 HD
ENDBRANCH   3  28
BRANCH   5  30
HETATM   30  O   UNK N   1      36.622  14.050  12.274  0.00  0.00    -0.359 OA
BRANCH  30  31
HETATM   31  C   UNK N   1      36.430  14.478  13.601  0.00  0.00     0.171 C 
BRANCH  31  32
HETATM   32  C   UNK N   1      36.529  13.321  14.570  0.00  0.00     0.026 C 
BRANCH  32  33
HETATM   33  C   UNK N   1      35.926  13.721  15.906  0.00  0.00     0.002 C 
BRANCH  33  34
HETATM   34  C   UNK N   1      35.553  12.488  16.716  0.00  0.00     0.000 C 
BRANCH  34  35
HETATM   35  C   UNK N   1      36.205  11.228  16.163  0.00  0.00     0.000 C 
BRANCH  35  36
HETATM   36  C   UNK N   1      36.375  10.160  17.235  0.00  0.00     0.000 C 
BRANCH  36  37
HETATM   37  C   UNK N   1      35.405  10.377  18.390  0.00  0.00     0.000 C 
BRANCH  37  38
HETATM   38  C   UNK N   1      34.301   9.337  18.393  0.00  0.00     0.000 C 
BRANCH  38  39
HETATM   39  C   UNK N   1      34.242   8.595  19.719  0.00  0.00     0.000 C 
BRANCH  39  40
HETATM   40  C   UNK N   1      32.831   8.662  20.275  0.00  0.00    -0.000 C 
BRANCH  40  41
HETATM   41  C   UNK N   1      32.024   7.462  19.816  0.00  0.00    -0.005 C 
HETATM   42  C   UNK N   1      30.551   7.741  20.024  0.00  0.00     0.005 C 
ENDBRANCH  40  41
ENDBRANCH  39  40
ENDBRANCH  38  39
ENDBRANCH  37  38
ENDBRANCH  36  37
ENDBRANCH  35  36
ENDBRANCH  34  35
ENDBRANCH  33  34
ENDBRANCH  32  33
ENDBRANCH  31  32
ENDBRANCH  30  31
ENDBRANCH   5  30
TORSDOF 23
ENDMDL
MODEL 8
REMARK VINA RESULT:      -5.6      2.419      9.790
REMARK  23 active torsions:
REMARK  status: ('A' for Active; 'I' for Inactive)
REMARK    1  A    between atoms: C_3  and  C_2 
REMARK    2  A    between atoms: C_4  and  C_3 
REMARK    3  A    between atoms: C_5  and  C_4 
REMARK    4  A    between atoms: C_6  and  C_5 
REMARK    5  A    between atoms: C_7  and  C_6 
REMARK    6  A    between atoms: C_8  and  C_7 
REMARK    7  A    between atoms: C_9  and  C_8 
REMARK    8  A    between atoms: C_10  and  C_9 
REMARK    9  A    between atoms: C_11  and  C_10 
REMARK   10  A    between atoms: C_12  and  C_11 
REMARK   11  A    between atoms: O_32  and  C_12 
REMARK   12  A    between atoms: C_15  and  C_13 
REMARK   13  A    between atoms: O_25  and  C_13 
REMARK   14  A    between atoms: C_16  and  C_14 
REMARK   15  A    between atoms: O_26  and  C_14 
REMARK   16  A    between atoms: C_17  and  O_27 
REMARK   17  A    between atoms: C_18  and  O_28 
REMARK   18  A    between atoms: C_19  and  O_29 
REMARK   19  A    between atoms: C_20  and  O_30 
REMARK   20  A    between atoms: C_21  and  O_31 
REMARK   21  A    between atoms: C_22  and  O_35 
REMARK   22  A    between atoms: C_23  and  O_32 
REMARK   23  A    between atoms: C_24  and  O_35 
ROOT
HETATM    1  C   UNK N   1      34.845  15.898   9.359  0.00  0.00     0.180 C 
HETATM    2  C   UNK N   1      34.509  13.628   8.391  0.00  0.00     0.183 C 
HETATM    3  C   UNK N   1      33.020  13.968   8.256  0.00  0.00     0.204 C 
HETATM    4  C   UNK N   1      35.143  14.400   9.567  0.00  0.00     0.187 C 
HETATM    5  C   UNK N   1      32.858  15.497   8.161  0.00  0.00     0.291 C 
HETATM    6  O   UNK N   1      33.441  16.125   9.301  0.00  0.00    -0.348 OA
ENDROOT
BRANCH   4   7
HETATM    7  O   UNK N   1      34.586  14.019  10.821  0.00  0.00    -0.348 OA
BRANCH   7   8
HETATM    8  C   UNK N   1      35.404  13.205  11.650  0.00  0.00     0.292 C 
HETATM    9  C   UNK N   1      34.730  11.956  12.337  0.00  0.00     0.204 C 
HETATM   10  C   UNK N   1      35.816  11.309  13.192  0.00  0.00     0.183 C 
HETATM   11  C   UNK N   1      36.300  12.310  14.271  0.00  0.00     0.180 C 
HETATM   12  C   UNK N   1      35.998  13.782  13.862  0.00  0.00     0.179 C 
HETATM   13  O   UNK N   1      36.243  14.006  12.493  0.00  0.00    -0.348 OA
BRANCH   9  14
HETATM   14  O   UNK N   1      34.268  11.064  11.363  0.00  0.00    -0.388 OA
HETATM   15  H   UNK N   1      33.419  10.605  11.458  0.00  0.00     0.210 HD
ENDBRANCH   9  14
BRANCH  10  16
HETATM   16  O   UNK N   1      35.373  10.126  13.790  0.00  0.00    -0.390 OA
HETATM   17  H   UNK N   1      35.819   9.609  14.479  0.00  0.00     0.210 HD
ENDBRANCH  10  16
BRANCH  11  18
HETATM   18  O   UNK N   1      37.665  12.103  14.492  0.00  0.00    -0.390 OA
HETATM   19  H   UNK N   1      38.486  12.595  14.334  0.00  0.00     0.210 HD
ENDBRANCH  11  18
BRANCH  12  20
HETATM   20  C   UNK N   1      36.801  14.786  14.685  0.00  0.00     0.198 C 
BRANCH  20  21
HETATM   21  O   UNK N   1      36.772  14.455  16.040  0.00  0.00    -0.398 OA
HETATM   22  H   UNK N   1      36.363  14.683  16.890  0.00  0.00     0.209 HD
ENDBRANCH  20  21
ENDBRANCH  12  20
ENDBRANCH   7   8
ENDBRANCH   4   7
BRANCH   1  23
HETATM   23  C   UNK N   1      35.420  16.722  10.505  0.00  0.00     0.198 C 
BRANCH  23  24
HETATM   24  O   UNK N   1      36.718  16.300  10.802  0.00  0.00    -0.398 OA
HETATM   25  H   UNK N   1      36.868  15.453  11.249  0.00  0.00     0.209 HD
ENDBRANCH  23  24
ENDBRANCH   1  23
BRANCH   2  26
HETATM   26  O   UNK N   1      34.682  12.251   8.533  0.00  0.00    -0.390 OA
HETATM   27  H   UNK N   1      34.371  11.790   9.328  0.00  0.00     0.210 HD
ENDBRANCH   2  26
BRANCH   3  28
HETATM   28  O   UNK N   1      32.316  13.493   9.369  0.00  0.00    -0.388 OA
HETATM   29  H   UNK N   1      31.996  13.309  10.266  0.00  0.00     0.210 HD
ENDBRANCH   3  28
BRANCH   5  30
HETATM   30  O   UNK N   1      33.395  15.974   6.937  0.00  0.00    -0.359 OA
BRANCH  30  31
HETATM   31  C   UNK N   1      32.444  15.800   5.913  0.00  0.00     0.171 C 
BRANCH  31  32
HETATM   32  C   UNK N   1      31.298  16.777   6.059  0.00  0.00     0.026 C 
BRANCH  32  33
HETATM   33  C   UNK N   1      30.780  17.165   4.684  0.00  0.00     0.002 C 
BRANCH  33  34
HETATM   34  C   UNK N   1      29.468  16.455   4.386  0.00  0.00     0.000 C 
BRANCH  34  35
HETATM   35  C   UNK N   1      28.433  17.403   3.796  0.00  0.00     0.000 C 
BRANCH  35  36
HETATM   36  C   UNK N   1      27.440  17.883   4.846  0.00  0.00     0.000 C 
BRANCH  36  37
HETATM   37  C   UNK N   1      27.726  19.320   5.262  0.00  0.00     0.000 C 
BRANCH  37  38
HETATM   38  C   UNK N   1      27.857  19.448   6.768  0.00  0.00     0.000 C 
BRANCH  38  39
HETATM   39  C   UNK N   1      28.110  18.098   7.419  0.00  0.00     0.000 C 
BRANCH  39  40
HETATM   40  C   UNK N   1      28.132  18.259   8.929  0.00  0.00    -0.000 C 
BRANCH  40  41
HETATM   41  C   UNK N   1      29.427  17.714   9.500  0.00  0.00    -0.005 C 
HETATM   42  C   UNK N   1      30.564  18.643   9.135  0.00  0.00     0.005 C 
ENDBRANCH  40  41
ENDBRANCH  39  40
ENDBRANCH  38  39
ENDBRANCH  37  38
ENDBRANCH  36  37
ENDBRANCH  35  36
ENDBRANCH  34  35
ENDBRANCH  33  34
ENDBRANCH  32  33
ENDBRANCH  31  32
ENDBRANCH  30  31
ENDBRANCH   5  30
TORSDOF 23
ENDMDL
MODEL 9
REMARK VINA RESULT:      -5.5      3.278      9.989
REMARK  23 active torsions:
REMARK  status: ('A' for Active; 'I' for Inactive)
REMARK    1  A    between atoms: C_3  and  C_2 
REMARK    2  A    between atoms: C_4  and  C_3 
REMARK    3  A    between atoms: C_5  and  C_4 
REMARK    4  A    between atoms: C_6  and  C_5 
REMARK    5  A    between atoms: C_7  and  C_6 
REMARK    6  A    between atoms: C_8  and  C_7 
REMARK    7  A    between atoms: C_9  and  C_8 
REMARK    8  A    between atoms: C_10  and  C_9 
REMARK    9  A    between atoms: C_11  and  C_10 
REMARK   10  A    between atoms: C_12  and  C_11 
REMARK   11  A    between atoms: O_32  and  C_12 
REMARK   12  A    between atoms: C_15  and  C_13 
REMARK   13  A    between atoms: O_25  and  C_13 
REMARK   14  A    between atoms: C_16  and  C_14 
REMARK   15  A    between atoms: O_26  and  C_14 
REMARK   16  A    between atoms: C_17  and  O_27 
REMARK   17  A    between atoms: C_18  and  O_28 
REMARK   18  A    between atoms: C_19  and  O_29 
REMARK   19  A    between atoms: C_20  and  O_30 
REMARK   20  A    between atoms: C_21  and  O_31 
REMARK   21  A    between atoms: C_22  and  O_35 
REMARK   22  A    between atoms: C_23  and  O_32 
REMARK   23  A    between atoms: C_24  and  O_35 
ROOT
HETATM    1  C   UNK N   1      33.576  14.859   6.873  0.00  0.00     0.180 C 
HETATM    2  C   UNK N   1      32.114  15.252   8.852  0.00  0.00     0.183 C 
HETATM    3  C   UNK N   1      32.094  16.737   8.470  0.00  0.00     0.204 C 
HETATM    4  C   UNK N   1      33.424  14.583   8.382  0.00  0.00     0.187 C 
HETATM    5  C   UNK N   1      32.361  16.874   6.959  0.00  0.00     0.291 C 
HETATM    6  O   UNK N   1      33.603  16.259   6.621  0.00  0.00    -0.348 OA
ENDROOT
BRANCH   4   7
HETATM    7  O   UNK N   1      34.566  15.123   9.039  0.00  0.00    -0.348 OA
BRANCH   7   8
HETATM    8  C   UNK N   1      35.142  14.321  10.058  0.00  0.00     0.292 C 
HETATM    9  C   UNK N   1      36.714  14.198  10.088  0.00  0.00     0.204 C 
HETATM   10  C   UNK N   1      37.042  13.250  11.238  0.00  0.00     0.183 C 
HETATM   11  C   UNK N   1      36.407  11.862  10.971  0.00  0.00     0.180 C 
HETATM   12  C   UNK N   1      35.214  11.962   9.975  0.00  0.00     0.179 C 
HETATM   13  O   UNK N   1      34.416  13.096  10.225  0.00  0.00    -0.348 OA
BRANCH   9  14
HETATM   14  O   UNK N   1      37.290  15.455  10.301  0.00  0.00    -0.388 OA
HETATM   15  H   UNK N   1      36.861  16.268   9.991  0.00  0.00     0.210 HD
ENDBRANCH   9  14
BRANCH  10  16
HETATM   16  O   UNK N   1      38.420  13.124  11.434  0.00  0.00    -0.390 OA
HETATM   17  H   UNK N   1      39.066  13.836  11.562  0.00  0.00     0.210 HD
ENDBRANCH  10  16
BRANCH  11  18
HETATM   18  O   UNK N   1      36.016  11.308  12.194  0.00  0.00    -0.390 OA
HETATM   19  H   UNK N   1      35.800  11.639  13.080  0.00  0.00     0.210 HD
ENDBRANCH  11  18
BRANCH  12  20
HETATM   20  C   UNK N   1      34.332  10.715  10.004  0.00  0.00     0.198 C 
BRANCH  20  21
HETATM   21  O   UNK N   1      33.366  10.813  11.007  0.00  0.00    -0.398 OA
HETATM   22  H   UNK N   1      32.849  11.444  11.533  0.00  0.00     0.209 HD
ENDBRANCH  20  21
ENDBRANCH  12  20
ENDBRANCH   7   8
ENDBRANCH   4   7
BRANCH   1  23
HETATM   23  C   UNK N   1      34.870  14.248   6.347  0.00  0.00     0.198 C 
BRANCH  23  24
HETATM   24  O   UNK N   1      35.847  15.235   6.200  0.00  0.00    -0.398 OA
HETATM   25  H   UNK N   1      36.759  14.992   5.974  0.00  0.00     0.209 HD
ENDBRANCH  23  24
ENDBRANCH   1  23
BRANCH   2  26
HETATM   26  O   UNK N   1      31.927  15.101  10.225  0.00  0.00    -0.390 OA
HETATM   27  H   UNK N   1      32.675  15.171  10.839  0.00  0.00     0.210 HD
ENDBRANCH   2  26
BRANCH   3  28
HETATM   28  O   UNK N   1      33.081  17.429   9.182  0.00  0.00    -0.388 OA
HETATM   29  H   UNK N   1      33.755  18.063   9.472  0.00  0.00     0.210 HD
ENDBRANCH   3  28
BRANCH   5  30
HETATM   30  O   UNK N   1      31.270  16.351   6.216  0.00  0.00    -0.359 OA
BRANCH  30  31
HETATM   31  C   UNK N   1      31.182  17.025   4.984  0.00  0.00     0.171 C 
BRANCH  31  32
HETATM   32  C   UNK N   1      29.813  17.640   4.793  0.00  0.00     0.026 C 
BRANCH  32  33
HETATM   33  C   UNK N   1      28.749  16.690   5.315  0.00  0.00     0.002 C 
BRANCH  33  34
HETATM   34  C   UNK N   1      28.017  17.303   6.499  0.00  0.00     0.000 C 
BRANCH  34  35
HETATM   35  C   UNK N   1      28.566  18.680   6.853  0.00  0.00     0.000 C 
BRANCH  35  36
HETATM   36  C   UNK N   1      27.641  19.432   7.800  0.00  0.00     0.000 C 
BRANCH  36  37
HETATM   37  C   UNK N   1      26.999  20.630   7.111  0.00  0.00     0.000 C 
BRANCH  37  38
HETATM   38  C   UNK N   1      27.574  20.847   5.724  0.00  0.00     0.000 C 
BRANCH  38  39
HETATM   39  C   UNK N   1      26.504  20.715   4.653  0.00  0.00     0.000 C 
BRANCH  39  40
HETATM   40  C   UNK N   1      26.931  19.670   3.637  0.00  0.00    -0.000 C 
BRANCH  40  41
HETATM   41  C   UNK N   1      25.928  18.533   3.594  0.00  0.00    -0.005 C 
HETATM   42  C   UNK N   1      24.855  18.773   4.633  0.00  0.00     0.005 C 
ENDBRANCH  40  41
ENDBRANCH  39  40
ENDBRANCH  38  39
ENDBRANCH  37  38
ENDBRANCH  36  37
ENDBRANCH  35  36
ENDBRANCH  34  35
ENDBRANCH  33  34
ENDBRANCH  32  33
ENDBRANCH  31  32
ENDBRANCH  30  31
ENDBRANCH   5  30
TORSDOF 23
ENDMDL
