MODEL 1
REMARK VINA RESULT:      -7.4      0.000      0.000
REMARK  17 active torsions:
REMARK  status: ('A' for Active; 'I' for Inactive)
REMARK    1  A    between atoms: C_3  and  C_1 
REMARK    2  A    between atoms: C_5  and  C_1 
REMARK    3  A    between atoms: C_4  and  C_2 
REMARK    4  A    between atoms: C_6  and  C_2 
REMARK    5  A    between atoms: N_24  and  C_3 
REMARK    6  A    between atoms: N_25  and  C_4 
REMARK    7  A    between atoms: N_27  and  C_5 
REMARK    8  A    between atoms: N_28  and  C_6 
REMARK    9  A    between atoms: C_18  and  C_14 
REMARK   10  A    between atoms: O_30  and  C_14 
REMARK   11  A    between atoms: C_22  and  C_15 
REMARK   12  A    between atoms: N_29  and  C_16 
REMARK   13  A    between atoms: O_37  and  C_17 
REMARK   14  A    between atoms: C_19  and  O_31 
REMARK   15  A    between atoms: C_20  and  O_32 
REMARK   16  A    between atoms: O_34  and  C_22 
REMARK   17  A    between atoms: C_23  and  O_37 
ROOT
HETATM    1  C   UNK N   1      28.809  17.798   7.409  0.00  0.00     0.179 C 
HETATM    2  C   UNK N   1      28.232  18.579   6.211  0.00  0.00     0.180 C 
HETATM    3  C   UNK N   1      28.320  17.662   4.988  0.00  0.00     0.183 C 
HETATM    4  C   UNK N   1      29.758  17.220   4.788  0.00  0.00     0.205 C 
HETATM    5  C   UNK N   1      30.333  16.649   6.116  0.00  0.00     0.298 C 
HETATM    6  O   UNK N   1      30.550  18.290   4.362  0.00  0.00    -0.388 OA
HETATM    7  O   UNK N   1      30.189  17.564   7.180  0.00  0.00    -0.348 OA
HETATM    8  H   UNK N   1      31.092  19.085   4.234  0.00  0.00     0.210 HD
ENDROOT
BRANCH   3   9
HETATM    9  O   UNK N   1      27.853  18.303   3.837  0.00  0.00    -0.390 OA
HETATM   10  H   UNK N   1      28.451  18.587   3.129  0.00  0.00     0.210 HD
ENDBRANCH   3   9
BRANCH   5  11
HETATM   11  O   UNK N   1      31.668  16.337   5.974  0.00  0.00    -0.318 OA
BRANCH  11  12
HETATM   12  C   UNK N   1      32.378  16.158   7.090  0.00  0.00     0.075 A 
HETATM   13  C   UNK N   1      32.601  14.872   7.514  0.00  0.00     0.052 A 
HETATM   14  C   UNK N   1      33.530  14.614   8.502  0.00  0.00     0.019 A 
HETATM   15  C   UNK N   1      34.293  15.671   9.051  0.00  0.00     0.052 A 
HETATM   16  C   UNK N   1      34.074  16.990   8.598  0.00  0.00     0.106 A 
HETATM   17  C   UNK N   1      33.088  17.213   7.651  0.00  0.00     0.073 A 
BRANCH  14  18
HETATM   18  C   UNK N   1      33.562  13.249   9.005  0.00  0.00     0.146 C 
HETATM   19  N   UNK N   1      34.690  12.689   9.232  0.00  0.00    -0.370 N 
ATOM     20  HN  UNK N   1      35.538  13.093   8.837  1.00  0.00     0.161 HD
BRANCH  19  21
HETATM   21  C   UNK N   1      34.782  11.499  10.034  0.00  0.00     0.123 C 
BRANCH  21  22
HETATM   22  C   UNK N   1      36.209  11.363  10.608  0.00  0.00     0.050 C 
BRANCH  22  23
HETATM   23  C   UNK N   1      36.315  10.784  12.044  0.00  0.00     0.274 C 
BRANCH  23  24
HETATM   24  N   UNK N   1      35.691  11.567  13.123  0.00  0.00     0.091 N 
HETATM   25  C   UNK N   1      34.789  10.774  13.965  0.00  0.00     0.302 C 
HETATM   26  C   UNK N   1      34.187  11.651  15.058  0.00  0.00     0.302 C 
HETATM   27  N   UNK N   1      35.235  12.276  15.869  0.00  0.00     0.091 N 
HETATM   28  C   UNK N   1      36.131  13.049  15.010  0.00  0.00     0.302 C 
HETATM   29  C   UNK N   1      36.747  12.167  13.935  0.00  0.00     0.302 C 
BRANCH  27  30
HETATM   30  C   UNK N   1      34.563  13.269  16.683  0.00  0.00     0.274 C 
BRANCH  30  31
HETATM   31  C   UNK N   1      35.391  13.639  17.897  0.00  0.00     0.049 C 
BRANCH  31  32
HETATM   32  C   UNK N   1      35.299  12.516  18.915  0.00  0.00     0.112 C 
BRANCH  32  33
HETATM   33  N   UNK N   1      35.313  13.061  20.262  0.00  0.00    -0.430 N 
HETATM   34  H   UNK N   1      34.548  12.957  20.929  0.00  0.00     0.149 HD
HETATM   35  H   UNK N   1      36.140  13.581  20.560  0.00  0.00     0.149 HD
ENDBRANCH  32  33
ENDBRANCH  31  32
ENDBRANCH  30  31
ENDBRANCH  27  30
ENDBRANCH  23  24
ENDBRANCH  22  23
ENDBRANCH  21  22
ENDBRANCH  19  21
BRANCH  18  36
HETATM   36  O   UNK N   1      32.410  12.660   9.405  0.00  0.00    -0.346 OA
HETATM   37  H   UNK N   1      32.255  11.756   9.215  0.00  0.00     0.219 HD
ENDBRANCH  18  36
ENDBRANCH  14  18
BRANCH  16  38
HETATM   38  N   UNK N   1      34.913  18.072   8.990  0.00  0.00    -0.116 N 
HETATM   39  O   UNK N   1      34.960  19.062   8.312  0.00  0.00    -0.532 OA
HETATM   40  O   UNK N   1      35.688  17.941   9.882  0.00  0.00    -0.532 OA
ENDBRANCH  16  38
ENDBRANCH  11  12
ENDBRANCH   5  11
BRANCH   2  41
HETATM   41  O   UNK N   1      26.900  18.925   6.437  0.00  0.00    -0.390 OA
HETATM   42  H   UNK N   1      26.481  19.259   7.247  0.00  0.00     0.210 HD
ENDBRANCH   2  41
BRANCH   1  43
HETATM   43  C   UNK N   1      28.634  18.515   8.740  0.00  0.00     0.198 C 
BRANCH  43  44
HETATM   44  O   UNK N   1      27.437  18.150   9.352  0.00  0.00    -0.398 OA
HETATM   45  H   UNK N   1      26.766  17.887  10.001  0.00  0.00     0.209 HD
ENDBRANCH  43  44
ENDBRANCH   1  43
TORSDOF 17
ENDMDL
MODEL 2
REMARK VINA RESULT:      -7.4      9.139     12.051
REMARK  17 active torsions:
REMARK  status: ('A' for Active; 'I' for Inactive)
REMARK    1  A    between atoms: C_3  and  C_1 
REMARK    2  A    between atoms: C_5  and  C_1 
REMARK    3  A    between atoms: C_4  and  C_2 
REMARK    4  A    between atoms: C_6  and  C_2 
REMARK    5  A    between atoms: N_24  and  C_3 
REMARK    6  A    between atoms: N_25  and  C_4 
REMARK    7  A    between atoms: N_27  and  C_5 
REMARK    8  A    between atoms: N_28  and  C_6 
REMARK    9  A    between atoms: C_18  and  C_14 
REMARK   10  A    between atoms: O_30  and  C_14 
REMARK   11  A    between atoms: C_22  and  C_15 
REMARK   12  A    between atoms: N_29  and  C_16 
REMARK   13  A    between atoms: O_37  and  C_17 
REMARK   14  A    between atoms: C_19  and  O_31 
REMARK   15  A    between atoms: C_20  and  O_32 
REMARK   16  A    between atoms: O_34  and  C_22 
REMARK   17  A    between atoms: C_23  and  O_37 
ROOT
HETATM    1  C   UNK N   1      20.704  18.099   1.582  0.00  0.00     0.179 C 
HETATM    2  C   UNK N   1      20.576  19.635   1.539  0.00  0.00     0.180 C 
HETATM    3  C   UNK N   1      21.675  20.205   2.439  0.00  0.00     0.183 C 
HETATM    4  C   UNK N   1      21.540  19.624   3.835  0.00  0.00     0.205 C 
HETATM    5  C   UNK N   1      21.449  18.073   3.763  0.00  0.00     0.298 C 
HETATM    6  O   UNK N   1      20.402  20.127   4.472  0.00  0.00    -0.388 OA
HETATM    7  O   UNK N   1      20.417  17.653   2.897  0.00  0.00    -0.348 OA
HETATM    8  H   UNK N   1      19.523  20.363   4.811  0.00  0.00     0.210 HD
ENDROOT
BRANCH   3   9
HETATM    9  O   UNK N   1      21.613  21.601   2.495  0.00  0.00    -0.390 OA
HETATM   10  H   UNK N   1      22.027  22.160   1.820  0.00  0.00     0.210 HD
ENDBRANCH   3   9
BRANCH   5  11
HETATM   11  O   UNK N   1      21.226  17.540   5.014  0.00  0.00    -0.318 OA
BRANCH  11  12
HETATM   12  C   UNK N   1      21.670  16.302   5.242  0.00  0.00     0.075 A 
HETATM   13  C   UNK N   1      22.934  15.982   4.816  0.00  0.00     0.052 A 
HETATM   14  C   UNK N   1      23.541  14.817   5.241  0.00  0.00     0.019 A 
HETATM   15  C   UNK N   1      22.879  13.968   6.158  0.00  0.00     0.052 A 
HETATM   16  C   UNK N   1      21.586  14.310   6.609  0.00  0.00     0.106 A 
HETATM   17  C   UNK N   1      20.989  15.456   6.108  0.00  0.00     0.073 A 
BRANCH  14  18
HETATM   18  C   UNK N   1      24.801  14.481   4.594  0.00  0.00     0.146 C 
HETATM   19  N   UNK N   1      25.622  13.698   5.185  0.00  0.00    -0.370 N 
ATOM     20  HN  UNK N   1      25.510  13.515   6.182  1.00  0.00     0.161 HD
BRANCH  19  21
HETATM   21  C   UNK N   1      26.698  13.070   4.467  0.00  0.00     0.123 C 
BRANCH  21  22
HETATM   22  C   UNK N   1      28.041  13.725   4.858  0.00  0.00     0.050 C 
BRANCH  22  23
HETATM   23  C   UNK N   1      28.481  14.943   4.002  0.00  0.00     0.274 C 
BRANCH  23  24
HETATM   24  N   UNK N   1      28.551  16.244   4.686  0.00  0.00     0.091 N 
HETATM   25  C   UNK N   1      27.729  17.277   4.047  0.00  0.00     0.302 C 
HETATM   26  C   UNK N   1      27.850  18.590   4.813  0.00  0.00     0.302 C 
HETATM   27  N   UNK N   1      27.466  18.419   6.216  0.00  0.00     0.091 N 
HETATM   28  C   UNK N   1      28.286  17.375   6.831  0.00  0.00     0.302 C 
HETATM   29  C   UNK N   1      28.146  16.062   6.077  0.00  0.00     0.302 C 
BRANCH  27  30
HETATM   30  C   UNK N   1      27.868  19.640   6.886  0.00  0.00     0.274 C 
BRANCH  30  31
HETATM   31  C   UNK N   1      27.525  20.861   6.058  0.00  0.00     0.049 C 
BRANCH  31  32
HETATM   32  C   UNK N   1      26.256  21.488   6.607  0.00  0.00     0.112 C 
BRANCH  32  33
HETATM   33  N   UNK N   1      26.049  21.073   7.985  0.00  0.00    -0.430 N 
HETATM   34  H   UNK N   1      25.201  20.619   8.324  0.00  0.00     0.149 HD
HETATM   35  H   UNK N   1      26.800  21.247   8.655  0.00  0.00     0.149 HD
ENDBRANCH  32  33
ENDBRANCH  31  32
ENDBRANCH  30  31
ENDBRANCH  27  30
ENDBRANCH  23  24
ENDBRANCH  22  23
ENDBRANCH  21  22
ENDBRANCH  19  21
BRANCH  18  36
HETATM   36  O   UNK N   1      25.004  14.844   3.306  0.00  0.00    -0.346 OA
HETATM   37  H   UNK N   1      25.724  14.486   2.825  0.00  0.00     0.219 HD
ENDBRANCH  18  36
ENDBRANCH  14  18
BRANCH  16  38
HETATM   38  N   UNK N   1      20.932  13.588   7.648  0.00  0.00    -0.116 N 
HETATM   39  O   UNK N   1      21.127  12.409   7.765  0.00  0.00    -0.532 OA
HETATM   40  O   UNK N   1      20.074  14.102   8.290  0.00  0.00    -0.532 OA
ENDBRANCH  16  38
ENDBRANCH  11  12
ENDBRANCH   5  11
BRANCH   2  41
HETATM   41  O   UNK N   1      20.746  20.113   0.240  0.00  0.00    -0.390 OA
HETATM   42  H   UNK N   1      20.205  19.950  -0.550  0.00  0.00     0.210 HD
ENDBRANCH   2  41
BRANCH   1  43
HETATM   43  C   UNK N   1      19.785  17.388   0.598  0.00  0.00     0.198 C 
BRANCH  43  44
HETATM   44  O   UNK N   1      20.267  17.495  -0.705  0.00  0.00    -0.398 OA
HETATM   45  H   UNK N   1      20.333  17.572  -1.669  0.00  0.00     0.209 HD
ENDBRANCH  43  44
ENDBRANCH   1  43
TORSDOF 17
ENDMDL
MODEL 3
REMARK VINA RESULT:      -7.4      6.781     11.311
REMARK  17 active torsions:
REMARK  status: ('A' for Active; 'I' for Inactive)
REMARK    1  A    between atoms: C_3  and  C_1 
REMARK    2  A    between atoms: C_5  and  C_1 
REMARK    3  A    between atoms: C_4  and  C_2 
REMARK    4  A    between atoms: C_6  and  C_2 
REMARK    5  A    between atoms: N_24  and  C_3 
REMARK    6  A    between atoms: N_25  and  C_4 
REMARK    7  A    between atoms: N_27  and  C_5 
REMARK    8  A    between atoms: N_28  and  C_6 
REMARK    9  A    between atoms: C_18  and  C_14 
REMARK   10  A    between atoms: O_30  and  C_14 
REMARK   11  A    between atoms: C_22  and  C_15 
REMARK   12  A    between atoms: N_29  and  C_16 
REMARK   13  A    between atoms: O_37  and  C_17 
REMARK   14  A    between atoms: C_19  and  O_31 
REMARK   15  A    between atoms: C_20  and  O_32 
REMARK   16  A    between atoms: O_34  and  C_22 
REMARK   17  A    between atoms: C_23  and  O_37 
ROOT
HETATM    1  C   UNK N   1      20.822  18.070   1.823  0.00  0.00     0.179 C 
HETATM    2  C   UNK N   1      20.422  19.485   1.360  0.00  0.00     0.180 C 
HETATM    3  C   UNK N   1      21.343  20.474   2.079  0.00  0.00     0.183 C 
HETATM    4  C   UNK N   1      21.230  20.273   3.580  0.00  0.00     0.205 C 
HETATM    5  C   UNK N   1      21.426  18.772   3.935  0.00  0.00     0.298 C 
HETATM    6  O   UNK N   1      19.984  20.702   4.044  0.00  0.00    -0.388 OA
HETATM    7  O   UNK N   1      20.542  17.946   3.208  0.00  0.00    -0.348 OA
HETATM    8  H   UNK N   1      19.058  20.848   4.297  0.00  0.00     0.210 HD
ENDROOT
BRANCH   3   9
HETATM    9  O   UNK N   1      21.027  21.795   1.749  0.00  0.00    -0.390 OA
HETATM   10  H   UNK N   1      20.922  22.482   2.426  0.00  0.00     0.210 HD
ENDBRANCH   3   9
BRANCH   5  11
HETATM   11  O   UNK N   1      21.227  18.560   5.282  0.00  0.00    -0.318 OA
BRANCH  11  12
HETATM   12  C   UNK N   1      21.513  17.348   5.762  0.00  0.00     0.075 A 
HETATM   13  C   UNK N   1      22.801  16.892   5.636  0.00  0.00     0.052 A 
HETATM   14  C   UNK N   1      23.216  15.772   6.329  0.00  0.00     0.019 A 
HETATM   15  C   UNK N   1      22.327  15.115   7.211  0.00  0.00     0.052 A 
HETATM   16  C   UNK N   1      21.008  15.599   7.352  0.00  0.00     0.106 A 
HETATM   17  C   UNK N   1      20.614  16.687   6.591  0.00  0.00     0.073 A 
BRANCH  14  18
HETATM   18  C   UNK N   1      24.538  15.266   5.990  0.00  0.00     0.146 C 
HETATM   19  N   UNK N   1      25.002  15.459   4.813  0.00  0.00    -0.370 N 
ATOM     20  HN  UNK N   1      24.368  15.735   4.064  1.00  0.00     0.161 HD
BRANCH  19  21
HETATM   21  C   UNK N   1      26.402  15.292   4.529  0.00  0.00     0.123 C 
BRANCH  21  22
HETATM   22  C   UNK N   1      27.049  16.668   4.261  0.00  0.00     0.050 C 
BRANCH  22  23
HETATM   23  C   UNK N   1      27.364  17.530   5.513  0.00  0.00     0.274 C 
BRANCH  23  24
HETATM   24  N   UNK N   1      28.770  17.585   5.944  0.00  0.00     0.091 N 
HETATM   25  C   UNK N   1      28.946  17.315   7.375  0.00  0.00     0.302 C 
HETATM   26  C   UNK N   1      30.424  17.385   7.743  0.00  0.00     0.302 C 
HETATM   27  N   UNK N   1      31.212  16.448   6.939  0.00  0.00     0.091 N 
HETATM   28  C   UNK N   1      31.012  16.723   5.517  0.00  0.00     0.302 C 
HETATM   29  C   UNK N   1      29.539  16.631   5.149  0.00  0.00     0.302 C 
BRANCH  27  30
HETATM   30  C   UNK N   1      32.600  16.788   7.185  0.00  0.00     0.274 C 
BRANCH  30  31
HETATM   31  C   UNK N   1      32.719  17.956   8.143  0.00  0.00     0.049 C 
BRANCH  31  32
HETATM   32  C   UNK N   1      34.171  18.398   8.201  0.00  0.00     0.112 C 
BRANCH  32  33
HETATM   33  N   UNK N   1      34.879  17.652   9.229  0.00  0.00    -0.430 N 
HETATM   34  H   UNK N   1      34.734  16.661   9.417  0.00  0.00     0.149 HD
HETATM   35  H   UNK N   1      35.564  18.153   9.797  0.00  0.00     0.149 HD
ENDBRANCH  32  33
ENDBRANCH  31  32
ENDBRANCH  30  31
ENDBRANCH  27  30
ENDBRANCH  23  24
ENDBRANCH  22  23
ENDBRANCH  21  22
ENDBRANCH  19  21
BRANCH  18  36
HETATM   36  O   UNK N   1      25.332  14.772   6.969  0.00  0.00    -0.346 OA
HETATM   37  H   UNK N   1      25.139  14.957   7.867  0.00  0.00     0.219 HD
ENDBRANCH  18  36
ENDBRANCH  14  18
BRANCH  16  38
HETATM   38  N   UNK N   1      20.116  15.085   8.336  0.00  0.00    -0.116 N 
HETATM   39  O   UNK N   1      20.194  13.933   8.665  0.00  0.00    -0.532 OA
HETATM   40  O   UNK N   1      19.193  15.734   8.710  0.00  0.00    -0.532 OA
ENDBRANCH  16  38
ENDBRANCH  11  12
ENDBRANCH   5  11
BRANCH   2  41
HETATM   41  O   UNK N   1      20.581  19.621  -0.019  0.00  0.00    -0.390 OA
HETATM   42  H   UNK N   1      21.274  19.261  -0.596  0.00  0.00     0.210 HD
ENDBRANCH   2  41
BRANCH   1  43
HETATM   43  C   UNK N   1      20.109  16.960   1.064  0.00  0.00     0.198 C 
BRANCH  43  44
HETATM   44  O   UNK N   1      18.770  17.279   0.852  0.00  0.00    -0.398 OA
HETATM   45  H   UNK N   1      17.945  17.640   0.492  0.00  0.00     0.209 HD
ENDBRANCH  43  44
ENDBRANCH   1  43
TORSDOF 17
ENDMDL
MODEL 4
REMARK VINA RESULT:      -7.4     10.294     12.779
REMARK  17 active torsions:
REMARK  status: ('A' for Active; 'I' for Inactive)
REMARK    1  A    between atoms: C_3  and  C_1 
REMARK    2  A    between atoms: C_5  and  C_1 
REMARK    3  A    between atoms: C_4  and  C_2 
REMARK    4  A    between atoms: C_6  and  C_2 
REMARK    5  A    between atoms: N_24  and  C_3 
REMARK    6  A    between atoms: N_25  and  C_4 
REMARK    7  A    between atoms: N_27  and  C_5 
REMARK    8  A    between atoms: N_28  and  C_6 
REMARK    9  A    between atoms: C_18  and  C_14 
REMARK   10  A    between atoms: O_30  and  C_14 
REMARK   11  A    between atoms: C_22  and  C_15 
REMARK   12  A    between atoms: N_29  and  C_16 
REMARK   13  A    between atoms: O_37  and  C_17 
REMARK   14  A    between atoms: C_19  and  O_31 
REMARK   15  A    between atoms: C_20  and  O_32 
REMARK   16  A    between atoms: O_34  and  C_22 
REMARK   17  A    between atoms: C_23  and  O_37 
ROOT
HETATM    1  C   UNK N   1      20.730  17.411   2.307  0.00  0.00     0.179 C 
HETATM    2  C   UNK N   1      20.368  18.743   1.618  0.00  0.00     0.180 C 
HETATM    3  C   UNK N   1      21.462  19.751   1.979  0.00  0.00     0.183 C 
HETATM    4  C   UNK N   1      21.572  19.860   3.489  0.00  0.00     0.205 C 
HETATM    5  C   UNK N   1      21.708  18.445   4.120  0.00  0.00     0.298 C 
HETATM    6  O   UNK N   1      20.449  20.500   4.022  0.00  0.00    -0.388 OA
HETATM    7  O   UNK N   1      20.662  17.591   3.712  0.00  0.00    -0.348 OA
HETATM    8  H   UNK N   1      19.588  20.789   4.365  0.00  0.00     0.210 HD
ENDROOT
BRANCH   3   9
HETATM    9  O   UNK N   1      21.197  21.008   1.427  0.00  0.00    -0.390 OA
HETATM   10  H   UNK N   1      21.750  21.780   1.622  0.00  0.00     0.210 HD
ENDBRANCH   3   9
BRANCH   5  11
HETATM   11  O   UNK N   1      21.708  18.524   5.496  0.00  0.00    -0.318 OA
BRANCH  11  12
HETATM   12  C   UNK N   1      21.457  17.402   6.175  0.00  0.00     0.075 A 
HETATM   13  C   UNK N   1      22.432  16.437   6.209  0.00  0.00     0.052 A 
HETATM   14  C   UNK N   1      22.337  15.380   7.093  0.00  0.00     0.019 A 
HETATM   15  C   UNK N   1      21.256  15.312   8.002  0.00  0.00     0.052 A 
HETATM   16  C   UNK N   1      20.265  16.317   7.976  0.00  0.00     0.106 A 
HETATM   17  C   UNK N   1      20.366  17.325   7.032  0.00  0.00     0.073 A 
BRANCH  14  18
HETATM   18  C   UNK N   1      23.321  14.321   6.927  0.00  0.00     0.146 C 
HETATM   19  N   UNK N   1      23.813  14.096   5.767  0.00  0.00    -0.370 N 
ATOM     20  HN  UNK N   1      23.348  14.476   4.943  1.00  0.00     0.161 HD
BRANCH  19  21
HETATM   21  C   UNK N   1      25.011  13.316   5.606  0.00  0.00     0.123 C 
BRANCH  21  22
HETATM   22  C   UNK N   1      26.138  14.200   5.028  0.00  0.00     0.050 C 
BRANCH  22  23
HETATM   23  C   UNK N   1      25.694  15.311   4.039  0.00  0.00     0.274 C 
BRANCH  23  24
HETATM   24  N   UNK N   1      25.972  16.701   4.434  0.00  0.00     0.091 N 
HETATM   25  C   UNK N   1      27.405  16.999   4.529  0.00  0.00     0.302 C 
HETATM   26  C   UNK N   1      27.611  18.454   4.937  0.00  0.00     0.302 C 
HETATM   27  N   UNK N   1      26.956  19.364   3.995  0.00  0.00     0.091 N 
HETATM   28  C   UNK N   1      25.532  19.042   3.904  0.00  0.00     0.302 C 
HETATM   29  C   UNK N   1      25.330  17.596   3.475  0.00  0.00     0.302 C 
BRANCH  27  30
HETATM   30  C   UNK N   1      26.994  20.672   4.619  0.00  0.00     0.274 C 
BRANCH  30  31
HETATM   31  C   UNK N   1      27.309  20.567   6.098  0.00  0.00     0.049 C 
BRANCH  31  32
HETATM   32  C   UNK N   1      26.454  21.568   6.855  0.00  0.00     0.112 C 
BRANCH  32  33
HETATM   33  N   UNK N   1      25.916  20.956   8.059  0.00  0.00    -0.430 N 
HETATM   34  H   UNK N   1      26.305  21.093   8.992  0.00  0.00     0.149 HD
HETATM   35  H   UNK N   1      25.099  20.352   7.965  0.00  0.00     0.149 HD
ENDBRANCH  32  33
ENDBRANCH  31  32
ENDBRANCH  30  31
ENDBRANCH  27  30
ENDBRANCH  23  24
ENDBRANCH  22  23
ENDBRANCH  21  22
ENDBRANCH  19  21
BRANCH  18  36
HETATM   36  O   UNK N   1      23.842  13.719   8.022  0.00  0.00    -0.346 OA
HETATM   37  H   UNK N   1      24.426  12.993   7.926  0.00  0.00     0.219 HD
ENDBRANCH  18  36
ENDBRANCH  14  18
BRANCH  16  38
HETATM   38  N   UNK N   1      19.242  16.395   8.964  0.00  0.00    -0.116 N 
HETATM   39  O   UNK N   1      18.696  15.392   9.334  0.00  0.00    -0.532 OA
HETATM   40  O   UNK N   1      18.810  17.450   9.301  0.00  0.00    -0.532 OA
ENDBRANCH  16  38
ENDBRANCH  11  12
ENDBRANCH   5  11
BRANCH   2  41
HETATM   41  O   UNK N   1      20.319  18.588   0.232  0.00  0.00    -0.390 OA
HETATM   42  H   UNK N   1      19.547  18.563  -0.355  0.00  0.00     0.210 HD
ENDBRANCH   2  41
BRANCH   1  43
HETATM   43  C   UNK N   1      19.826  16.256   1.903  0.00  0.00     0.198 C 
BRANCH  43  44
HETATM   44  O   UNK N   1      19.483  15.478   3.007  0.00  0.00    -0.398 OA
HETATM   45  H   UNK N   1      19.093  15.159   3.836  0.00  0.00     0.209 HD
ENDBRANCH  43  44
ENDBRANCH   1  43
TORSDOF 17
ENDMDL
MODEL 5
REMARK VINA RESULT:      -7.4     11.222     14.189
REMARK  17 active torsions:
REMARK  status: ('A' for Active; 'I' for Inactive)
REMARK    1  A    between atoms: C_3  and  C_1 
REMARK    2  A    between atoms: C_5  and  C_1 
REMARK    3  A    between atoms: C_4  and  C_2 
REMARK    4  A    between atoms: C_6  and  C_2 
REMARK    5  A    between atoms: N_24  and  C_3 
REMARK    6  A    between atoms: N_25  and  C_4 
REMARK    7  A    between atoms: N_27  and  C_5 
REMARK    8  A    between atoms: N_28  and  C_6 
REMARK    9  A    between atoms: C_18  and  C_14 
REMARK   10  A    between atoms: O_30  and  C_14 
REMARK   11  A    between atoms: C_22  and  C_15 
REMARK   12  A    between atoms: N_29  and  C_16 
REMARK   13  A    between atoms: O_37  and  C_17 
REMARK   14  A    between atoms: C_19  and  O_31 
REMARK   15  A    between atoms: C_20  and  O_32 
REMARK   16  A    between atoms: O_34  and  C_22 
REMARK   17  A    between atoms: C_23  and  O_37 
ROOT
HETATM    1  C   UNK N   1      20.745  14.829   7.985  0.00  0.00     0.179 C 
HETATM    2  C   UNK N   1      19.897  15.347   9.165  0.00  0.00     0.180 C 
HETATM    3  C   UNK N   1      18.884  16.341   8.591  0.00  0.00     0.183 C 
HETATM    4  C   UNK N   1      19.619  17.439   7.844  0.00  0.00     0.205 C 
HETATM    5  C   UNK N   1      20.621  16.820   6.829  0.00  0.00     0.298 C 
HETATM    6  O   UNK N   1      20.310  18.266   8.734  0.00  0.00    -0.388 OA
HETATM    7  O   UNK N   1      21.498  15.908   7.455  0.00  0.00    -0.348 OA
HETATM    8  H   UNK N   1      20.907  18.706   9.360  0.00  0.00     0.210 HD
ENDROOT
BRANCH   3   9
HETATM    9  O   UNK N   1      18.090  16.896   9.598  0.00  0.00    -0.390 OA
HETATM   10  H   UNK N   1      17.242  16.505   9.858  0.00  0.00     0.210 HD
ENDBRANCH   3   9
BRANCH   5  11
HETATM   11  O   UNK N   1      21.365  17.805   6.216  0.00  0.00    -0.318 OA
BRANCH  11  12
HETATM   12  C   UNK N   1      21.295  17.888   4.886  0.00  0.00     0.075 A 
HETATM   13  C   UNK N   1      20.744  16.835   4.202  0.00  0.00     0.052 A 
HETATM   14  C   UNK N   1      20.413  16.965   2.867  0.00  0.00     0.019 A 
HETATM   15  C   UNK N   1      20.597  18.204   2.210  0.00  0.00     0.052 A 
HETATM   16  C   UNK N   1      21.147  19.291   2.923  0.00  0.00     0.106 A 
HETATM   17  C   UNK N   1      21.524  19.098   4.242  0.00  0.00     0.073 A 
BRANCH  14  18
HETATM   18  C   UNK N   1      20.006  15.743   2.189  0.00  0.00     0.146 C 
HETATM   19  N   UNK N   1      20.639  15.363   1.145  0.00  0.00    -0.370 N 
ATOM     20  HN  UNK N   1      21.247  16.022   0.660  1.00  0.00     0.161 HD
BRANCH  19  21
HETATM   21  C   UNK N   1      20.511  14.020   0.645  0.00  0.00     0.123 C 
BRANCH  21  22
HETATM   22  C   UNK N   1      21.736  13.182   1.071  0.00  0.00     0.050 C 
BRANCH  22  23
HETATM   23  C   UNK N   1      23.126  13.789   0.741  0.00  0.00     0.274 C 
BRANCH  23  24
HETATM   24  N   UNK N   1      23.699  14.713   1.733  0.00  0.00     0.091 N 
HETATM   25  C   UNK N   1      23.435  14.310   3.118  0.00  0.00     0.302 C 
HETATM   26  C   UNK N   1      24.062  15.310   4.083  0.00  0.00     0.302 C 
HETATM   27  N   UNK N   1      25.502  15.439   3.848  0.00  0.00     0.091 N 
HETATM   28  C   UNK N   1      25.745  15.827   2.459  0.00  0.00     0.302 C 
HETATM   29  C   UNK N   1      25.137  14.816   1.499  0.00  0.00     0.302 C 
BRANCH  27  30
HETATM   30  C   UNK N   1      25.927  16.585   4.627  0.00  0.00     0.274 C 
BRANCH  30  31
HETATM   31  C   UNK N   1      25.921  17.851   3.793  0.00  0.00     0.049 C 
BRANCH  31  32
HETATM   32  C   UNK N   1      25.267  18.964   4.593  0.00  0.00     0.112 C 
BRANCH  32  33
HETATM   33  N   UNK N   1      26.044  19.241   5.790  0.00  0.00    -0.430 N 
HETATM   34  H   UNK N   1      26.235  20.179   6.143  0.00  0.00     0.149 HD
HETATM   35  H   UNK N   1      26.423  18.448   6.309  0.00  0.00     0.149 HD
ENDBRANCH  32  33
ENDBRANCH  31  32
ENDBRANCH  30  31
ENDBRANCH  27  30
ENDBRANCH  23  24
ENDBRANCH  22  23
ENDBRANCH  21  22
ENDBRANCH  19  21
BRANCH  18  36
HETATM   36  O   UNK N   1      19.094  14.931   2.774  0.00  0.00    -0.346 OA
HETATM   37  H   UNK N   1      18.395  14.568   2.266  0.00  0.00     0.219 HD
ENDBRANCH  18  36
ENDBRANCH  14  18
BRANCH  16  38
HETATM   38  N   UNK N   1      21.210  20.602   2.371  0.00  0.00    -0.116 N 
HETATM   39  O   UNK N   1      20.531  20.879   1.420  0.00  0.00    -0.532 OA
HETATM   40  O   UNK N   1      22.045  21.368   2.732  0.00  0.00    -0.532 OA
ENDBRANCH  16  38
ENDBRANCH  11  12
ENDBRANCH   5  11
BRANCH   2  41
HETATM   41  O   UNK N   1      19.218  14.299   9.787  0.00  0.00    -0.390 OA
HETATM   42  H   UNK N   1      19.506  13.384   9.936  0.00  0.00     0.210 HD
ENDBRANCH   2  41
BRANCH   1  43
HETATM   43  C   UNK N   1      21.690  13.699   8.369  0.00  0.00     0.198 C 
BRANCH  43  44
HETATM   44  O   UNK N   1      21.053  12.463   8.283  0.00  0.00    -0.398 OA
HETATM   45  H   UNK N   1      20.794  11.566   8.020  0.00  0.00     0.209 HD
ENDBRANCH  43  44
ENDBRANCH   1  43
TORSDOF 17
ENDMDL
MODEL 6
REMARK VINA RESULT:      -7.4      9.856     12.547
REMARK  17 active torsions:
REMARK  status: ('A' for Active; 'I' for Inactive)
REMARK    1  A    between atoms: C_3  and  C_1 
REMARK    2  A    between atoms: C_5  and  C_1 
REMARK    3  A    between atoms: C_4  and  C_2 
REMARK    4  A    between atoms: C_6  and  C_2 
REMARK    5  A    between atoms: N_24  and  C_3 
REMARK    6  A    between atoms: N_25  and  C_4 
REMARK    7  A    between atoms: N_27  and  C_5 
REMARK    8  A    between atoms: N_28  and  C_6 
REMARK    9  A    between atoms: C_18  and  C_14 
REMARK   10  A    between atoms: O_30  and  C_14 
REMARK   11  A    between atoms: C_22  and  C_15 
REMARK   12  A    between atoms: N_29  and  C_16 
REMARK   13  A    between atoms: O_37  and  C_17 
REMARK   14  A    between atoms: C_19  and  O_31 
REMARK   15  A    between atoms: C_20  and  O_32 
REMARK   16  A    between atoms: O_34  and  C_22 
REMARK   17  A    between atoms: C_23  and  O_37 
ROOT
HETATM    1  C   UNK N   1      21.675  19.803   3.249  0.00  0.00     0.179 C 
HETATM    2  C   UNK N   1      20.787  19.279   2.102  0.00  0.00     0.180 C 
HETATM    3  C   UNK N   1      19.634  18.502   2.742  0.00  0.00     0.183 C 
HETATM    4  C   UNK N   1      20.193  17.403   3.628  0.00  0.00     0.205 C 
HETATM    5  C   UNK N   1      21.251  17.989   4.605  0.00  0.00     0.298 C 
HETATM    6  O   UNK N   1      20.781  16.397   2.855  0.00  0.00    -0.388 OA
HETATM    7  O   UNK N   1      22.258  18.697   3.917  0.00  0.00    -0.348 OA
HETATM    8  H   UNK N   1      21.322  15.813   2.301  0.00  0.00     0.210 HD
ENDROOT
BRANCH   3   9
HETATM    9  O   UNK N   1      18.791  17.952   1.773  0.00  0.00    -0.390 OA
HETATM   10  H   UNK N   1      18.751  18.301   0.869  0.00  0.00     0.210 HD
ENDBRANCH   3   9
BRANCH   5  11
HETATM   11  O   UNK N   1      21.838  16.985   5.346  0.00  0.00    -0.318 OA
BRANCH  11  12
HETATM   12  C   UNK N   1      21.172  16.539   6.413  0.00  0.00     0.075 A 
HETATM   13  C   UNK N   1      21.471  15.286   6.883  0.00  0.00     0.052 A 
HETATM   14  C   UNK N   1      21.008  14.875   8.118  0.00  0.00     0.019 A 
HETATM   15  C   UNK N   1      20.262  15.763   8.927  0.00  0.00     0.052 A 
HETATM   16  C   UNK N   1      19.972  17.059   8.447  0.00  0.00     0.106 A 
HETATM   17  C   UNK N   1      20.402  17.408   7.177  0.00  0.00     0.073 A 
BRANCH  14  18
HETATM   18  C   UNK N   1      21.226  13.473   8.445  0.00  0.00     0.146 C 
HETATM   19  N   UNK N   1      22.053  12.787   7.752  0.00  0.00    -0.370 N 
ATOM     20  HN  UNK N   1      22.362  13.140   6.846  1.00  0.00     0.161 HD
BRANCH  19  21
HETATM   21  C   UNK N   1      22.557  11.526   8.227  0.00  0.00     0.123 C 
BRANCH  21  22
HETATM   22  C   UNK N   1      24.095  11.590   8.352  0.00  0.00     0.050 C 
BRANCH  22  23
HETATM   23  C   UNK N   1      24.716  13.011   8.428  0.00  0.00     0.274 C 
BRANCH  23  24
HETATM   24  N   UNK N   1      25.498  13.456   7.264  0.00  0.00     0.091 N 
HETATM   25  C   UNK N   1      25.322  12.598   6.088  0.00  0.00     0.302 C 
HETATM   26  C   UNK N   1      26.158  13.125   4.926  0.00  0.00     0.302 C 
HETATM   27  N   UNK N   1      25.809  14.512   4.611  0.00  0.00     0.091 N 
HETATM   28  C   UNK N   1      25.977  15.348   5.800  0.00  0.00     0.302 C 
HETATM   29  C   UNK N   1      25.125  14.833   6.950  0.00  0.00     0.302 C 
BRANCH  27  30
HETATM   30  C   UNK N   1      26.829  14.977   3.692  0.00  0.00     0.274 C 
BRANCH  30  31
HETATM   31  C   UNK N   1      27.900  15.769   4.412  0.00  0.00     0.049 C 
BRANCH  31  32
HETATM   32  C   UNK N   1      28.539  16.738   3.432  0.00  0.00     0.112 C 
BRANCH  32  33
HETATM   33  N   UNK N   1      28.665  18.053   4.039  0.00  0.00    -0.430 N 
HETATM   34  H   UNK N   1      29.409  18.316   4.684  0.00  0.00     0.149 HD
HETATM   35  H   UNK N   1      27.963  18.757   3.805  0.00  0.00     0.149 HD
ENDBRANCH  32  33
ENDBRANCH  31  32
ENDBRANCH  30  31
ENDBRANCH  27  30
ENDBRANCH  23  24
ENDBRANCH  22  23
ENDBRANCH  21  22
ENDBRANCH  19  21
BRANCH  18  36
HETATM   36  O   UNK N   1      20.700  12.968   9.586  0.00  0.00    -0.346 OA
HETATM   37  H   UNK N   1      21.061  13.209  10.416  0.00  0.00     0.219 HD
ENDBRANCH  18  36
ENDBRANCH  14  18
BRANCH  16  38
HETATM   38  N   UNK N   1      19.367  18.051   9.269  0.00  0.00    -0.116 N 
HETATM   39  O   UNK N   1      18.219  17.928   9.600  0.00  0.00    -0.532 OA
HETATM   40  O   UNK N   1      19.929  19.075   9.490  0.00  0.00    -0.532 OA
ENDBRANCH  16  38
ENDBRANCH  11  12
ENDBRANCH   5  11
BRANCH   2  41
HETATM   41  O   UNK N   1      20.273  20.334   1.348  0.00  0.00    -0.390 OA
HETATM   42  H   UNK N   1      20.283  21.286   1.538  0.00  0.00     0.210 HD
ENDBRANCH   2  41
BRANCH   1  43
HETATM   43  C   UNK N   1      22.775  20.745   2.780  0.00  0.00     0.198 C 
BRANCH  43  44
HETATM   44  O   UNK N   1      22.358  22.073   2.843  0.00  0.00    -0.398 OA
HETATM   45  H   UNK N   1      21.833  22.887   2.793  0.00  0.00     0.209 HD
ENDBRANCH  43  44
ENDBRANCH   1  43
TORSDOF 17
ENDMDL
MODEL 7
REMARK VINA RESULT:      -7.4      6.193     12.372
REMARK  17 active torsions:
REMARK  status: ('A' for Active; 'I' for Inactive)
REMARK    1  A    between atoms: C_3  and  C_1 
REMARK    2  A    between atoms: C_5  and  C_1 
REMARK    3  A    between atoms: C_4  and  C_2 
REMARK    4  A    between atoms: C_6  and  C_2 
REMARK    5  A    between atoms: N_24  and  C_3 
REMARK    6  A    between atoms: N_25  and  C_4 
REMARK    7  A    between atoms: N_27  and  C_5 
REMARK    8  A    between atoms: N_28  and  C_6 
REMARK    9  A    between atoms: C_18  and  C_14 
REMARK   10  A    between atoms: O_30  and  C_14 
REMARK   11  A    between atoms: C_22  and  C_15 
REMARK   12  A    between atoms: N_29  and  C_16 
REMARK   13  A    between atoms: O_37  and  C_17 
REMARK   14  A    between atoms: C_19  and  O_31 
REMARK   15  A    between atoms: C_20  and  O_32 
REMARK   16  A    between atoms: O_34  and  C_22 
REMARK   17  A    between atoms: C_23  and  O_37 
ROOT
HETATM    1  C   UNK N   1      33.761  15.949   9.421  0.00  0.00     0.179 C 
HETATM    2  C   UNK N   1      34.935  16.923   9.193  0.00  0.00     0.180 C 
HETATM    3  C   UNK N   1      34.348  18.208   8.604  0.00  0.00     0.183 C 
HETATM    4  C   UNK N   1      33.578  17.879   7.338  0.00  0.00     0.205 C 
HETATM    5  C   UNK N   1      32.570  16.726   7.608  0.00  0.00     0.298 C 
HETATM    6  O   UNK N   1      34.450  17.504   6.312  0.00  0.00    -0.388 OA
HETATM    7  O   UNK N   1      33.209  15.597   8.164  0.00  0.00    -0.348 OA
HETATM    8  H   UNK N   1      35.065  17.089   5.687  0.00  0.00     0.210 HD
ENDROOT
BRANCH   3   9
HETATM    9  O   UNK N   1      35.348  19.143   8.326  0.00  0.00    -0.390 OA
HETATM   10  H   UNK N   1      36.289  18.936   8.433  0.00  0.00     0.210 HD
ENDBRANCH   3   9
BRANCH   5  11
HETATM   11  O   UNK N   1      31.936  16.351   6.442  0.00  0.00    -0.318 OA
BRANCH  11  12
HETATM   12  C   UNK N   1      30.619  16.554   6.367  0.00  0.00     0.075 A 
HETATM   13  C   UNK N   1      29.874  15.683   5.614  0.00  0.00     0.052 A 
HETATM   14  C   UNK N   1      28.496  15.686   5.702  0.00  0.00     0.019 A 
HETATM   15  C   UNK N   1      27.846  16.556   6.608  0.00  0.00     0.052 A 
HETATM   16  C   UNK N   1      28.618  17.437   7.396  0.00  0.00     0.106 A 
HETATM   17  C   UNK N   1      29.993  17.446   7.229  0.00  0.00     0.073 A 
BRANCH  14  18
HETATM   18  C   UNK N   1      27.794  14.855   4.734  0.00  0.00     0.146 C 
HETATM   19  N   UNK N   1      26.619  14.429   5.008  0.00  0.00    -0.370 N 
ATOM     20  HN  UNK N   1      26.286  14.460   5.971  1.00  0.00     0.161 HD
BRANCH  19  21
HETATM   21  C   UNK N   1      25.759  13.908   3.979  0.00  0.00     0.123 C 
BRANCH  21  22
HETATM   22  C   UNK N   1      24.281  14.147   4.360  0.00  0.00     0.050 C 
BRANCH  22  23
HETATM   23  C   UNK N   1      23.249  14.016   3.209  0.00  0.00     0.274 C 
BRANCH  23  24
HETATM   24  N   UNK N   1      22.445  15.210   2.899  0.00  0.00     0.091 N 
HETATM   25  C   UNK N   1      21.001  14.971   2.987  0.00  0.00     0.302 C 
HETATM   26  C   UNK N   1      20.239  16.251   2.659  0.00  0.00     0.302 C 
HETATM   27  N   UNK N   1      20.637  17.345   3.547  0.00  0.00     0.091 N 
HETATM   28  C   UNK N   1      22.081  17.557   3.457  0.00  0.00     0.302 C 
HETATM   29  C   UNK N   1      22.839  16.285   3.806  0.00  0.00     0.302 C 
BRANCH  27  30
HETATM   30  C   UNK N   1      20.056  18.545   2.980  0.00  0.00     0.274 C 
BRANCH  30  31
HETATM   31  C   UNK N   1      20.645  19.792   3.606  0.00  0.00     0.049 C 
BRANCH  31  32
HETATM   32  C   UNK N   1      20.963  20.792   2.508  0.00  0.00     0.112 C 
BRANCH  32  33
HETATM   33  N   UNK N   1      20.493  20.293   1.227  0.00  0.00    -0.430 N 
HETATM   34  H   UNK N   1      20.405  20.865   0.387  0.00  0.00     0.149 HD
HETATM   35  H   UNK N   1      20.234  19.307   1.163  0.00  0.00     0.149 HD
ENDBRANCH  32  33
ENDBRANCH  31  32
ENDBRANCH  30  31
ENDBRANCH  27  30
ENDBRANCH  23  24
ENDBRANCH  22  23
ENDBRANCH  21  22
ENDBRANCH  19  21
BRANCH  18  36
HETATM   36  O   UNK N   1      28.308  14.704   3.491  0.00  0.00    -0.346 OA
HETATM   37  H   UNK N   1      27.736  14.641   2.752  0.00  0.00     0.219 HD
ENDBRANCH  18  36
ENDBRANCH  14  18
BRANCH  16  38
HETATM   38  N   UNK N   1      28.042  18.222   8.436  0.00  0.00    -0.116 N 
HETATM   39  O   UNK N   1      27.714  17.696   9.464  0.00  0.00    -0.532 OA
HETATM   40  O   UNK N   1      27.730  19.351   8.235  0.00  0.00    -0.532 OA
ENDBRANCH  16  38
ENDBRANCH  11  12
ENDBRANCH   5  11
BRANCH   2  41
HETATM   41  O   UNK N   1      35.579  17.216  10.396  0.00  0.00    -0.390 OA
HETATM   42  H   UNK N   1      36.491  17.025  10.665  0.00  0.00     0.210 HD
ENDBRANCH   2  41
BRANCH   1  43
HETATM   43  C   UNK N   1      34.162  14.683  10.166  0.00  0.00     0.198 C 
BRANCH  43  44
HETATM   44  O   UNK N   1      33.790  14.751  11.506  0.00  0.00    -0.398 OA
HETATM   45  H   UNK N   1      33.309  14.667  12.344  0.00  0.00     0.209 HD
ENDBRANCH  43  44
ENDBRANCH   1  43
TORSDOF 17
ENDMDL
MODEL 8
REMARK VINA RESULT:      -7.3      5.709     11.290
REMARK  17 active torsions:
REMARK  status: ('A' for Active; 'I' for Inactive)
REMARK    1  A    between atoms: C_3  and  C_1 
REMARK    2  A    between atoms: C_5  and  C_1 
REMARK    3  A    between atoms: C_4  and  C_2 
REMARK    4  A    between atoms: C_6  and  C_2 
REMARK    5  A    between atoms: N_24  and  C_3 
REMARK    6  A    between atoms: N_25  and  C_4 
REMARK    7  A    between atoms: N_27  and  C_5 
REMARK    8  A    between atoms: N_28  and  C_6 
REMARK    9  A    between atoms: C_18  and  C_14 
REMARK   10  A    between atoms: O_30  and  C_14 
REMARK   11  A    between atoms: C_22  and  C_15 
REMARK   12  A    between atoms: N_29  and  C_16 
REMARK   13  A    between atoms: O_37  and  C_17 
REMARK   14  A    between atoms: C_19  and  O_31 
REMARK   15  A    between atoms: C_20  and  O_32 
REMARK   16  A    between atoms: O_34  and  C_22 
REMARK   17  A    between atoms: C_23  and  O_37 
ROOT
HETATM    1  C   UNK N   1      33.332  15.959   9.212  0.00  0.00     0.179 C 
HETATM    2  C   UNK N   1      34.576  16.870   9.171  0.00  0.00     0.180 C 
HETATM    3  C   UNK N   1      34.149  18.190   8.526  0.00  0.00     0.183 C 
HETATM    4  C   UNK N   1      33.552  17.916   7.157  0.00  0.00     0.205 C 
HETATM    5  C   UNK N   1      32.456  16.818   7.260  0.00  0.00     0.298 C 
HETATM    6  O   UNK N   1      34.541  17.503   6.260  0.00  0.00    -0.388 OA
HETATM    7  O   UNK N   1      32.947  15.651   7.882  0.00  0.00    -0.348 OA
HETATM    8  H   UNK N   1      35.217  17.061   5.722  0.00  0.00     0.210 HD
ENDROOT
BRANCH   3   9
HETATM    9  O   UNK N   1      35.227  19.071   8.409  0.00  0.00    -0.390 OA
HETATM   10  H   UNK N   1      35.420  19.739   9.085  0.00  0.00     0.210 HD
ENDBRANCH   3   9
BRANCH   5  11
HETATM   11  O   UNK N   1      31.977  16.489   6.010  0.00  0.00    -0.318 OA
BRANCH  11  12
HETATM   12  C   UNK N   1      30.683  16.175   5.912  0.00  0.00     0.075 A 
HETATM   13  C   UNK N   1      29.772  17.200   5.873  0.00  0.00     0.052 A 
HETATM   14  C   UNK N   1      28.460  16.956   5.519  0.00  0.00     0.019 A 
HETATM   15  C   UNK N   1      28.058  15.651   5.148  0.00  0.00     0.052 A 
HETATM   16  C   UNK N   1      29.003  14.603   5.171  0.00  0.00     0.106 A 
HETATM   17  C   UNK N   1      30.293  14.880   5.593  0.00  0.00     0.073 A 
BRANCH  14  18
HETATM   18  C   UNK N   1      27.537  18.069   5.682  0.00  0.00     0.146 C 
HETATM   19  N   UNK N   1      26.768  18.395   4.714  0.00  0.00    -0.370 N 
ATOM     20  HN  UNK N   1      26.969  18.050   3.776  1.00  0.00     0.161 HD
BRANCH  19  21
HETATM   21  C   UNK N   1      25.623  19.240   4.924  0.00  0.00     0.123 C 
BRANCH  21  22
HETATM   22  C   UNK N   1      24.643  19.100   3.739  0.00  0.00     0.050 C 
BRANCH  22  23
HETATM   23  C   UNK N   1      23.150  18.893   4.108  0.00  0.00     0.274 C 
BRANCH  23  24
HETATM   24  N   UNK N   1      22.862  17.959   5.208  0.00  0.00     0.091 N 
HETATM   25  C   UNK N   1      21.499  18.088   5.733  0.00  0.00     0.302 C 
HETATM   26  C   UNK N   1      21.276  17.088   6.862  0.00  0.00     0.302 C 
HETATM   27  N   UNK N   1      21.529  15.717   6.410  0.00  0.00     0.091 N 
HETATM   28  C   UNK N   1      22.886  15.613   5.877  0.00  0.00     0.302 C 
HETATM   29  C   UNK N   1      23.098  16.597   4.737  0.00  0.00     0.302 C 
BRANCH  27  30
HETATM   30  C   UNK N   1      21.544  14.903   7.610  0.00  0.00     0.274 C 
BRANCH  30  31
HETATM   31  C   UNK N   1      20.728  15.539   8.717  0.00  0.00     0.049 C 
BRANCH  31  32
HETATM   32  C   UNK N   1      20.255  14.451   9.666  0.00  0.00     0.112 C 
BRANCH  32  33
HETATM   33  N   UNK N   1      21.304  13.463   9.856  0.00  0.00    -0.430 N 
HETATM   34  H   UNK N   1      21.143  12.517  10.200  0.00  0.00     0.149 HD
HETATM   35  H   UNK N   1      22.263  13.733   9.630  0.00  0.00     0.149 HD
ENDBRANCH  32  33
ENDBRANCH  31  32
ENDBRANCH  30  31
ENDBRANCH  27  30
ENDBRANCH  23  24
ENDBRANCH  22  23
ENDBRANCH  21  22
ENDBRANCH  19  21
BRANCH  18  36
HETATM   36  O   UNK N   1      27.369  18.619   6.908  0.00  0.00    -0.346 OA
HETATM   37  H   UNK N   1      27.984  18.439   7.591  0.00  0.00     0.219 HD
ENDBRANCH  18  36
ENDBRANCH  14  18
BRANCH  16  38
HETATM   38  N   UNK N   1      28.707  13.307   4.660  0.00  0.00    -0.116 N 
HETATM   39  O   UNK N   1      29.476  12.777   3.904  0.00  0.00    -0.532 OA
HETATM   40  O   UNK N   1      27.638  12.820   4.838  0.00  0.00    -0.532 OA
ENDBRANCH  16  38
ENDBRANCH  11  12
ENDBRANCH   5  11
BRANCH   2  41
HETATM   41  O   UNK N   1      35.056  17.115  10.457  0.00  0.00    -0.390 OA
HETATM   42  H   UNK N   1      35.506  16.512  11.070  0.00  0.00     0.210 HD
ENDBRANCH   2  41
BRANCH   1  43
HETATM   43  C   UNK N   1      33.553  14.666   9.984  0.00  0.00     0.198 C 
BRANCH  43  44
HETATM   44  O   UNK N   1      33.425  14.874  11.356  0.00  0.00    -0.398 OA
HETATM   45  H   UNK N   1      33.270  15.271  12.226  0.00  0.00     0.209 HD
ENDBRANCH  43  44
ENDBRANCH   1  43
TORSDOF 17
ENDMDL
MODEL 9
REMARK VINA RESULT:      -7.2      9.478     12.823
REMARK  17 active torsions:
REMARK  status: ('A' for Active; 'I' for Inactive)
REMARK    1  A    between atoms: C_3  and  C_1 
REMARK    2  A    between atoms: C_5  and  C_1 
REMARK    3  A    between atoms: C_4  and  C_2 
REMARK    4  A    between atoms: C_6  and  C_2 
REMARK    5  A    between atoms: N_24  and  C_3 
REMARK    6  A    between atoms: N_25  and  C_4 
REMARK    7  A    between atoms: N_27  and  C_5 
REMARK    8  A    between atoms: N_28  and  C_6 
REMARK    9  A    between atoms: C_18  and  C_14 
REMARK   10  A    between atoms: O_30  and  C_14 
REMARK   11  A    between atoms: C_22  and  C_15 
REMARK   12  A    between atoms: N_29  and  C_16 
REMARK   13  A    between atoms: O_37  and  C_17 
REMARK   14  A    between atoms: C_19  and  O_31 
REMARK   15  A    between atoms: C_20  and  O_32 
REMARK   16  A    between atoms: O_34  and  C_22 
REMARK   17  A    between atoms: C_23  and  O_37 
ROOT
HETATM    1  C   UNK N   1      21.063  16.698   7.650  0.00  0.00     0.179 C 
HETATM    2  C   UNK N   1      20.864  15.191   7.907  0.00  0.00     0.180 C 
HETATM    3  C   UNK N   1      22.167  14.490   7.514  0.00  0.00     0.183 C 
HETATM    4  C   UNK N   1      22.506  14.820   6.072  0.00  0.00     0.205 C 
HETATM    5  C   UNK N   1      22.462  16.359   5.850  0.00  0.00     0.298 C 
HETATM    6  O   UNK N   1      21.609  14.198   5.199  0.00  0.00    -0.388 OA
HETATM    7  O   UNK N   1      21.227  16.907   6.257  0.00  0.00    -0.348 OA
HETATM    8  H   UNK N   1      20.875  13.895   4.641  0.00  0.00     0.210 HD
ENDROOT
BRANCH   3   9
HETATM    9  O   UNK N   1      22.068  13.105   7.677  0.00  0.00    -0.390 OA
HETATM   10  H   UNK N   1      21.258  12.619   7.458  0.00  0.00     0.210 HD
ENDBRANCH   3   9
BRANCH   5  11
HETATM   11  O   UNK N   1      22.670  16.665   4.523  0.00  0.00    -0.318 OA
BRANCH  11  12
HETATM   12  C   UNK N   1      22.813  17.954   4.206  0.00  0.00     0.075 A 
HETATM   13  C   UNK N   1      24.067  18.504   4.294  0.00  0.00     0.052 A 
HETATM   14  C   UNK N   1      24.326  19.743   3.743  0.00  0.00     0.019 A 
HETATM   15  C   UNK N   1      23.310  20.433   3.041  0.00  0.00     0.052 A 
HETATM   16  C   UNK N   1      22.026  19.854   2.936  0.00  0.00     0.106 A 
HETATM   17  C   UNK N   1      21.793  18.639   3.558  0.00  0.00     0.073 A 
BRANCH  14  18
HETATM   18  C   UNK N   1      25.630  20.316   4.046  0.00  0.00     0.146 C 
HETATM   19  N   UNK N   1      25.962  20.511   5.266  0.00  0.00    -0.370 N 
ATOM     20  HN  UNK N   1      25.243  20.502   5.989  1.00  0.00     0.161 HD
BRANCH  19  21
HETATM   21  C   UNK N   1      27.332  20.745   5.636  0.00  0.00     0.123 C 
BRANCH  21  22
HETATM   22  C   UNK N   1      27.810  19.638   6.602  0.00  0.00     0.050 C 
BRANCH  22  23
HETATM   23  C   UNK N   1      28.356  18.344   5.941  0.00  0.00     0.274 C 
BRANCH  23  24
HETATM   24  N   UNK N   1      27.379  17.491   5.245  0.00  0.00     0.091 N 
HETATM   25  C   UNK N   1      27.772  17.169   3.869  0.00  0.00     0.302 C 
HETATM   26  C   UNK N   1      26.715  16.281   3.219  0.00  0.00     0.302 C 
HETATM   27  N   UNK N   1      26.502  15.058   3.997  0.00  0.00     0.091 N 
HETATM   28  C   UNK N   1      26.127  15.401   5.368  0.00  0.00     0.302 C 
HETATM   29  C   UNK N   1      27.193  16.268   6.021  0.00  0.00     0.302 C 
BRANCH  27  30
HETATM   30  C   UNK N   1      25.317  14.438   3.438  0.00  0.00     0.274 C 
BRANCH  30  31
HETATM   31  C   UNK N   1      25.404  14.343   1.929  0.00  0.00     0.049 C 
BRANCH  31  32
HETATM   32  C   UNK N   1      24.005  14.454   1.348  0.00  0.00     0.112 C 
BRANCH  32  33
HETATM   33  N   UNK N   1      23.029  14.585   2.417  0.00  0.00    -0.430 N 
HETATM   34  H   UNK N   1      22.077  14.928   2.284  0.00  0.00     0.149 HD
HETATM   35  H   UNK N   1      23.313  14.317   3.360  0.00  0.00     0.149 HD
ENDBRANCH  32  33
ENDBRANCH  31  32
ENDBRANCH  30  31
ENDBRANCH  27  30
ENDBRANCH  23  24
ENDBRANCH  22  23
ENDBRANCH  21  22
ENDBRANCH  19  21
BRANCH  18  36
HETATM   36  O   UNK N   1      26.541  20.455   3.055  0.00  0.00    -0.346 OA
HETATM   37  H   UNK N   1      26.761  21.308   2.736  0.00  0.00     0.219 HD
ENDBRANCH  18  36
ENDBRANCH  14  18
BRANCH  16  38
HETATM   38  N   UNK N   1      21.009  20.417   2.113  0.00  0.00    -0.116 N 
HETATM   39  O   UNK N   1      19.945  19.868   2.026  0.00  0.00    -0.532 OA
HETATM   40  O   UNK N   1      21.257  21.323   1.385  0.00  0.00    -0.532 OA
ENDBRANCH  16  38
ENDBRANCH  11  12
ENDBRANCH   5  11
BRANCH   2  41
HETATM   41  O   UNK N   1      20.592  14.946   9.253  0.00  0.00    -0.390 OA
HETATM   42  H   UNK N   1      20.369  15.575   9.958  0.00  0.00     0.210 HD
ENDBRANCH   2  41
BRANCH   1  43
HETATM   43  C   UNK N   1      19.910  17.555   8.154  0.00  0.00     0.198 C 
BRANCH  43  44
HETATM   44  O   UNK N   1      20.292  18.889   8.274  0.00  0.00    -0.398 OA
HETATM   45  H   UNK N   1      20.809  19.707   8.336  0.00  0.00     0.209 HD
ENDBRANCH  43  44
ENDBRANCH   1  43
TORSDOF 17
ENDMDL
