REMARK  2 active torsions:
REMARK  status: ('A' for Active; 'I' for Inactive)
REMARK    1  A    between atoms: O_1  and  C_2 
REMARK    2  A    between atoms: C_2  and  C_3 
ROOT
HETATM    1  C   UNK N   1       0.915   0.305  -0.000  0.00  0.00     0.408 C 
HETATM    2  F   UNK N   1       0.787   1.680  -0.000  0.00  0.00    -0.169 F 
HETATM    3  F   UNK N   1       2.263   0.593   0.000  0.00  0.00    -0.169 F 
HETATM    4  F   UNK N   1      -0.468   0.169   0.000  0.00  0.00    -0.169 F 
ENDROOT
BRANCH   1   5
HETATM    5  C   UNK N   1       1.333  -1.179  -0.000  0.00  0.00     0.281 C 
BRANCH   5   6
HETATM    6  O   UNK N   1       0.276  -2.097  -0.000  0.00  0.00    -0.392 OA
HETATM    7  H   UNK N   1      -0.641  -1.780  -0.000  0.00  0.00     0.209 HD
ENDBRANCH   5   6
ENDBRANCH   1   5
TORSDOF 2
