MODEL 1
REMARK VINA RESULT:      -4.5      0.000      0.000
REMARK  1 active torsions:
REMARK  status: ('A' for Active; 'I' for Inactive)
REMARK    1  A    between atoms: N_7  and  C_5 
ROOT
HETATM    1  C   UNK N   1      19.937  15.841   3.371  0.00  0.00     0.158 C 
HETATM    2  C   UNK N   1      20.882  21.210   1.342  0.00  0.00     0.182 A 
HETATM    3  C   UNK N   1      20.832  17.919   4.275  0.00  0.00     0.185 A 
HETATM    4  C   UNK N   1      20.467  19.201   1.908  0.00  0.00     0.122 A 
HETATM    5  C   UNK N   1      20.106  17.873   2.000  0.00  0.00     0.132 A 
HETATM    6  C   UNK N   1      20.987  19.844   2.964  0.00  0.00     0.138 A 
HETATM    7  N   UNK N   1      20.387  20.037   0.864  0.00  0.00    -0.346 N 
ATOM      8  HN  UNK N   1      20.035  19.840  -0.074  1.00  0.00     0.167 HD
HETATM    9  N   UNK N   1      21.261  21.113   2.647  0.00  0.00    -0.337 N 
ATOM     10  HN  UNK N   1      21.661  21.838   3.241  1.00  0.00     0.168 HD
HETATM   11  N   UNK N   1      21.183  19.236   4.160  0.00  0.00    -0.336 N 
HETATM   12  N   UNK N   1      20.296  17.239   3.205  0.00  0.00    -0.332 N 
HETATM   13  H   UNK N   1      21.567  19.728   4.922  0.00  0.00     0.168 HD
ENDROOT
BRANCH   5  14
HETATM   14  N   UNK N   1      19.559  17.198   0.887  0.00  0.00    -0.383 N 
HETATM   15  H   UNK N   1      18.714  16.701   0.979  0.00  0.00     0.157 HD
HETATM   16  H   UNK N   1      20.022  17.224   0.018  0.00  0.00     0.157 HD
ENDBRANCH   5  14
TORSDOF 1
ENDMDL
MODEL 2
REMARK VINA RESULT:      -4.5     23.519     24.400
REMARK  1 active torsions:
REMARK  status: ('A' for Active; 'I' for Inactive)
REMARK    1  A    between atoms: N_7  and  C_5 
ROOT
HETATM    1  C   UNK N   1      42.964  20.990   3.621  0.00  0.00     0.158 C 
HETATM    2  C   UNK N   1      45.949  25.584   1.667  0.00  0.00     0.182 A 
HETATM    3  C   UNK N   1      42.569  22.775   2.011  0.00  0.00     0.185 A 
HETATM    4  C   UNK N   1      45.010  23.864   2.497  0.00  0.00     0.122 A 
HETATM    5  C   UNK N   1      44.647  22.727   3.186  0.00  0.00     0.132 A 
HETATM    6  C   UNK N   1      44.175  24.419   1.606  0.00  0.00     0.138 A 
HETATM    7  N   UNK N   1      46.143  24.577   2.560  0.00  0.00    -0.346 N 
ATOM      8  HN  UNK N   1      46.962  24.404   3.143  1.00  0.00     0.167 HD
HETATM    9  N   UNK N   1      44.731  25.506   1.062  0.00  0.00    -0.337 N 
ATOM     10  HN  UNK N   1      44.338  26.130   0.358  1.00  0.00     0.168 HD
HETATM   11  N   UNK N   1      42.950  23.904   1.338  0.00  0.00    -0.336 N 
HETATM   12  N   UNK N   1      43.409  22.188   2.930  0.00  0.00    -0.332 N 
HETATM   13  H   UNK N   1      42.354  24.329   0.680  0.00  0.00     0.168 HD
ENDROOT
BRANCH   5  14
HETATM   14  N   UNK N   1      45.527  22.143   4.124  0.00  0.00    -0.383 N 
HETATM   15  H   UNK N   1      45.460  21.183   4.331  0.00  0.00     0.157 HD
HETATM   16  H   UNK N   1      46.209  22.696   4.571  0.00  0.00     0.157 HD
ENDBRANCH   5  14
TORSDOF 1
ENDMDL
MODEL 3
REMARK VINA RESULT:      -4.4     14.719     16.065
REMARK  1 active torsions:
REMARK  status: ('A' for Active; 'I' for Inactive)
REMARK    1  A    between atoms: N_7  and  C_5 
ROOT
HETATM    1  C   UNK N   1      32.034  16.175   7.716  0.00  0.00     0.158 C 
HETATM    2  C   UNK N   1      35.400  14.408  12.119  0.00  0.00     0.182 A 
HETATM    3  C   UNK N   1      33.796  17.165   9.076  0.00  0.00     0.185 A 
HETATM    4  C   UNK N   1      34.087  14.877  10.510  0.00  0.00     0.122 A 
HETATM    5  C   UNK N   1      33.144  14.908   9.505  0.00  0.00     0.132 A 
HETATM    6  C   UNK N   1      34.844  15.954  10.773  0.00  0.00     0.138 A 
HETATM    7  N   UNK N   1      34.414  13.880  11.345  0.00  0.00    -0.346 N 
ATOM      8  HN  UNK N   1      34.015  12.942  11.389  1.00  0.00     0.167 HD
HETATM    9  N   UNK N   1      35.683  15.697  11.781  0.00  0.00    -0.337 N 
ATOM     10  HN  UNK N   1      36.374  16.319  12.199  1.00  0.00     0.168 HD
HETATM   11  N   UNK N   1      34.726  17.111  10.078  0.00  0.00    -0.336 N 
HETATM   12  N   UNK N   1      33.009  16.073   8.788  0.00  0.00    -0.332 N 
HETATM   13  H   UNK N   1      35.292  17.889  10.288  0.00  0.00     0.168 HD
ENDROOT
BRANCH   5  14
HETATM   14  N   UNK N   1      32.349  13.774   9.230  0.00  0.00    -0.383 N 
HETATM   15  H   UNK N   1      32.146  13.129   9.946  0.00  0.00     0.157 HD
HETATM   16  H   UNK N   1      31.997  13.628   8.322  0.00  0.00     0.157 HD
ENDBRANCH   5  14
TORSDOF 1
ENDMDL
MODEL 4
REMARK VINA RESULT:      -4.4     18.348     19.660
REMARK  1 active torsions:
REMARK  status: ('A' for Active; 'I' for Inactive)
REMARK    1  A    between atoms: N_7  and  C_5 
ROOT
HETATM    1  C   UNK N   1      35.735  11.940  16.480  0.00  0.00     0.158 C 
HETATM    2  C   UNK N   1      35.292  14.637  11.345  0.00  0.00     0.182 A 
HETATM    3  C   UNK N   1      36.785  13.866  15.420  0.00  0.00     0.185 A 
HETATM    4  C   UNK N   1      35.317  13.526  13.160  0.00  0.00     0.122 A 
HETATM    5  C   UNK N   1      35.131  12.646  14.205  0.00  0.00     0.132 A 
HETATM    6  C   UNK N   1      36.204  14.528  13.260  0.00  0.00     0.138 A 
HETATM    7  N   UNK N   1      34.722  13.566  11.960  0.00  0.00    -0.346 N 
ATOM      8  HN  UNK N   1      34.006  12.939  11.593  1.00  0.00     0.167 HD
HETATM    9  N   UNK N   1      36.217  15.250  12.135  0.00  0.00    -0.337 N 
ATOM     10  HN  UNK N   1      36.785  16.068  11.919  1.00  0.00     0.168 HD
HETATM   11  N   UNK N   1      36.953  14.727  14.371  0.00  0.00    -0.336 N 
HETATM   12  N   UNK N   1      35.881  12.831  15.342  0.00  0.00    -0.332 N 
HETATM   13  H   UNK N   1      37.598  15.470  14.422  0.00  0.00     0.168 HD
ENDROOT
BRANCH   5  14
HETATM   14  N   UNK N   1      34.197  11.592  14.099  0.00  0.00    -0.383 N 
HETATM   15  H   UNK N   1      33.731  11.431  13.247  0.00  0.00     0.157 HD
HETATM   16  H   UNK N   1      34.012  11.017  14.877  0.00  0.00     0.157 HD
ENDBRANCH   5  14
TORSDOF 1
ENDMDL
MODEL 5
REMARK VINA RESULT:      -4.3      7.981      9.539
REMARK  1 active torsions:
REMARK  status: ('A' for Active; 'I' for Inactive)
REMARK    1  A    between atoms: N_7  and  C_5 
ROOT
HETATM    1  C   UNK N   1      27.357  20.045   4.161  0.00  0.00     0.158 C 
HETATM    2  C   UNK N   1      28.667  17.841   9.382  0.00  0.00     0.182 A 
HETATM    3  C   UNK N   1      28.882  18.345   5.008  0.00  0.00     0.185 A 
HETATM    4  C   UNK N   1      28.060  18.764   7.563  0.00  0.00     0.122 A 
HETATM    5  C   UNK N   1      27.489  19.513   6.556  0.00  0.00     0.132 A 
HETATM    6  C   UNK N   1      29.000  17.848   7.285  0.00  0.00     0.138 A 
HETATM    7  N   UNK N   1      27.825  18.785   8.882  0.00  0.00    -0.346 N 
ATOM      8  HN  UNK N   1      27.167  19.374   9.393  1.00  0.00     0.167 HD
HETATM    9  N   UNK N   1      29.408  17.245   8.406  0.00  0.00    -0.337 N 
ATOM     10  HN  UNK N   1      30.109  16.512   8.508  1.00  0.00     0.168 HD
HETATM   11  N   UNK N   1      29.434  17.613   6.023  0.00  0.00    -0.336 N 
HETATM   12  N   UNK N   1      27.916  19.290   5.269  0.00  0.00    -0.332 N 
HETATM   13  H   UNK N   1      30.126  16.935   5.842  0.00  0.00     0.168 HD
ENDROOT
BRANCH   5  14
HETATM   14  N   UNK N   1      26.499  20.477   6.850  0.00  0.00    -0.383 N 
HETATM   15  H   UNK N   1      26.618  21.410   6.559  0.00  0.00     0.157 HD
HETATM   16  H   UNK N   1      25.690  20.216   7.347  0.00  0.00     0.157 HD
ENDBRANCH   5  14
TORSDOF 1
ENDMDL
MODEL 6
REMARK VINA RESULT:      -4.3     17.823     19.199
REMARK  1 active torsions:
REMARK  status: ('A' for Active; 'I' for Inactive)
REMARK    1  A    between atoms: N_7  and  C_5 
ROOT
HETATM    1  C   UNK N   1      35.974  12.597  15.759  0.00  0.00     0.158 C 
HETATM    2  C   UNK N   1      35.743  15.400  10.667  0.00  0.00     0.182 A 
HETATM    3  C   UNK N   1      34.860  12.249  13.621  0.00  0.00     0.185 A 
HETATM    4  C   UNK N   1      35.947  14.515  12.592  0.00  0.00     0.122 A 
HETATM    5  C   UNK N   1      36.252  14.170  13.891  0.00  0.00     0.132 A 
HETATM    6  C   UNK N   1      35.131  13.748  11.853  0.00  0.00     0.138 A 
HETATM    7  N   UNK N   1      36.353  15.570  11.871  0.00  0.00    -0.346 N 
ATOM      8  HN  UNK N   1      36.975  16.325  12.158  1.00  0.00     0.167 HD
HETATM    9  N   UNK N   1      34.978  14.273  10.634  0.00  0.00    -0.337 N 
ATOM     10  HN  UNK N   1      34.420  13.914   9.859  1.00  0.00     0.168 HD
HETATM   11  N   UNK N   1      34.571  12.611  12.333  0.00  0.00    -0.336 N 
HETATM   12  N   UNK N   1      35.694  13.020  14.398  0.00  0.00    -0.332 N 
HETATM   13  H   UNK N   1      33.975  12.063  11.773  0.00  0.00     0.168 HD
ENDROOT
BRANCH   5  14
HETATM   14  N   UNK N   1      37.111  14.978  14.668  0.00  0.00    -0.383 N 
HETATM   15  H   UNK N   1      36.838  15.263  15.569  0.00  0.00     0.157 HD
HETATM   16  H   UNK N   1      37.984  15.257  14.307  0.00  0.00     0.157 HD
ENDBRANCH   5  14
TORSDOF 1
ENDMDL
MODEL 7
REMARK VINA RESULT:      -4.3     21.509     22.299
REMARK  1 active torsions:
REMARK  status: ('A' for Active; 'I' for Inactive)
REMARK    1  A    between atoms: N_7  and  C_5 
ROOT
HETATM    1  C   UNK N   1      39.706  20.936   1.630  0.00  0.00     0.158 C 
HETATM    2  C   UNK N   1      44.908  22.041   3.986  0.00  0.00     0.182 A 
HETATM    3  C   UNK N   1      41.113  22.904   1.915  0.00  0.00     0.185 A 
HETATM    4  C   UNK N   1      43.030  21.450   3.176  0.00  0.00     0.122 A 
HETATM    5  C   UNK N   1      41.891  20.804   2.746  0.00  0.00     0.132 A 
HETATM    6  C   UNK N   1      43.187  22.768   2.976  0.00  0.00     0.138 A 
HETATM    7  N   UNK N   1      44.102  20.959   3.814  0.00  0.00    -0.346 N 
ATOM      8  HN  UNK N   1      44.274  19.996   4.103  1.00  0.00     0.167 HD
HETATM    9  N   UNK N   1      44.359  23.177   3.473  0.00  0.00    -0.337 N 
ATOM     10  HN  UNK N   1      44.750  24.119   3.469  1.00  0.00     0.168 HD
HETATM   11  N   UNK N   1      42.252  23.524   2.351  0.00  0.00    -0.336 N 
HETATM   12  N   UNK N   1      40.930  21.554   2.109  0.00  0.00    -0.332 N 
HETATM   13  H   UNK N   1      42.389  24.490   2.215  0.00  0.00     0.168 HD
ENDROOT
BRANCH   5  14
HETATM   14  N   UNK N   1      41.728  19.418   2.957  0.00  0.00    -0.383 N 
HETATM   15  H   UNK N   1      41.591  18.815   2.191  0.00  0.00     0.157 HD
HETATM   16  H   UNK N   1      41.750  19.053   3.872  0.00  0.00     0.157 HD
ENDBRANCH   5  14
TORSDOF 1
ENDMDL
MODEL 8
REMARK VINA RESULT:      -4.3     14.739     15.805
REMARK  1 active torsions:
REMARK  status: ('A' for Active; 'I' for Inactive)
REMARK    1  A    between atoms: N_7  and  C_5 
ROOT
HETATM    1  C   UNK N   1      34.856  13.803  11.860  0.00  0.00     0.158 C 
HETATM    2  C   UNK N   1      33.443  17.619   7.703  0.00  0.00     0.182 A 
HETATM    3  C   UNK N   1      35.487  16.087  11.296  0.00  0.00     0.185 A 
HETATM    4  C   UNK N   1      33.836  16.098   9.139  0.00  0.00     0.122 A 
HETATM    5  C   UNK N   1      33.900  14.959   9.913  0.00  0.00     0.132 A 
HETATM    6  C   UNK N   1      34.574  17.176   9.445  0.00  0.00     0.138 A 
HETATM    7  N   UNK N   1      33.109  16.344   8.040  0.00  0.00    -0.346 N 
ATOM      8  HN  UNK N   1      32.455  15.720   7.567  1.00  0.00     0.167 HD
HETATM    9  N   UNK N   1      34.353  18.156   8.563  0.00  0.00    -0.337 N 
ATOM     10  HN  UNK N   1      34.768  19.086   8.539  1.00  0.00     0.168 HD
HETATM   11  N   UNK N   1      35.407  17.207  10.513  0.00  0.00    -0.336 N 
HETATM   12  N   UNK N   1      34.740  14.969  11.002  0.00  0.00    -0.332 N 
HETATM   13  H   UNK N   1      35.939  18.010  10.719  0.00  0.00     0.168 HD
ENDROOT
BRANCH   5  14
HETATM   14  N   UNK N   1      33.124  13.825   9.590  0.00  0.00    -0.383 N 
HETATM   15  H   UNK N   1      33.440  12.925   9.835  0.00  0.00     0.157 HD
HETATM   16  H   UNK N   1      32.266  13.933   9.118  0.00  0.00     0.157 HD
ENDBRANCH   5  14
TORSDOF 1
ENDMDL
MODEL 9
REMARK VINA RESULT:      -4.2     17.394     18.598
REMARK  1 active torsions:
REMARK  status: ('A' for Active; 'I' for Inactive)
REMARK    1  A    between atoms: N_7  and  C_5 
ROOT
HETATM    1  C   UNK N   1      37.188  10.963  11.617  0.00  0.00     0.158 C 
HETATM    2  C   UNK N   1      35.537  16.489  10.860  0.00  0.00     0.182 A 
HETATM    3  C   UNK N   1      35.076  12.177  11.647  0.00  0.00     0.185 A 
HETATM    4  C   UNK N   1      36.324  14.527  11.106  0.00  0.00     0.122 A 
HETATM    5  C   UNK N   1      37.089  13.385  11.215  0.00  0.00     0.132 A 
HETATM    6  C   UNK N   1      34.993  14.477  11.264  0.00  0.00     0.138 A 
HETATM    7  N   UNK N   1      36.702  15.787  10.849  0.00  0.00    -0.346 N 
ATOM      8  HN  UNK N   1      37.645  16.139  10.684  1.00  0.00     0.167 HD
HETATM    9  N   UNK N   1      34.461  15.694  11.116  0.00  0.00    -0.337 N 
ATOM     10  HN  UNK N   1      33.480  15.965  11.180  1.00  0.00     0.168 HD
HETATM   11  N   UNK N   1      34.337  13.322  11.534  0.00  0.00    -0.336 N 
HETATM   12  N   UNK N   1      36.443  12.204  11.489  0.00  0.00    -0.332 N 
HETATM   13  H   UNK N   1      33.358  13.309  11.646  0.00  0.00     0.168 HD
ENDROOT
BRANCH   5  14
HETATM   14  N   UNK N   1      38.490  13.440  11.049  0.00  0.00    -0.383 N 
HETATM   15  H   UNK N   1      38.928  12.880  10.368  0.00  0.00     0.157 HD
HETATM   16  H   UNK N   1      39.031  14.039  11.614  0.00  0.00     0.157 HD
ENDBRANCH   5  14
TORSDOF 1
ENDMDL
