REMARK  1 active torsions:
REMARK  status: ('A' for Active; 'I' for Inactive)
REMARK    1  A    between atoms: O_1  and  C_2 
ROOT
HETATM    1  C   UNK N   1       2.097   1.621   0.009  0.00  0.00     0.103 A 
HETATM    2  C   UNK N   1       2.210   0.226   0.012  0.00  0.00     0.064 A 
HETATM    3 Br   UNK N   1       3.966  -0.559   0.032  0.00  0.00    -0.047 Br
HETATM    4  C   UNK N   1       1.050  -0.574   0.005  0.00  0.00     0.050 A 
HETATM    5 Br   UNK N   1       1.198  -2.495   0.002  0.00  0.00    -0.048 Br
HETATM    6  C   UNK N   1      -0.221   0.037  -0.001  0.00  0.00     0.048 A 
HETATM    7 Br   UNK N   1      -1.816  -1.044  -0.002  0.00  0.00    -0.048 Br
HETATM    8  C   UNK N   1      -0.326   1.442  -0.002  0.00  0.00     0.050 A 
HETATM    9 Br   UNK N   1      -2.056   2.288  -0.005  0.00  0.00    -0.048 Br
HETATM   10  C   UNK N   1       0.838   2.231   0.001  0.00  0.00     0.064 A 
HETATM   11 Br   UNK N   1       0.730   4.150  -0.001  0.00  0.00    -0.047 Br
ENDROOT
BRANCH   1  12
HETATM   12  O   UNK N   1       3.207   2.383   0.014  0.00  0.00    -0.358 OA
HETATM   13  H   UNK N   1       4.052   1.979   0.018  0.00  0.00     0.217 HD
ENDBRANCH   1  12
TORSDOF 1
