MODEL 1
REMARK VINA RESULT:      -4.8      0.000      0.000
REMARK  3 active torsions:
REMARK  status: ('A' for Active; 'I' for Inactive)
REMARK    1  A    between atoms: O_1  and  C_2 
REMARK    2  A    between atoms: C_2  and  C_4 
REMARK    3  A    between atoms: C_10  and  O_11 
ROOT
HETATM    1  C   UNK N   1      20.489  19.048   1.916  0.00  0.00     0.165 A 
HETATM    2  N   UNK N   1      20.339  18.990   3.272  0.00  0.00    -0.303 N 
ATOM      3  HN  UNK N   1      20.487  19.723   3.966  1.00  0.00     0.176 HD
HETATM    4  S   UNK N   1      19.860  17.445   3.498  0.00  0.00     0.069 SA
HETATM    5  N   UNK N   1      19.808  16.776   2.010  0.00  0.00    -0.291 N 
ATOM      6  HN  UNK N   1      19.553  15.825   1.740  1.00  0.00     0.177 HD
HETATM    7  C   UNK N   1      20.193  17.817   1.220  0.00  0.00     0.182 A 
ENDROOT
BRANCH   1   8
HETATM    8  C   UNK N   1      20.919  20.281   1.239  0.00  0.00     0.198 C 
HETATM    9  O   UNK N   1      21.564  21.118   1.846  0.00  0.00    -0.645 OA
BRANCH   8  10
HETATM   10  O   UNK N   1      20.604  20.493  -0.054  0.00  0.00    -0.771 OA
HETATM   11  H   UNK N   1      21.162  20.167  -0.732  0.00  0.00     0.167 HD
ENDBRANCH   8  10
ENDBRANCH   1   8
BRANCH   7  12
HETATM   12  O   UNK N   1      20.286  17.690  -0.115  0.00  0.00    -0.344 OA
HETATM   13  H   UNK N   1      19.863  16.974  -0.548  0.00  0.00     0.219 HD
ENDBRANCH   7  12
TORSDOF 3
ENDMDL
MODEL 2
REMARK VINA RESULT:      -4.6     15.332     15.851
REMARK  3 active torsions:
REMARK  status: ('A' for Active; 'I' for Inactive)
REMARK    1  A    between atoms: O_1  and  C_2 
REMARK    2  A    between atoms: C_2  and  C_4 
REMARK    3  A    between atoms: C_10  and  O_11 
ROOT
HETATM    1  C   UNK N   1      34.073  16.995   8.697  0.00  0.00     0.165 A 
HETATM    2  N   UNK N   1      33.053  16.171   8.315  0.00  0.00    -0.303 N 
ATOM      3  HN  UNK N   1      32.477  16.211   7.475  1.00  0.00     0.176 HD
HETATM    4  S   UNK N   1      32.993  15.105   9.552  0.00  0.00     0.069 SA
HETATM    5  N   UNK N   1      34.166  15.567  10.590  0.00  0.00    -0.291 N 
ATOM      6  HN  UNK N   1      34.437  15.149  11.481  1.00  0.00     0.177 HD
HETATM    7  C   UNK N   1      34.687  16.655   9.959  0.00  0.00     0.182 A 
ENDROOT
BRANCH   1   8
HETATM    8  C   UNK N   1      34.496  18.134   7.868  0.00  0.00     0.198 C 
HETATM    9  O   UNK N   1      35.007  19.112   8.387  0.00  0.00    -0.645 OA
BRANCH   8  10
HETATM   10  O   UNK N   1      34.323  18.105   6.532  0.00  0.00    -0.771 OA
HETATM   11  H   UNK N   1      35.065  18.142   5.961  0.00  0.00     0.167 HD
ENDBRANCH   8  10
ENDBRANCH   1   8
BRANCH   7  12
HETATM   12  O   UNK N   1      35.704  17.355  10.491  0.00  0.00    -0.344 OA
HETATM   13  H   UNK N   1      35.541  18.179  10.907  0.00  0.00     0.219 HD
ENDBRANCH   7  12
TORSDOF 3
ENDMDL
MODEL 3
REMARK VINA RESULT:      -4.6      1.528      2.387
REMARK  3 active torsions:
REMARK  status: ('A' for Active; 'I' for Inactive)
REMARK    1  A    between atoms: O_1  and  C_2 
REMARK    2  A    between atoms: C_2  and  C_4 
REMARK    3  A    between atoms: C_10  and  O_11 
ROOT
HETATM    1  C   UNK N   1      20.553  19.378   1.802  0.00  0.00     0.165 A 
HETATM    2  N   UNK N   1      20.309  18.272   1.037  0.00  0.00    -0.303 N 
ATOM      3  HN  UNK N   1      20.317  18.181   0.022  1.00  0.00     0.176 HD
HETATM    4  S   UNK N   1      20.001  17.135   2.168  0.00  0.00     0.069 SA
HETATM    5  N   UNK N   1      20.141  17.893   3.608  0.00  0.00    -0.291 N 
ATOM      6  HN  UNK N   1      20.023  17.515   4.548  1.00  0.00     0.177 HD
HETATM    7  C   UNK N   1      20.459  19.162   3.227  0.00  0.00     0.182 A 
ENDROOT
BRANCH   1   8
HETATM    8  C   UNK N   1      20.884  20.676   1.197  0.00  0.00     0.198 C 
HETATM    9  O   UNK N   1      21.077  20.760  -0.004  0.00  0.00    -0.645 OA
BRANCH   8  10
HETATM   10  O   UNK N   1      20.977  21.781   1.964  0.00  0.00    -0.771 OA
HETATM   11  H   UNK N   1      21.208  22.602   1.577  0.00  0.00     0.167 HD
ENDBRANCH   8  10
ENDBRANCH   1   8
BRANCH   7  12
HETATM   12  O   UNK N   1      20.667  20.135   4.131  0.00  0.00    -0.344 OA
HETATM   13  H   UNK N   1      20.105  20.211   4.877  0.00  0.00     0.219 HD
ENDBRANCH   7  12
TORSDOF 3
ENDMDL
MODEL 4
REMARK VINA RESULT:      -4.5     14.198     14.711
REMARK  3 active torsions:
REMARK  status: ('A' for Active; 'I' for Inactive)
REMARK    1  A    between atoms: O_1  and  C_2 
REMARK    2  A    between atoms: C_2  and  C_4 
REMARK    3  A    between atoms: C_10  and  O_11 
ROOT
HETATM    1  C   UNK N   1      33.454  17.697   8.231  0.00  0.00     0.165 A 
HETATM    2  N   UNK N   1      32.392  17.346   9.015  0.00  0.00    -0.303 N 
ATOM      3  HN  UNK N   1      32.319  17.345  10.033  1.00  0.00     0.176 HD
HETATM    4  S   UNK N   1      31.269  16.929   7.905  0.00  0.00     0.069 SA
HETATM    5  N   UNK N   1      31.984  17.142   6.452  0.00  0.00    -0.291 N 
ATOM      6  HN  UNK N   1      31.602  16.987   5.519  1.00  0.00     0.177 HD
HETATM    7  C   UNK N   1      33.222  17.582   6.810  0.00  0.00     0.182 A 
ENDROOT
BRANCH   1   8
HETATM    8  C   UNK N   1      34.725  18.154   8.813  0.00  0.00     0.198 C 
HETATM    9  O   UNK N   1      35.265  19.161   8.388  0.00  0.00    -0.645 OA
BRANCH   8  10
HETATM   10  O   UNK N   1      35.301  17.464   9.817  0.00  0.00    -0.771 OA
HETATM   11  H   UNK N   1      35.841  16.722   9.627  0.00  0.00     0.167 HD
ENDBRANCH   8  10
ENDBRANCH   1   8
BRANCH   7  12
HETATM   12  O   UNK N   1      34.153  17.884   5.889  0.00  0.00    -0.344 OA
HETATM   13  H   UNK N   1      34.180  17.415   5.078  0.00  0.00     0.219 HD
ENDBRANCH   7  12
TORSDOF 3
ENDMDL
MODEL 5
REMARK VINA RESULT:      -4.4     11.619     12.007
REMARK  3 active torsions:
REMARK  status: ('A' for Active; 'I' for Inactive)
REMARK    1  A    between atoms: O_1  and  C_2 
REMARK    2  A    between atoms: C_2  and  C_4 
REMARK    3  A    between atoms: C_10  and  O_11 
ROOT
HETATM    1  C   UNK N   1      22.415  12.539  10.725  0.00  0.00     0.165 A 
HETATM    2  N   UNK N   1      23.005  13.051   9.605  0.00  0.00    -0.303 N 
ATOM      3  HN  UNK N   1      22.566  13.455   8.777  1.00  0.00     0.176 HD
HETATM    4  S   UNK N   1      24.592  12.853   9.933  0.00  0.00     0.069 SA
HETATM    5  N   UNK N   1      24.655  12.154  11.407  0.00  0.00    -0.291 N 
ATOM      6  HN  UNK N   1      25.472  11.874  11.952  1.00  0.00     0.177 HD
HETATM    7  C   UNK N   1      23.335  12.042  11.722  0.00  0.00     0.182 A 
ENDROOT
BRANCH   1   8
HETATM    8  C   UNK N   1      20.953  12.505  10.881  0.00  0.00     0.198 C 
HETATM    9  O   UNK N   1      20.240  13.104  10.094  0.00  0.00    -0.645 OA
BRANCH   8  10
HETATM   10  O   UNK N   1      20.392  11.814  11.893  0.00  0.00    -0.771 OA
HETATM   11  H   UNK N   1      20.927  11.472  12.581  0.00  0.00     0.167 HD
ENDBRANCH   8  10
ENDBRANCH   1   8
BRANCH   7  12
HETATM   12  O   UNK N   1      22.934  11.503  12.886  0.00  0.00    -0.344 OA
HETATM   13  H   UNK N   1      22.390  10.740  12.887  0.00  0.00     0.219 HD
ENDBRANCH   7  12
TORSDOF 3
ENDMDL
MODEL 6
REMARK VINA RESULT:      -4.4     15.427     15.873
REMARK  3 active torsions:
REMARK  status: ('A' for Active; 'I' for Inactive)
REMARK    1  A    between atoms: O_1  and  C_2 
REMARK    2  A    between atoms: C_2  and  C_4 
REMARK    3  A    between atoms: C_10  and  O_11 
ROOT
HETATM    1  C   UNK N   1      34.555  17.181   9.186  0.00  0.00     0.165 A 
HETATM    2  N   UNK N   1      35.369  17.022  10.271  0.00  0.00    -0.303 N 
ATOM      3  HN  UNK N   1      36.172  17.582  10.558  1.00  0.00     0.176 HD
HETATM    4  S   UNK N   1      34.727  15.704  10.991  0.00  0.00     0.069 SA
HETATM    5  N   UNK N   1      33.462  15.263  10.058  0.00  0.00    -0.291 N 
ATOM      6  HN  UNK N   1      32.812  14.485  10.180  1.00  0.00     0.177 HD
HETATM    7  C   UNK N   1      33.499  16.203   9.073  0.00  0.00     0.182 A 
ENDROOT
BRANCH   1   8
HETATM    8  C   UNK N   1      34.759  18.273   8.222  0.00  0.00     0.198 C 
HETATM    9  O   UNK N   1      34.376  18.151   7.071  0.00  0.00    -0.645 OA
BRANCH   8  10
HETATM   10  O   UNK N   1      35.368  19.413   8.603  0.00  0.00    -0.771 OA
HETATM   11  H   UNK N   1      35.284  19.718   9.485  0.00  0.00     0.167 HD
ENDBRANCH   8  10
ENDBRANCH   1   8
BRANCH   7  12
HETATM   12  O   UNK N   1      32.604  16.204   8.070  0.00  0.00    -0.344 OA
HETATM   13  H   UNK N   1      32.586  16.913   7.457  0.00  0.00     0.219 HD
ENDBRANCH   7  12
TORSDOF 3
ENDMDL
MODEL 7
REMARK VINA RESULT:      -4.2      1.435      3.000
REMARK  3 active torsions:
REMARK  status: ('A' for Active; 'I' for Inactive)
REMARK    1  A    between atoms: O_1  and  C_2 
REMARK    2  A    between atoms: C_2  and  C_4 
REMARK    3  A    between atoms: C_10  and  O_11 
ROOT
HETATM    1  C   UNK N   1      20.429  18.539   1.874  0.00  0.00     0.165 A 
HETATM    2  N   UNK N   1      20.438  18.464   3.238  0.00  0.00    -0.303 N 
ATOM      3  HN  UNK N   1      20.284  17.654   3.837  1.00  0.00     0.176 HD
HETATM    4  S   UNK N   1      20.761  20.008   3.663  0.00  0.00     0.069 SA
HETATM    5  N   UNK N   1      20.904  20.832   2.260  0.00  0.00    -0.291 N 
ATOM      6  HN  UNK N   1      21.103  21.822   2.113  1.00  0.00     0.177 HD
HETATM    7  C   UNK N   1      20.687  19.854   1.337  0.00  0.00     0.182 A 
ENDROOT
BRANCH   1   8
HETATM    8  C   UNK N   1      20.172  17.356   1.039  0.00  0.00     0.198 C 
HETATM    9  O   UNK N   1      19.895  16.289   1.558  0.00  0.00    -0.645 OA
BRANCH   8  10
HETATM   10  O   UNK N   1      20.241  17.443  -0.304  0.00  0.00    -0.771 OA
HETATM   11  H   UNK N   1      19.952  18.221  -0.740  0.00  0.00     0.167 HD
ENDBRANCH   8  10
ENDBRANCH   1   8
BRANCH   7  12
HETATM   12  O   UNK N   1      20.717  20.114   0.018  0.00  0.00    -0.344 OA
HETATM   13  H   UNK N   1      21.469  20.524  -0.363  0.00  0.00     0.219 HD
ENDBRANCH   7  12
TORSDOF 3
ENDMDL
MODEL 8
REMARK VINA RESULT:      -4.2     15.506     16.110
REMARK  3 active torsions:
REMARK  status: ('A' for Active; 'I' for Inactive)
REMARK    1  A    between atoms: O_1  and  C_2 
REMARK    2  A    between atoms: C_2  and  C_4 
REMARK    3  A    between atoms: C_10  and  O_11 
ROOT
HETATM    1  C   UNK N   1      34.292  16.871   8.954  0.00  0.00     0.165 A 
HETATM    2  N   UNK N   1      33.470  15.903   8.453  0.00  0.00    -0.303 N 
ATOM      3  HN  UNK N   1      33.218  15.002   8.859  1.00  0.00     0.176 HD
HETATM    4  S   UNK N   1      32.993  16.559   7.035  0.00  0.00     0.069 SA
HETATM    5  N   UNK N   1      33.734  18.012   6.950  0.00  0.00    -0.291 N 
ATOM      6  HN  UNK N   1      33.684  18.717   6.213  1.00  0.00     0.177 HD
HETATM    7  C   UNK N   1      34.435  18.039   8.117  0.00  0.00     0.182 A 
ENDROOT
BRANCH   1   8
HETATM    8  C   UNK N   1      34.969  16.713  10.250  0.00  0.00     0.198 C 
HETATM    9  O   UNK N   1      35.957  17.379  10.510  0.00  0.00    -0.645 OA
BRANCH   8  10
HETATM   10  O   UNK N   1      34.504  15.834  11.159  0.00  0.00    -0.771 OA
HETATM   11  H   UNK N   1      34.940  15.734  11.982  0.00  0.00     0.167 HD
ENDBRANCH   8  10
ENDBRANCH   1   8
BRANCH   7  12
HETATM   12  O   UNK N   1      35.204  19.091   8.450  0.00  0.00    -0.344 OA
HETATM   13  H   UNK N   1      36.123  18.974   8.591  0.00  0.00     0.219 HD
ENDBRANCH   7  12
TORSDOF 3
ENDMDL
MODEL 9
REMARK VINA RESULT:      -4.2     10.545     10.837
REMARK  3 active torsions:
REMARK  status: ('A' for Active; 'I' for Inactive)
REMARK    1  A    between atoms: O_1  and  C_2 
REMARK    2  A    between atoms: C_2  and  C_4 
REMARK    3  A    between atoms: C_10  and  O_11 
ROOT
HETATM    1  C   UNK N   1      21.826  13.220  10.168  0.00  0.00     0.165 A 
HETATM    2  N   UNK N   1      23.074  13.356   9.630  0.00  0.00    -0.303 N 
ATOM      3  HN  UNK N   1      23.400  14.019   8.926  1.00  0.00     0.176 HD
HETATM    4  S   UNK N   1      23.910  12.185  10.403  0.00  0.00     0.069 SA
HETATM    5  N   UNK N   1      22.839  11.466  11.405  0.00  0.00    -0.291 N 
ATOM      6  HN  UNK N   1      22.985  10.690  12.052  1.00  0.00     0.177 HD
HETATM    7  C   UNK N   1      21.701  12.170  11.152  0.00  0.00     0.182 A 
ENDROOT
BRANCH   1   8
HETATM    8  C   UNK N   1      20.711  14.088   9.761  0.00  0.00     0.198 C 
HETATM    9  O   UNK N   1      19.559  13.722   9.925  0.00  0.00    -0.645 OA
BRANCH   8  10
HETATM   10  O   UNK N   1      20.953  15.291   9.204  0.00  0.00    -0.771 OA
HETATM   11  H   UNK N   1      20.284  15.723   8.710  0.00  0.00     0.167 HD
ENDBRANCH   8  10
ENDBRANCH   1   8
BRANCH   7  12
HETATM   12  O   UNK N   1      20.549  11.892  11.786  0.00  0.00    -0.344 OA
HETATM   13  H   UNK N   1      20.445  12.114  12.690  0.00  0.00     0.219 HD
ENDBRANCH   7  12
TORSDOF 3
ENDMDL
