MODEL 1
REMARK VINA RESULT:      -6.7      0.000      0.000
REMARK  0 active torsions:
REMARK  status: ('A' for Active; 'I' for Inactive)
REMARK       I    between atoms: N_1  and  C_2 
ROOT
HETATM    1  N   UNK N   1      35.482  13.674  13.075  0.00  0.00    -0.234 N 
HETATM    2  C   UNK N   1      35.119  14.469  11.972  0.00  0.00     0.680 A 
HETATM    3  N   UNK N   1      34.157  14.040  11.124  0.00  0.00    -0.175 N 
ATOM      4  HN  UNK N   1      33.706  13.142  11.298  1.00  0.00     0.186 HD
HETATM    5  C   UNK N   1      33.778  14.774  10.051  0.00  0.00     0.150 A 
HETATM    6  C   UNK N   1      34.388  16.022   9.789  0.00  0.00     0.153 A 
HETATM    7  N   UNK N   1      33.942  16.755   8.633  0.00  0.00    -0.277 N 
HETATM    8  C   UNK N   1      32.922  16.245   7.779  0.00  0.00     0.138 A 
HETATM    9  C   UNK N   1      32.246  14.913   8.028  0.00  0.00     0.149 A 
HETATM   10  N   UNK N   1      32.759  14.254   9.208  0.00  0.00    -0.372 N 
HETATM   11  C   UNK N   1      32.708  17.274   6.669  0.00  0.00     0.208 A 
HETATM   12  O   UNK N   1      33.626  18.262   7.004  0.00  0.00    -0.302 OA
HETATM   13  C   UNK N   1      34.307  17.939   8.117  0.00  0.00     0.368 A 
HETATM   14  O   UNK N   1      35.163  18.671   8.584  0.00  0.00    -0.238 OA
HETATM   15  C   UNK N   1      35.397  16.452  10.695  0.00  0.00     0.290 A 
HETATM   16  O   UNK N   1      35.980  17.507  10.556  0.00  0.00    -0.265 OA
HETATM   17  N   UNK N   1      35.731  15.658  11.760  0.00  0.00    -0.154 N 
HETATM   18  H   UNK N   1      36.182  13.983  13.695  0.00  0.00     0.174 HD
HETATM   19  H   UNK N   1      35.036  12.810  13.227  0.00  0.00     0.174 HD
HETATM   20  H   UNK N   1      32.374  13.379   9.444  0.00  0.00     0.161 HD
HETATM   21  H   UNK N   1      36.429  15.958  12.385  0.00  0.00     0.187 HD
ENDROOT
TORSDOF 0
ENDMDL
MODEL 2
REMARK VINA RESULT:      -6.1     10.943     12.967
REMARK  0 active torsions:
REMARK  status: ('A' for Active; 'I' for Inactive)
REMARK       I    between atoms: N_1  and  C_2 
ROOT
HETATM    1  N   UNK N   1      27.607  19.244   5.172  0.00  0.00    -0.234 N 
HETATM    2  C   UNK N   1      26.279  19.315   4.712  0.00  0.00     0.680 A 
HETATM    3  N   UNK N   1      25.319  18.581   5.318  0.00  0.00    -0.175 N 
ATOM      4  HN  UNK N   1      25.573  17.983   6.104  1.00  0.00     0.186 HD
HETATM    5  C   UNK N   1      24.029  18.620   4.907  0.00  0.00     0.150 A 
HETATM    6  C   UNK N   1      23.652  19.440   3.820  0.00  0.00     0.153 A 
HETATM    7  N   UNK N   1      22.267  19.439   3.429  0.00  0.00    -0.277 N 
HETATM    8  C   UNK N   1      21.305  18.641   4.112  0.00  0.00     0.138 A 
HETATM    9  C   UNK N   1      21.671  17.749   5.280  0.00  0.00     0.149 A 
HETATM   10  N   UNK N   1      23.080  17.818   5.596  0.00  0.00    -0.372 N 
HETATM   11  C   UNK N   1      19.955  18.886   3.437  0.00  0.00     0.208 A 
HETATM   12  O   UNK N   1      20.286  19.797   2.442  0.00  0.00    -0.302 OA
HETATM   13  C   UNK N   1      21.599  20.090   2.464  0.00  0.00     0.368 A 
HETATM   14  O   UNK N   1      22.099  20.870   1.672  0.00  0.00    -0.238 OA
HETATM   15  C   UNK N   1      24.680  20.204   3.198  0.00  0.00     0.290 A 
HETATM   16  O   UNK N   1      24.457  20.938   2.258  0.00  0.00    -0.265 OA
HETATM   17  N   UNK N   1      25.964  20.115   3.666  0.00  0.00    -0.154 N 
HETATM   18  H   UNK N   1      28.309  19.777   4.733  0.00  0.00     0.174 HD
HETATM   19  H   UNK N   1      27.834  18.661   5.932  0.00  0.00     0.174 HD
HETATM   20  H   UNK N   1      23.406  17.268   6.345  0.00  0.00     0.161 HD
HETATM   21  H   UNK N   1      26.672  20.645   3.234  0.00  0.00     0.187 HD
ENDROOT
TORSDOF 0
ENDMDL
MODEL 3
REMARK VINA RESULT:      -6.0     10.681     12.249
REMARK  0 active torsions:
REMARK  status: ('A' for Active; 'I' for Inactive)
REMARK       I    between atoms: N_1  and  C_2 
ROOT
HETATM    1  N   UNK N   1      22.846  11.468  12.972  0.00  0.00    -0.234 N 
HETATM    2  C   UNK N   1      22.706  12.096  11.720  0.00  0.00     0.680 A 
HETATM    3  N   UNK N   1      23.806  12.410  11.001  0.00  0.00    -0.175 N 
ATOM      4  HN  UNK N   1      24.727  12.186  11.378  1.00  0.00     0.186 HD
HETATM    5  C   UNK N   1      23.716  13.014   9.792  0.00  0.00     0.150 A 
HETATM    6  C   UNK N   1      22.451  13.334   9.248  0.00  0.00     0.153 A 
HETATM    7  N   UNK N   1      22.420  13.975   7.959  0.00  0.00    -0.277 N 
HETATM    8  C   UNK N   1      23.619  14.279   7.253  0.00  0.00     0.138 A 
HETATM    9  C   UNK N   1      24.991  13.951   7.803  0.00  0.00     0.149 A 
HETATM   10  N   UNK N   1      24.920  13.311   9.098  0.00  0.00    -0.372 N 
HETATM   11  C   UNK N   1      23.212  14.947   5.939  0.00  0.00     0.208 A 
HETATM   12  O   UNK N   1      21.825  14.956   6.033  0.00  0.00    -0.302 OA
HETATM   13  C   UNK N   1      21.410  14.400   7.185  0.00  0.00     0.368 A 
HETATM   14  O   UNK N   1      20.227  14.307   7.466  0.00  0.00    -0.238 OA
HETATM   15  C   UNK N   1      21.308  12.994  10.023  0.00  0.00     0.290 A 
HETATM   16  O   UNK N   1      20.180  13.228   9.643  0.00  0.00    -0.265 OA
HETATM   17  N   UNK N   1      21.474  12.384  11.238  0.00  0.00    -0.154 N 
HETATM   18  H   UNK N   1      22.047  11.238  13.500  0.00  0.00     0.174 HD
HETATM   19  H   UNK N   1      23.742  11.260  13.320  0.00  0.00     0.174 HD
HETATM   20  H   UNK N   1      25.769  13.062   9.531  0.00  0.00     0.161 HD
HETATM   21  H   UNK N   1      20.681  12.150  11.772  0.00  0.00     0.187 HD
ENDROOT
TORSDOF 0
ENDMDL
MODEL 4
REMARK VINA RESULT:      -6.0      2.842      4.246
REMARK  0 active torsions:
REMARK  status: ('A' for Active; 'I' for Inactive)
REMARK       I    between atoms: N_1  and  C_2 
ROOT
HETATM    1  N   UNK N   1      34.950  17.200  10.165  0.00  0.00    -0.234 N 
HETATM    2  C   UNK N   1      34.076  17.230   9.062  0.00  0.00     0.680 A 
HETATM    3  N   UNK N   1      32.744  17.109   9.259  0.00  0.00    -0.175 N 
ATOM      4  HN  UNK N   1      32.391  16.997  10.210  1.00  0.00     0.186 HD
HETATM    5  C   UNK N   1      31.868  17.132   8.227  0.00  0.00     0.150 A 
HETATM    6  C   UNK N   1      32.333  17.286   6.901  0.00  0.00     0.153 A 
HETATM    7  N   UNK N   1      31.354  17.304   5.846  0.00  0.00    -0.277 N 
HETATM    8  C   UNK N   1      29.963  17.171   6.123  0.00  0.00     0.138 A 
HETATM    9  C   UNK N   1      29.428  17.004   7.529  0.00  0.00     0.149 A 
HETATM   10  N   UNK N   1      30.484  16.998   8.517  0.00  0.00    -0.372 N 
HETATM   11  C   UNK N   1      29.229  17.233   4.783  0.00  0.00     0.208 A 
HETATM   12  O   UNK N   1      30.275  17.394   3.883  0.00  0.00    -0.302 OA
HETATM   13  C   UNK N   1      31.462  17.431   4.514  0.00  0.00     0.368 A 
HETATM   14  O   UNK N   1      32.511  17.566   3.908  0.00  0.00    -0.238 OA
HETATM   15  C   UNK N   1      33.739  17.412   6.719  0.00  0.00     0.290 A 
HETATM   16  O   UNK N   1      34.236  17.549   5.620  0.00  0.00    -0.265 OA
HETATM   17  N   UNK N   1      34.567  17.380   7.809  0.00  0.00    -0.154 N 
HETATM   18  H   UNK N   1      35.921  17.288  10.026  0.00  0.00     0.174 HD
HETATM   19  H   UNK N   1      34.591  17.091  11.075  0.00  0.00     0.174 HD
HETATM   20  H   UNK N   1      30.224  16.894   9.461  0.00  0.00     0.161 HD
HETATM   21  H   UNK N   1      35.538  17.467   7.680  0.00  0.00     0.187 HD
ENDROOT
TORSDOF 0
ENDMDL
MODEL 5
REMARK VINA RESULT:      -5.9     12.404     14.592
REMARK  0 active torsions:
REMARK  status: ('A' for Active; 'I' for Inactive)
REMARK       I    between atoms: N_1  and  C_2 
ROOT
HETATM    1  N   UNK N   1      18.943  14.910   4.270  0.00  0.00    -0.234 N 
HETATM    2  C   UNK N   1      19.745  16.037   4.011  0.00  0.00     0.680 A 
HETATM    3  N   UNK N   1      21.059  16.011   4.326  0.00  0.00    -0.175 N 
ATOM      4  HN  UNK N   1      21.452  15.170   4.749  1.00  0.00     0.186 HD
HETATM    5  C   UNK N   1      21.867  17.073   4.095  0.00  0.00     0.150 A 
HETATM    6  C   UNK N   1      21.346  18.250   3.510  0.00  0.00     0.153 A 
HETATM    7  N   UNK N   1      22.253  19.346   3.289  0.00  0.00    -0.277 N 
HETATM    8  C   UNK N   1      23.629  19.252   3.645  0.00  0.00     0.138 A 
HETATM    9  C   UNK N   1      24.223  18.009   4.272  0.00  0.00     0.149 A 
HETATM   10  N   UNK N   1      23.237  16.967   4.454  0.00  0.00    -0.372 N 
HETATM   11  C   UNK N   1      24.283  20.583   3.272  0.00  0.00     0.208 A 
HETATM   12  O   UNK N   1      23.213  21.297   2.743  0.00  0.00    -0.302 OA
HETATM   13  C   UNK N   1      22.082  20.571   2.767  0.00  0.00     0.368 A 
HETATM   14  O   UNK N   1      21.025  21.010   2.349  0.00  0.00    -0.238 OA
HETATM   15  C   UNK N   1      19.960  18.254   3.188  0.00  0.00     0.290 A 
HETATM   16  O   UNK N   1      19.419  19.216   2.683  0.00  0.00    -0.265 OA
HETATM   17  N   UNK N   1      19.203  17.143   3.450  0.00  0.00    -0.154 N 
HETATM   18  H   UNK N   1      17.985  14.925   4.042  0.00  0.00     0.174 HD
HETATM   19  H   UNK N   1      19.339  14.107   4.678  0.00  0.00     0.174 HD
HETATM   20  H   UNK N   1      23.538  16.121   4.858  0.00  0.00     0.161 HD
HETATM   21  H   UNK N   1      18.244  17.149   3.225  0.00  0.00     0.187 HD
ENDROOT
TORSDOF 0
ENDMDL
MODEL 6
REMARK VINA RESULT:      -5.9     10.851     12.754
REMARK  0 active torsions:
REMARK  status: ('A' for Active; 'I' for Inactive)
REMARK       I    between atoms: N_1  and  C_2 
ROOT
HETATM    1  N   UNK N   1      20.972  15.860   6.949  0.00  0.00    -0.234 N 
HETATM    2  C   UNK N   1      21.653  16.783   6.133  0.00  0.00     0.680 A 
HETATM    3  N   UNK N   1      22.999  16.720   6.030  0.00  0.00    -0.175 N 
ATOM      4  HN  UNK N   1      23.504  16.000   6.548  1.00  0.00     0.186 HD
HETATM    5  C   UNK N   1      23.694  17.588   5.257  0.00  0.00     0.150 A 
HETATM    6  C   UNK N   1      23.017  18.593   4.530  0.00  0.00     0.153 A 
HETATM    7  N   UNK N   1      23.810  19.486   3.725  0.00  0.00    -0.277 N 
HETATM    8  C   UNK N   1      25.227  19.364   3.661  0.00  0.00     0.138 A 
HETATM    9  C   UNK N   1      25.987  18.301   4.425  0.00  0.00     0.149 A 
HETATM   10  N   UNK N   1      25.107  17.455   5.202  0.00  0.00    -0.372 N 
HETATM   11  C   UNK N   1      25.732  20.463   2.725  0.00  0.00     0.208 A 
HETATM   12  O   UNK N   1      24.552  21.096   2.353  0.00  0.00    -0.302 OA
HETATM   13  C   UNK N   1      23.484  20.521   2.935  0.00  0.00     0.368 A 
HETATM   14  O   UNK N   1      22.350  20.923   2.742  0.00  0.00    -0.238 OA
HETATM   15  C   UNK N   1      21.600  18.639   4.654  0.00  0.00     0.290 A 
HETATM   16  O   UNK N   1      20.930  19.465   4.070  0.00  0.00    -0.265 OA
HETATM   17  N   UNK N   1      20.963  17.729   5.455  0.00  0.00    -0.154 N 
HETATM   18  H   UNK N   1      19.991  15.902   7.027  0.00  0.00     0.174 HD
HETATM   19  H   UNK N   1      21.475  15.172   7.441  0.00  0.00     0.174 HD
HETATM   20  H   UNK N   1      25.519  16.734   5.731  0.00  0.00     0.161 HD
HETATM   21  H   UNK N   1      19.983  17.764   5.539  0.00  0.00     0.187 HD
ENDROOT
TORSDOF 0
ENDMDL
MODEL 7
REMARK VINA RESULT:      -5.8     11.844     13.678
REMARK  0 active torsions:
REMARK  status: ('A' for Active; 'I' for Inactive)
REMARK       I    between atoms: N_1  and  C_2 
ROOT
HETATM    1  N   UNK N   1      23.118  15.317   6.771  0.00  0.00    -0.234 N 
HETATM    2  C   UNK N   1      22.822  16.363   5.875  0.00  0.00     0.680 A 
HETATM    3  N   UNK N   1      21.624  16.390   5.250  0.00  0.00    -0.175 N 
ATOM      4  HN  UNK N   1      20.948  15.650   5.438  1.00  0.00     0.186 HD
HETATM    5  C   UNK N   1      21.299  17.377   4.382  0.00  0.00     0.150 A 
HETATM    6  C   UNK N   1      22.218  18.415   4.105  0.00  0.00     0.153 A 
HETATM    7  N   UNK N   1      21.815  19.435   3.173  0.00  0.00    -0.277 N 
HETATM    8  C   UNK N   1      20.535  19.405   2.548  0.00  0.00     0.138 A 
HETATM    9  C   UNK N   1      19.524  18.310   2.820  0.00  0.00     0.149 A 
HETATM   10  N   UNK N   1      20.019  17.335   3.766  0.00  0.00    -0.372 N 
HETATM   11  C   UNK N   1      20.451  20.627   1.633  0.00  0.00     0.208 A 
HETATM   12  O   UNK N   1      21.689  21.226   1.831  0.00  0.00    -0.302 OA
HETATM   13  C   UNK N   1      22.436  20.529   2.705  0.00  0.00     0.368 A 
HETATM   14  O   UNK N   1      23.559  20.883   3.020  0.00  0.00    -0.238 OA
HETATM   15  C   UNK N   1      23.472  18.364   4.775  0.00  0.00     0.290 A 
HETATM   16  O   UNK N   1      24.328  19.207   4.604  0.00  0.00    -0.265 OA
HETATM   17  N   UNK N   1      23.734  17.336   5.641  0.00  0.00    -0.154 N 
HETATM   18  H   UNK N   1      23.990  15.294   7.228  0.00  0.00     0.174 HD
HETATM   19  H   UNK N   1      22.454  14.611   6.940  0.00  0.00     0.174 HD
HETATM   20  H   UNK N   1      19.425  16.586   4.000  0.00  0.00     0.161 HD
HETATM   21  H   UNK N   1      24.603  17.303   6.103  0.00  0.00     0.187 HD
ENDROOT
TORSDOF 0
ENDMDL
MODEL 8
REMARK VINA RESULT:      -5.7      1.820      4.529
REMARK  0 active torsions:
REMARK  status: ('A' for Active; 'I' for Inactive)
REMARK       I    between atoms: N_1  and  C_2 
ROOT
HETATM    1  N   UNK N   1      30.853  14.114   4.805  0.00  0.00    -0.234 N 
HETATM    2  C   UNK N   1      31.680  14.755   5.747  0.00  0.00     0.680 A 
HETATM    3  N   UNK N   1      31.927  14.161   6.935  0.00  0.00    -0.175 N 
ATOM      4  HN  UNK N   1      31.509  13.252   7.133  1.00  0.00     0.186 HD
HETATM    5  C   UNK N   1      32.717  14.743   7.870  0.00  0.00     0.150 A 
HETATM    6  C   UNK N   1      33.308  16.002   7.619  0.00  0.00     0.153 A 
HETATM    7  N   UNK N   1      34.137  16.569   8.651  0.00  0.00    -0.277 N 
HETATM    8  C   UNK N   1      34.357  15.889   9.883  0.00  0.00     0.138 A 
HETATM    9  C   UNK N   1      33.742  14.539  10.187  0.00  0.00     0.149 A 
HETATM   10  N   UNK N   1      32.928  14.053   9.094  0.00  0.00    -0.372 N 
HETATM   11  C   UNK N   1      35.274  16.773  10.728  0.00  0.00     0.208 A 
HETATM   12  O   UNK N   1      35.481  17.864   9.892  0.00  0.00    -0.302 OA
HETATM   13  C   UNK N   1      34.826  17.719   8.727  0.00  0.00     0.368 A 
HETATM   14  O   UNK N   1      34.874  18.564   7.850  0.00  0.00    -0.238 OA
HETATM   15  C   UNK N   1      33.032  16.608   6.362  0.00  0.00     0.290 A 
HETATM   16  O   UNK N   1      33.492  17.687   6.053  0.00  0.00    -0.265 OA
HETATM   17  N   UNK N   1      32.224  15.962   5.464  0.00  0.00    -0.154 N 
HETATM   18  H   UNK N   1      30.670  14.544   3.938  0.00  0.00     0.174 HD
HETATM   19  H   UNK N   1      30.458  13.237   5.013  0.00  0.00     0.174 HD
HETATM   20  H   UNK N   1      32.489  13.180   9.207  0.00  0.00     0.161 HD
HETATM   21  H   UNK N   1      32.036  16.384   4.595  0.00  0.00     0.187 HD
ENDROOT
TORSDOF 0
ENDMDL
MODEL 9
REMARK VINA RESULT:      -5.7     14.884     17.239
REMARK  0 active torsions:
REMARK  status: ('A' for Active; 'I' for Inactive)
REMARK       I    between atoms: N_1  and  C_2 
ROOT
HETATM    1  N   UNK N   1      25.166  24.837  -6.439  0.00  0.00    -0.234 N 
HETATM    2  C   UNK N   1      26.278  24.406  -5.691  0.00  0.00     0.680 A 
HETATM    3  N   UNK N   1      27.416  24.050  -6.327  0.00  0.00    -0.175 N 
ATOM      4  HN  UNK N   1      27.453  24.099  -7.346  1.00  0.00     0.186 HD
HETATM    5  C   UNK N   1      28.509  23.629  -5.647  0.00  0.00     0.150 A 
HETATM    6  C   UNK N   1      28.483  23.553  -4.235  0.00  0.00     0.153 A 
HETATM    7  N   UNK N   1      29.675  23.098  -3.568  0.00  0.00    -0.277 N 
HETATM    8  C   UNK N   1      30.842  22.737  -4.300  0.00  0.00     0.138 A 
HETATM    9  C   UNK N   1      30.908  22.806  -5.811  0.00  0.00     0.149 A 
HETATM   10  N   UNK N   1      29.667  23.272  -6.389  0.00  0.00    -0.372 N 
HETATM   11  C   UNK N   1      31.899  22.309  -3.280  0.00  0.00     0.208 A 
HETATM   12  O   UNK N   1      31.225  22.470  -2.075  0.00  0.00    -0.302 OA
HETATM   13  C   UNK N   1      29.972  22.917  -2.272  0.00  0.00     0.368 A 
HETATM   14  O   UNK N   1      29.209  23.125  -1.344  0.00  0.00    -0.238 OA
HETATM   15  C   UNK N   1      27.274  23.933  -3.588  0.00  0.00     0.290 A 
HETATM   16  O   UNK N   1      27.153  23.902  -2.382  0.00  0.00    -0.265 OA
HETATM   17  N   UNK N   1      26.208  24.349  -4.341  0.00  0.00    -0.154 N 
HETATM   18  H   UNK N   1      24.335  25.098  -5.980  0.00  0.00     0.174 HD
HETATM   19  H   UNK N   1      25.220  24.878  -7.421  0.00  0.00     0.174 HD
HETATM   20  H   UNK N   1      29.621  23.347  -7.369  0.00  0.00     0.161 HD
HETATM   21  H   UNK N   1      25.373  24.611  -3.890  0.00  0.00     0.187 HD
ENDROOT
TORSDOF 0
ENDMDL
