MODEL 1
REMARK VINA RESULT:      -7.0      0.000      0.000
REMARK  6 active torsions:
REMARK  status: ('A' for Active; 'I' for Inactive)
REMARK    1  A    between atoms: O_1  and  C_2 
REMARK    2  A    between atoms: C_2  and  C_17 
REMARK    3  A    between atoms: C_5  and  O_6 
REMARK    4  A    between atoms: C_5  and  C_23 
REMARK    5  A    between atoms: C_8  and  O_9 
REMARK    6  A    between atoms: C_8  and  C_25 
ROOT
HETATM    1  O   UNK N   1      33.812  16.504   4.685  0.00  0.00    -0.283 OA
HETATM    2  C   UNK N   1      32.883  16.717   5.449  0.00  0.00     0.236 A 
HETATM    3  C   UNK N   1      31.503  16.889   4.954  0.00  0.00     0.250 A 
HETATM    4  O   UNK N   1      31.268  16.818   3.757  0.00  0.00    -0.282 OA
HETATM    5  C   UNK N   1      33.093  16.800   6.891  0.00  0.00     0.048 A 
HETATM    6  C   UNK N   1      32.071  17.056   7.770  0.00  0.00     0.061 A 
HETATM    7  N   UNK N   1      32.544  17.049   9.023  0.00  0.00    -0.349 N 
HETATM    8  C   UNK N   1      33.868  16.816   8.933  0.00  0.00     0.108 A 
HETATM    9  C   UNK N   1      34.259  16.650   7.614  0.00  0.00     0.054 A 
HETATM   10  C   UNK N   1      30.657  17.281   7.325  0.00  0.00     0.040 A 
HETATM   11  C   UNK N   1      30.399  17.166   5.922  0.00  0.00     0.101 A 
HETATM   12  N   UNK N   1      29.139  17.323   5.439  0.00  0.00    -0.347 N 
ATOM     13  HN  UNK N   1      28.982  17.242   4.435  1.00  0.00     0.166 HD
HETATM   14  C   UNK N   1      28.082  17.584   6.247  0.00  0.00     0.108 A 
HETATM   15  C   UNK N   1      28.280  17.717   7.616  0.00  0.00     0.056 A 
HETATM   16  C   UNK N   1      29.550  17.590   8.191  0.00  0.00     0.055 A 
HETATM   17  H   UNK N   1      32.026  17.188   9.848  0.00  0.00     0.166 HD
ENDROOT
BRANCH   8  18
HETATM   18  C   UNK N   1      34.756  16.778  10.103  0.00  0.00     0.193 C 
HETATM   19  O   UNK N   1      35.688  17.564  10.188  0.00  0.00    -0.645 OA
BRANCH  18  20
HETATM   20  O   UNK N   1      34.562  15.866  11.075  0.00  0.00    -0.772 OA
HETATM   21  H   UNK N   1      34.782  16.070  11.962  0.00  0.00     0.167 HD
ENDBRANCH  18  20
ENDBRANCH   8  18
BRANCH  16  22
HETATM   22  C   UNK N   1      29.606  17.844   9.667  0.00  0.00     0.177 C 
HETATM   23  O   UNK N   1      29.687  18.994  10.071  0.00  0.00    -0.646 OA
BRANCH  22  24
HETATM   24  O   UNK N   1      29.687  16.853  10.565  0.00  0.00    -0.773 OA
HETATM   25  H   UNK N   1      30.102  16.033  10.378  0.00  0.00     0.167 HD
ENDBRANCH  22  24
ENDBRANCH  16  22
BRANCH  14  26
HETATM   26  C   UNK N   1      26.739  17.759   5.669  0.00  0.00     0.193 C 
HETATM   27  O   UNK N   1      25.935  16.838   5.682  0.00  0.00    -0.645 OA
BRANCH  26  28
HETATM   28  O   UNK N   1      26.384  18.942   5.133  0.00  0.00    -0.772 OA
HETATM   29  H   UNK N   1      26.478  19.089   4.213  0.00  0.00     0.167 HD
ENDBRANCH  26  28
ENDBRANCH  14  26
TORSDOF 6
ENDMDL
MODEL 2
REMARK VINA RESULT:      -7.0      1.763      6.361
REMARK  6 active torsions:
REMARK  status: ('A' for Active; 'I' for Inactive)
REMARK    1  A    between atoms: O_1  and  C_2 
REMARK    2  A    between atoms: C_2  and  C_17 
REMARK    3  A    between atoms: C_5  and  O_6 
REMARK    4  A    between atoms: C_5  and  C_23 
REMARK    5  A    between atoms: C_8  and  O_9 
REMARK    6  A    between atoms: C_8  and  C_25 
ROOT
HETATM    1  O   UNK N   1      29.477  16.418   2.517  0.00  0.00    -0.283 OA
HETATM    2  C   UNK N   1      29.467  16.741   3.695  0.00  0.00     0.236 A 
HETATM    3  C   UNK N   1      30.709  16.783   4.493  0.00  0.00     0.250 A 
HETATM    4  O   UNK N   1      31.778  16.494   3.978  0.00  0.00    -0.282 OA
HETATM    5  C   UNK N   1      28.226  17.111   4.367  0.00  0.00     0.048 A 
HETATM    6  C   UNK N   1      28.183  17.460   5.694  0.00  0.00     0.061 A 
HETATM    7  N   UNK N   1      26.927  17.776   6.035  0.00  0.00    -0.349 N 
HETATM    8  C   UNK N   1      26.173  17.600   4.932  0.00  0.00     0.108 A 
HETATM    9  C   UNK N   1      26.946  17.186   3.858  0.00  0.00     0.054 A 
HETATM   10  C   UNK N   1      29.403  17.481   6.566  0.00  0.00     0.040 A 
HETATM   11  C   UNK N   1      30.648  17.166   5.936  0.00  0.00     0.101 A 
HETATM   12  N   UNK N   1      31.805  17.194   6.647  0.00  0.00    -0.347 N 
ATOM     13  HN  UNK N   1      32.680  16.960   6.176  1.00  0.00     0.166 HD
HETATM   14  C   UNK N   1      31.839  17.523   7.961  0.00  0.00     0.108 A 
HETATM   15  C   UNK N   1      30.656  17.826   8.624  0.00  0.00     0.056 A 
HETATM   16  C   UNK N   1      29.419  17.801   7.969  0.00  0.00     0.055 A 
HETATM   17  H   UNK N   1      26.615  18.076   6.919  0.00  0.00     0.166 HD
ENDROOT
BRANCH   8  18
HETATM   18  C   UNK N   1      24.718  17.803   4.916  0.00  0.00     0.193 C 
HETATM   19  O   UNK N   1      24.231  18.668   4.204  0.00  0.00    -0.645 OA
BRANCH  18  20
HETATM   20  O   UNK N   1      23.918  17.056   5.699  0.00  0.00    -0.772 OA
HETATM   21  H   UNK N   1      23.100  17.399   5.999  0.00  0.00     0.167 HD
ENDBRANCH  18  20
ENDBRANCH   8  18
BRANCH  16  22
HETATM   22  C   UNK N   1      28.232  18.071   8.844  0.00  0.00     0.177 C 
HETATM   23  O   UNK N   1      27.877  17.220   9.645  0.00  0.00    -0.646 OA
BRANCH  22  24
HETATM   24  O   UNK N   1      27.469  19.164   8.704  0.00  0.00    -0.773 OA
HETATM   25  H   UNK N   1      27.811  19.985   8.407  0.00  0.00     0.167 HD
ENDBRANCH  22  24
ENDBRANCH  16  22
BRANCH  14  26
HETATM   26  C   UNK N   1      33.120  17.524   8.688  0.00  0.00     0.193 C 
HETATM   27  O   UNK N   1      33.948  18.399   8.481  0.00  0.00    -0.645 OA
BRANCH  26  28
HETATM   28  O   UNK N   1      33.381  16.565   9.597  0.00  0.00    -0.772 OA
HETATM   29  H   UNK N   1      33.878  16.767  10.365  0.00  0.00     0.167 HD
ENDBRANCH  26  28
ENDBRANCH  14  26
TORSDOF 6
ENDMDL
MODEL 3
REMARK VINA RESULT:      -7.0      2.152      5.983
REMARK  6 active torsions:
REMARK  status: ('A' for Active; 'I' for Inactive)
REMARK    1  A    between atoms: O_1  and  C_2 
REMARK    2  A    between atoms: C_2  and  C_17 
REMARK    3  A    between atoms: C_5  and  O_6 
REMARK    4  A    between atoms: C_5  and  C_23 
REMARK    5  A    between atoms: C_8  and  O_9 
REMARK    6  A    between atoms: C_8  and  C_25 
ROOT
HETATM    1  O   UNK N   1      29.554  16.640   2.992  0.00  0.00    -0.283 OA
HETATM    2  C   UNK N   1      29.644  16.822   4.197  0.00  0.00     0.236 A 
HETATM    3  C   UNK N   1      30.606  16.062   5.021  0.00  0.00     0.250 A 
HETATM    4  O   UNK N   1      31.336  15.232   4.501  0.00  0.00    -0.282 OA
HETATM    5  C   UNK N   1      28.811  17.807   4.877  0.00  0.00     0.048 A 
HETATM    6  C   UNK N   1      28.878  18.018   6.232  0.00  0.00     0.061 A 
HETATM    7  N   UNK N   1      28.026  18.993   6.577  0.00  0.00    -0.349 N 
HETATM    8  C   UNK N   1      27.402  19.377   5.446  0.00  0.00     0.108 A 
HETATM    9  C   UNK N   1      27.864  18.662   4.352  0.00  0.00     0.054 A 
HETATM   10  C   UNK N   1      29.804  17.250   7.127  0.00  0.00     0.040 A 
HETATM   11  C   UNK N   1      30.670  16.304   6.494  0.00  0.00     0.101 A 
HETATM   12  N   UNK N   1      31.562  15.590   7.228  0.00  0.00    -0.347 N 
ATOM     13  HN  UNK N   1      32.165  14.916   6.755  1.00  0.00     0.166 HD
HETATM   14  C   UNK N   1      31.680  15.741   8.570  0.00  0.00     0.108 A 
HETATM   15  C   UNK N   1      30.855  16.639   9.236  0.00  0.00     0.056 A 
HETATM   16  C   UNK N   1      29.896  17.399   8.555  0.00  0.00     0.055 A 
HETATM   17  H   UNK N   1      27.883  19.357   7.480  0.00  0.00     0.166 HD
ENDROOT
BRANCH   8  18
HETATM   18  C   UNK N   1      26.352  20.404   5.421  0.00  0.00     0.193 C 
HETATM   19  O   UNK N   1      25.538  20.422   4.510  0.00  0.00    -0.645 OA
BRANCH  18  20
HETATM   20  O   UNK N   1      26.295  21.343   6.384  0.00  0.00    -0.772 OA
HETATM   21  H   UNK N   1      26.552  22.224   6.198  0.00  0.00     0.167 HD
ENDBRANCH  18  20
ENDBRANCH   8  18
BRANCH  16  22
HETATM   22  C   UNK N   1      29.031  18.257   9.428  0.00  0.00     0.177 C 
HETATM   23  O   UNK N   1      29.556  18.974  10.267  0.00  0.00    -0.646 OA
BRANCH  22  24
HETATM   24  O   UNK N   1      27.693  18.188   9.406  0.00  0.00    -0.773 OA
HETATM   25  H   UNK N   1      27.207  18.030   8.620  0.00  0.00     0.167 HD
ENDBRANCH  22  24
ENDBRANCH  16  22
BRANCH  14  26
HETATM   26  C   UNK N   1      32.655  14.930   9.320  0.00  0.00     0.193 C 
HETATM   27  O   UNK N   1      33.402  14.161   8.732  0.00  0.00    -0.645 OA
BRANCH  26  28
HETATM   28  O   UNK N   1      32.737  15.041  10.659  0.00  0.00    -0.772 OA
HETATM   29  H   UNK N   1      32.214  14.493  11.210  0.00  0.00     0.167 HD
ENDBRANCH  26  28
ENDBRANCH  14  26
TORSDOF 6
ENDMDL
MODEL 4
REMARK VINA RESULT:      -7.0      9.998     11.831
REMARK  6 active torsions:
REMARK  status: ('A' for Active; 'I' for Inactive)
REMARK    1  A    between atoms: O_1  and  C_2 
REMARK    2  A    between atoms: C_2  and  C_17 
REMARK    3  A    between atoms: C_5  and  O_6 
REMARK    4  A    between atoms: C_5  and  C_23 
REMARK    5  A    between atoms: C_8  and  O_9 
REMARK    6  A    between atoms: C_8  and  C_25 
ROOT
HETATM    1  O   UNK N   1      19.240  13.490   1.450  0.00  0.00    -0.283 OA
HETATM    2  C   UNK N   1      19.617  14.498   2.030  0.00  0.00     0.236 A 
HETATM    3  C   UNK N   1      19.718  15.795   1.332  0.00  0.00     0.250 A 
HETATM    4  O   UNK N   1      19.420  15.879   0.150  0.00  0.00    -0.282 OA
HETATM    5  C   UNK N   1      19.975  14.468   3.444  0.00  0.00     0.048 A 
HETATM    6  C   UNK N   1      20.418  15.580   4.114  0.00  0.00     0.061 A 
HETATM    7  N   UNK N   1      20.645  15.271   5.398  0.00  0.00    -0.349 N 
HETATM    8  C   UNK N   1      20.372  13.958   5.531  0.00  0.00     0.108 A 
HETATM    9  C   UNK N   1      19.944  13.412   4.331  0.00  0.00     0.054 A 
HETATM   10  C   UNK N   1      20.581  16.916   3.450  0.00  0.00     0.040 A 
HETATM   11  C   UNK N   1      20.200  16.998   2.074  0.00  0.00     0.101 A 
HETATM   12  N   UNK N   1      20.286  18.178   1.407  0.00  0.00    -0.347 N 
ATOM     13  HN  UNK N   1      20.015  18.211   0.424  1.00  0.00     0.166 HD
HETATM   14  C   UNK N   1      20.721  19.316   2.002  0.00  0.00     0.108 A 
HETATM   15  C   UNK N   1      21.114  19.288   3.334  0.00  0.00     0.056 A 
HETATM   16  C   UNK N   1      21.075  18.108   4.087  0.00  0.00     0.055 A 
HETATM   17  H   UNK N   1      20.952  15.882   6.105  0.00  0.00     0.166 HD
ENDROOT
BRANCH   8  18
HETATM   18  C   UNK N   1      20.544  13.229   6.795  0.00  0.00     0.193 C 
HETATM   19  O   UNK N   1      20.846  12.045   6.779  0.00  0.00    -0.645 OA
BRANCH  18  20
HETATM   20  O   UNK N   1      20.348  13.852   7.971  0.00  0.00    -0.772 OA
HETATM   21  H   UNK N   1      19.585  13.666   8.481  0.00  0.00     0.167 HD
ENDBRANCH  18  20
ENDBRANCH   8  18
BRANCH  16  22
HETATM   22  C   UNK N   1      21.610  18.227   5.482  0.00  0.00     0.177 C 
HETATM   23  O   UNK N   1      21.017  18.927   6.289  0.00  0.00    -0.646 OA
BRANCH  22  24
HETATM   24  O   UNK N   1      22.780  17.689   5.852  0.00  0.00    -0.773 OA
HETATM   25  H   UNK N   1      23.457  18.188   6.266  0.00  0.00     0.167 HD
ENDBRANCH  22  24
ENDBRANCH  16  22
BRANCH  14  26
HETATM   26  C   UNK N   1      20.808  20.566   1.227  0.00  0.00     0.193 C 
HETATM   27  O   UNK N   1      21.084  21.620   1.782  0.00  0.00    -0.645 OA
BRANCH  26  28
HETATM   28  O   UNK N   1      20.595  20.552  -0.103  0.00  0.00    -0.772 OA
HETATM   29  H   UNK N   1      20.246  19.787  -0.515  0.00  0.00     0.167 HD
ENDBRANCH  26  28
ENDBRANCH  14  26
TORSDOF 6
ENDMDL
MODEL 5
REMARK VINA RESULT:      -6.8      9.479     10.887
REMARK  6 active torsions:
REMARK  status: ('A' for Active; 'I' for Inactive)
REMARK    1  A    between atoms: O_1  and  C_2 
REMARK    2  A    between atoms: C_2  and  C_17 
REMARK    3  A    between atoms: C_5  and  O_6 
REMARK    4  A    between atoms: C_5  and  C_23 
REMARK    5  A    between atoms: C_8  and  O_9 
REMARK    6  A    between atoms: C_8  and  C_25 
ROOT
HETATM    1  O   UNK N   1      23.423  14.941   3.377  0.00  0.00    -0.283 OA
HETATM    2  C   UNK N   1      22.846  15.298   4.394  0.00  0.00     0.236 A 
HETATM    3  C   UNK N   1      22.713  14.400   5.559  0.00  0.00     0.250 A 
HETATM    4  O   UNK N   1      23.188  13.275   5.523  0.00  0.00    -0.282 OA
HETATM    5  C   UNK N   1      22.268  16.633   4.507  0.00  0.00     0.048 A 
HETATM    6  C   UNK N   1      21.599  17.052   5.629  0.00  0.00     0.061 A 
HETATM    7  N   UNK N   1      21.202  18.321   5.467  0.00  0.00    -0.349 N 
HETATM    8  C   UNK N   1      21.597  18.694   4.234  0.00  0.00     0.108 A 
HETATM    9  C   UNK N   1      22.273  17.667   3.594  0.00  0.00     0.054 A 
HETATM   10  C   UNK N   1      21.396  16.173   6.828  0.00  0.00     0.040 A 
HETATM   11  C   UNK N   1      21.984  14.870   6.775  0.00  0.00     0.101 A 
HETATM   12  N   UNK N   1      21.875  14.024   7.832  0.00  0.00    -0.347 N 
ATOM     13  HN  UNK N   1      22.297  13.097   7.768  1.00  0.00     0.166 HD
HETATM   14  C   UNK N   1      21.223  14.367   8.969  0.00  0.00     0.108 A 
HETATM   15  C   UNK N   1      20.624  15.617   9.068  0.00  0.00     0.056 A 
HETATM   16  C   UNK N   1      20.673  16.540   8.017  0.00  0.00     0.055 A 
HETATM   17  H   UNK N   1      20.716  18.874   6.121  0.00  0.00     0.166 HD
ENDROOT
BRANCH   8  18
HETATM   18  C   UNK N   1      21.305  20.016   3.665  0.00  0.00     0.193 C 
HETATM   19  O   UNK N   1      20.208  20.526   3.837  0.00  0.00    -0.645 OA
BRANCH  18  20
HETATM   20  O   UNK N   1      22.233  20.662   2.934  0.00  0.00    -0.772 OA
HETATM   21  H   UNK N   1      22.674  20.218   2.237  0.00  0.00     0.167 HD
ENDBRANCH  18  20
ENDBRANCH   8  18
BRANCH  16  22
HETATM   22  C   UNK N   1      19.908  17.808   8.250  0.00  0.00     0.177 C 
HETATM   23  O   UNK N   1      20.478  18.881   8.119  0.00  0.00    -0.646 OA
BRANCH  22  24
HETATM   24  O   UNK N   1      18.649  17.814   8.708  0.00  0.00    -0.773 OA
HETATM   25  H   UNK N   1      17.908  17.660   8.155  0.00  0.00     0.167 HD
ENDBRANCH  22  24
ENDBRANCH  16  22
BRANCH  14  26
HETATM   26  C   UNK N   1      21.123  13.404  10.080  0.00  0.00     0.193 C 
HETATM   27  O   UNK N   1      22.133  12.949  10.596  0.00  0.00    -0.645 OA
BRANCH  26  28
HETATM   28  O   UNK N   1      19.914  13.031  10.542  0.00  0.00    -0.772 OA
HETATM   29  H   UNK N   1      19.263  12.711   9.950  0.00  0.00     0.167 HD
ENDBRANCH  26  28
ENDBRANCH  14  26
TORSDOF 6
ENDMDL
MODEL 6
REMARK VINA RESULT:      -6.8     11.805     14.655
REMARK  6 active torsions:
REMARK  status: ('A' for Active; 'I' for Inactive)
REMARK    1  A    between atoms: O_1  and  C_2 
REMARK    2  A    between atoms: C_2  and  C_17 
REMARK    3  A    between atoms: C_5  and  O_6 
REMARK    4  A    between atoms: C_5  and  C_23 
REMARK    5  A    between atoms: C_8  and  O_9 
REMARK    6  A    between atoms: C_8  and  C_25 
ROOT
HETATM    1  O   UNK N   1      28.189  20.910  -8.396  0.00  0.00    -0.283 OA
HETATM    2  C   UNK N   1      28.814  21.213  -7.391  0.00  0.00     0.236 A 
HETATM    3  C   UNK N   1      30.023  20.469  -6.983  0.00  0.00     0.250 A 
HETATM    4  O   UNK N   1      30.420  19.530  -7.656  0.00  0.00    -0.282 OA
HETATM    5  C   UNK N   1      28.401  22.332  -6.551  0.00  0.00     0.048 A 
HETATM    6  C   UNK N   1      29.075  22.681  -5.407  0.00  0.00     0.061 A 
HETATM    7  N   UNK N   1      28.495  23.755  -4.854  0.00  0.00    -0.349 N 
HETATM    8  C   UNK N   1      27.440  24.066  -5.633  0.00  0.00     0.108 A 
HETATM    9  C   UNK N   1      27.343  23.202  -6.712  0.00  0.00     0.054 A 
HETATM   10  C   UNK N   1      30.284  21.939  -4.919  0.00  0.00     0.040 A 
HETATM   11  C   UNK N   1      30.747  20.861  -5.737  0.00  0.00     0.101 A 
HETATM   12  N   UNK N   1      31.855  20.158  -5.384  0.00  0.00    -0.347 N 
ATOM     13  HN  UNK N   1      32.163  19.389  -5.980  1.00  0.00     0.166 HD
HETATM   14  C   UNK N   1      32.566  20.442  -4.266  0.00  0.00     0.108 A 
HETATM   15  C   UNK N   1      32.152  21.472  -3.431  0.00  0.00     0.056 A 
HETATM   16  C   UNK N   1      31.010  22.232  -3.712  0.00  0.00     0.055 A 
HETATM   17  H   UNK N   1      28.782  24.224  -4.038  0.00  0.00     0.166 HD
ENDROOT
BRANCH   8  18
HETATM   18  C   UNK N   1      26.518  25.169  -5.329  0.00  0.00     0.193 C 
HETATM   19  O   UNK N   1      26.941  26.194  -4.816  0.00  0.00    -0.645 OA
BRANCH  18  20
HETATM   20  O   UNK N   1      25.204  25.048  -5.594  0.00  0.00    -0.772 OA
HETATM   21  H   UNK N   1      24.597  24.887  -4.898  0.00  0.00     0.167 HD
ENDBRANCH  18  20
ENDBRANCH   8  18
BRANCH  16  22
HETATM   22  C   UNK N   1      30.652  23.249  -2.671  0.00  0.00     0.177 C 
HETATM   23  O   UNK N   1      30.718  24.436  -2.950  0.00  0.00    -0.646 OA
BRANCH  22  24
HETATM   24  O   UNK N   1      30.371  22.913  -1.404  0.00  0.00    -0.773 OA
HETATM   25  H   UNK N   1      29.513  23.001  -1.036  0.00  0.00     0.167 HD
ENDBRANCH  22  24
ENDBRANCH  16  22
BRANCH  14  26
HETATM   26  C   UNK N   1      33.752  19.638  -3.923  0.00  0.00     0.193 C 
HETATM   27  O   UNK N   1      34.850  20.167  -3.825  0.00  0.00    -0.645 OA
BRANCH  26  28
HETATM   28  O   UNK N   1      33.630  18.315  -3.703  0.00  0.00    -0.772 OA
HETATM   29  H   UNK N   1      32.975  17.821  -4.155  0.00  0.00     0.167 HD
ENDBRANCH  26  28
ENDBRANCH  14  26
TORSDOF 6
ENDMDL
MODEL 7
REMARK VINA RESULT:      -6.7     12.714     15.383
REMARK  6 active torsions:
REMARK  status: ('A' for Active; 'I' for Inactive)
REMARK    1  A    between atoms: O_1  and  C_2 
REMARK    2  A    between atoms: C_2  and  C_17 
REMARK    3  A    between atoms: C_5  and  O_6 
REMARK    4  A    between atoms: C_5  and  C_23 
REMARK    5  A    between atoms: C_8  and  O_9 
REMARK    6  A    between atoms: C_8  and  C_25 
ROOT
HETATM    1  O   UNK N   1      25.159  23.807  -7.616  0.00  0.00    -0.283 OA
HETATM    2  C   UNK N   1      26.148  23.693  -6.907  0.00  0.00     0.236 A 
HETATM    3  C   UNK N   1      27.161  22.649  -7.162  0.00  0.00     0.250 A 
HETATM    4  O   UNK N   1      27.022  21.877  -8.099  0.00  0.00    -0.282 OA
HETATM    5  C   UNK N   1      26.379  24.590  -5.781  0.00  0.00     0.048 A 
HETATM    6  C   UNK N   1      27.471  24.472  -4.958  0.00  0.00     0.061 A 
HETATM    7  N   UNK N   1      27.442  25.439  -4.031  0.00  0.00    -0.349 N 
HETATM    8  C   UNK N   1      26.318  26.149  -4.251  0.00  0.00     0.108 A 
HETATM    9  C   UNK N   1      25.620  25.655  -5.342  0.00  0.00     0.054 A 
HETATM   10  C   UNK N   1      28.512  23.408  -5.140  0.00  0.00     0.040 A 
HETATM   11  C   UNK N   1      28.345  22.533  -6.259  0.00  0.00     0.101 A 
HETATM   12  N   UNK N   1      29.261  21.562  -6.515  0.00  0.00    -0.347 N 
ATOM     13  HN  UNK N   1      29.117  20.946  -7.316  1.00  0.00     0.166 HD
HETATM   14  C   UNK N   1      30.359  21.382  -5.742  0.00  0.00     0.108 A 
HETATM   15  C   UNK N   1      30.563  22.197  -4.636  0.00  0.00     0.056 A 
HETATM   16  C   UNK N   1      29.657  23.208  -4.292  0.00  0.00     0.055 A 
HETATM   17  H   UNK N   1      28.109  25.598  -3.326  0.00  0.00     0.166 HD
ENDROOT
BRANCH   8  18
HETATM   18  C   UNK N   1      25.906  27.278  -3.406  0.00  0.00     0.193 C 
HETATM   19  O   UNK N   1      25.973  27.186  -2.190  0.00  0.00    -0.645 OA
BRANCH  18  20
HETATM   20  O   UNK N   1      25.432  28.408  -3.964  0.00  0.00    -0.772 OA
HETATM   21  H   UNK N   1      26.014  28.991  -4.412  0.00  0.00     0.167 HD
ENDBRANCH  18  20
ENDBRANCH   8  18
BRANCH  16  22
HETATM   22  C   UNK N   1      29.977  23.943  -3.025  0.00  0.00     0.177 C 
HETATM   23  O   UNK N   1      30.406  25.085  -3.091  0.00  0.00    -0.646 OA
BRANCH  22  24
HETATM   24  O   UNK N   1      29.922  23.358  -1.821  0.00  0.00    -0.773 OA
HETATM   25  H   UNK N   1      30.224  22.484  -1.669  0.00  0.00     0.167 HD
ENDBRANCH  22  24
ENDBRANCH  16  22
BRANCH  14  26
HETATM   26  C   UNK N   1      31.313  20.304  -6.057  0.00  0.00     0.193 C 
HETATM   27  O   UNK N   1      31.395  19.863  -7.194  0.00  0.00    -0.645 OA
BRANCH  26  28
HETATM   28  O   UNK N   1      32.111  19.807  -5.093  0.00  0.00    -0.772 OA
HETATM   29  H   UNK N   1      32.711  20.367  -4.643  0.00  0.00     0.167 HD
ENDBRANCH  26  28
ENDBRANCH  14  26
TORSDOF 6
ENDMDL
MODEL 8
REMARK VINA RESULT:      -6.6      6.479      9.547
REMARK  6 active torsions:
REMARK  status: ('A' for Active; 'I' for Inactive)
REMARK    1  A    between atoms: O_1  and  C_2 
REMARK    2  A    between atoms: C_2  and  C_17 
REMARK    3  A    between atoms: C_5  and  O_6 
REMARK    4  A    between atoms: C_5  and  C_23 
REMARK    5  A    between atoms: C_8  and  O_9 
REMARK    6  A    between atoms: C_8  and  C_25 
ROOT
HETATM    1  O   UNK N   1      22.254  21.360   2.613  0.00  0.00    -0.283 OA
HETATM    2  C   UNK N   1      22.315  20.240   3.098  0.00  0.00     0.236 A 
HETATM    3  C   UNK N   1      21.100  19.433   3.327  0.00  0.00     0.250 A 
HETATM    4  O   UNK N   1      20.003  19.880   3.028  0.00  0.00    -0.282 OA
HETATM    5  C   UNK N   1      23.595  19.643   3.464  0.00  0.00     0.048 A 
HETATM    6  C   UNK N   1      23.690  18.395   4.027  0.00  0.00     0.061 A 
HETATM    7  N   UNK N   1      24.979  18.092   4.233  0.00  0.00    -0.349 N 
HETATM    8  C   UNK N   1      25.694  19.159   3.826  0.00  0.00     0.108 A 
HETATM    9  C   UNK N   1      24.868  20.157   3.332  0.00  0.00     0.054 A 
HETATM   10  C   UNK N   1      22.490  17.545   4.322  0.00  0.00     0.040 A 
HETATM   11  C   UNK N   1      21.218  18.076   3.939  0.00  0.00     0.101 A 
HETATM   12  N   UNK N   1      20.083  17.356   4.140  0.00  0.00    -0.347 N 
ATOM     13  HN  UNK N   1      19.188  17.759   3.864  1.00  0.00     0.166 HD
HETATM   14  C   UNK N   1      20.100  16.121   4.697  0.00  0.00     0.108 A 
HETATM   15  C   UNK N   1      21.308  15.563   5.098  0.00  0.00     0.056 A 
HETATM   16  C   UNK N   1      22.520  16.248   4.943  0.00  0.00     0.055 A 
HETATM   17  H   UNK N   1      25.333  17.255   4.610  0.00  0.00     0.166 HD
ENDROOT
BRANCH   8  18
HETATM   18  C   UNK N   1      27.158  19.230   3.934  0.00  0.00     0.193 C 
HETATM   19  O   UNK N   1      27.689  20.240   4.368  0.00  0.00    -0.645 OA
BRANCH  18  20
HETATM   20  O   UNK N   1      27.919  18.193   3.536  0.00  0.00    -0.772 OA
HETATM   21  H   UNK N   1      27.589  17.580   2.909  0.00  0.00     0.167 HD
ENDBRANCH  18  20
ENDBRANCH   8  18
BRANCH  16  22
HETATM   22  C   UNK N   1      23.721  15.545   5.501  0.00  0.00     0.177 C 
HETATM   23  O   UNK N   1      23.954  14.397   5.154  0.00  0.00    -0.646 OA
BRANCH  22  24
HETATM   24  O   UNK N   1      24.490  16.084   6.458  0.00  0.00    -0.773 OA
HETATM   25  H   UNK N   1      24.757  15.607   7.220  0.00  0.00     0.167 HD
ENDBRANCH  22  24
ENDBRANCH  16  22
BRANCH  14  26
HETATM   26  C   UNK N   1      18.838  15.389   4.906  0.00  0.00     0.193 C 
HETATM   27  O   UNK N   1      17.966  15.855   5.625  0.00  0.00    -0.645 OA
BRANCH  26  28
HETATM   28  O   UNK N   1      18.634  14.208   4.294  0.00  0.00    -0.772 OA
HETATM   29  H   UNK N   1      19.355  13.634   4.125  0.00  0.00     0.167 HD
ENDBRANCH  26  28
ENDBRANCH  14  26
TORSDOF 6
ENDMDL
MODEL 9
REMARK VINA RESULT:      -6.5     11.576     14.093
REMARK  6 active torsions:
REMARK  status: ('A' for Active; 'I' for Inactive)
REMARK    1  A    between atoms: O_1  and  C_2 
REMARK    2  A    between atoms: C_2  and  C_17 
REMARK    3  A    between atoms: C_5  and  O_6 
REMARK    4  A    between atoms: C_5  and  C_23 
REMARK    5  A    between atoms: C_8  and  O_9 
REMARK    6  A    between atoms: C_8  and  C_25 
ROOT
HETATM    1  O   UNK N   1      32.624  21.415  -2.032  0.00  0.00    -0.283 OA
HETATM    2  C   UNK N   1      31.816  21.692  -2.906  0.00  0.00     0.236 A 
HETATM    3  C   UNK N   1      30.667  22.581  -2.638  0.00  0.00     0.250 A 
HETATM    4  O   UNK N   1      30.508  23.058  -1.525  0.00  0.00    -0.282 OA
HETATM    5  C   UNK N   1      31.955  21.166  -4.260  0.00  0.00     0.048 A 
HETATM    6  C   UNK N   1      31.052  21.447  -5.254  0.00  0.00     0.061 A 
HETATM    7  N   UNK N   1      31.440  20.858  -6.393  0.00  0.00    -0.349 N 
HETATM    8  C   UNK N   1      32.572  20.184  -6.111  0.00  0.00     0.108 A 
HETATM    9  C   UNK N   1      32.936  20.350  -4.784  0.00  0.00     0.054 A 
HETATM   10  C   UNK N   1      29.844  22.308  -5.033  0.00  0.00     0.040 A 
HETATM   11  C   UNK N   1      29.693  22.879  -3.730  0.00  0.00     0.101 A 
HETATM   12  N   UNK N   1      28.644  23.698  -3.456  0.00  0.00    -0.347 N 
ATOM     13  HN  UNK N   1      28.554  24.088  -2.517  1.00  0.00     0.166 HD
HETATM   14  C   UNK N   1      27.710  24.014  -4.386  0.00  0.00     0.108 A 
HETATM   15  C   UNK N   1      27.804  23.477  -5.664  0.00  0.00     0.056 A 
HETATM   16  C   UNK N   1      28.843  22.610  -6.022  0.00  0.00     0.055 A 
HETATM   17  H   UNK N   1      30.987  20.907  -7.266  0.00  0.00     0.166 HD
ENDROOT
BRANCH   8  18
HETATM   18  C   UNK N   1      33.285  19.366  -7.101  0.00  0.00     0.193 C 
HETATM   19  O   UNK N   1      32.804  19.195  -8.211  0.00  0.00    -0.645 OA
BRANCH  18  20
HETATM   20  O   UNK N   1      34.458  18.785  -6.785  0.00  0.00    -0.772 OA
HETATM   21  H   UNK N   1      35.236  19.011  -7.255  0.00  0.00     0.167 HD
ENDBRANCH  18  20
ENDBRANCH   8  18
BRANCH  16  22
HETATM   22  C   UNK N   1      28.754  22.053  -7.411  0.00  0.00     0.177 C 
HETATM   23  O   UNK N   1      28.723  22.821  -8.360  0.00  0.00    -0.646 OA
BRANCH  22  24
HETATM   24  O   UNK N   1      28.591  20.745  -7.653  0.00  0.00    -0.773 OA
HETATM   25  H   UNK N   1      29.300  20.132  -7.622  0.00  0.00     0.167 HD
ENDBRANCH  22  24
ENDBRANCH  16  22
BRANCH  14  26
HETATM   26  C   UNK N   1      26.584  24.895  -4.030  0.00  0.00     0.193 C 
HETATM   27  O   UNK N   1      26.468  25.320  -2.890  0.00  0.00    -0.645 OA
BRANCH  26  28
HETATM   28  O   UNK N   1      25.683  25.249  -4.966  0.00  0.00    -0.772 OA
HETATM   29  H   UNK N   1      25.950  25.368  -5.856  0.00  0.00     0.167 HD
ENDBRANCH  26  28
ENDBRANCH  14  26
TORSDOF 6
ENDMDL
