MODEL 1
REMARK VINA RESULT:      -6.7      0.000      0.000
REMARK  14 active torsions:
REMARK  status: ('A' for Active; 'I' for Inactive)
REMARK    1  A    between atoms: C_3  and  C_2 
REMARK    2  A    between atoms: C_4  and  C_2 
REMARK    3  A    between atoms: C_9  and  C_3 
REMARK    4  A    between atoms: C_10  and  C_4 
REMARK    5  A    between atoms: C_8  and  C_5 
REMARK    6  A    between atoms: O_28  and  C_5 
REMARK    7  A    between atoms: O_28  and  C_7 
REMARK    8  A    between atoms: C_15  and  C_9 
REMARK    9  A    between atoms: C_9  and  N_17 
REMARK   10  A    between atoms: C_10  and  O_22 
REMARK   11  A    between atoms: C_11  and  N_18 
REMARK   12  A    between atoms: C_16  and  C_12 
REMARK   13  A    between atoms: O_25  and  C_15 
REMARK   14  A    between atoms: O_27  and  C_16 
ROOT
HETATM    1  C   UNK N   1      28.842  17.531   8.367  0.00  0.00     0.115 C 
HETATM    2  C   UNK N   1      28.954  17.459   6.857  0.00  0.00    -0.013 C 
HETATM    3  C   UNK N   1      32.823  17.597   8.527  0.00  0.00     0.209 C 
HETATM    4  C   UNK N   1      30.176  17.202   6.293  0.00  0.00     0.117 C 
HETATM    5  C   UNK N   1      32.580  17.260   7.096  0.00  0.00     0.251 C 
HETATM    6  C   UNK N   1      31.267  17.203   8.621  0.00  0.00     0.187 C 
HETATM    7  N   UNK N   1      31.291  17.074   7.194  0.00  0.00    -0.293 N 
HETATM    8  O   UNK N   1      33.234  17.493   6.091  0.00  0.00    -0.271 OA
HETATM    9  S   UNK N   1      30.170  18.569   9.056  0.00  0.00    -0.136 SA
ENDROOT
BRANCH   3  10
HETATM   10  N   UNK N   1      33.617  16.674   9.303  0.00  0.00    -0.359 N 
HETATM   11  C   UNK N   1      34.819  17.024   9.628  0.00  0.00     0.111 C 
ATOM     12  HN  UNK N   1      33.240  15.770   9.587  1.00  0.00     0.162 HD
BRANCH  11  13
HETATM   13  C   UNK N   1      35.704  16.096  10.410  0.00  0.00     0.083 C 
BRANCH  13  14
HETATM   14  C   UNK N   1      34.903  15.234  11.393  0.00  0.00     0.010 C 
BRANCH  14  15
HETATM   15  C   UNK N   1      35.186  13.750  11.180  0.00  0.00     0.036 C 
BRANCH  15  16
HETATM   16  C   UNK N   1      36.161  13.208  12.221  0.00  0.00     0.173 C 
BRANCH  16  17
HETATM   17  C   UNK N   1      35.955  13.850  13.569  0.00  0.00     0.163 C 
HETATM   18  O   UNK N   1      34.993  13.552  14.261  0.00  0.00    -0.648 OA
BRANCH  17  19
HETATM   19  O   UNK N   1      36.825  14.778  14.010  0.00  0.00    -0.775 OA
HETATM   20  H   UNK N   1      37.620  14.945  13.542  0.00  0.00     0.167 HD
ENDBRANCH  17  19
ENDBRANCH  16  17
BRANCH  16  21
HETATM   21  N   UNK N   1      37.522  13.425  11.751  0.00  0.00    -0.418 N 
HETATM   22  H   UNK N   1      37.922  14.363  11.744  0.00  0.00     0.150 HD
HETATM   23  H   UNK N   1      38.078  12.633  11.428  0.00  0.00     0.150 HD
ENDBRANCH  16  21
ENDBRANCH  15  16
ENDBRANCH  14  15
ENDBRANCH  13  14
ENDBRANCH  11  13
BRANCH  11  24
HETATM   24  O   UNK N   1      35.290  18.240   9.260  0.00  0.00    -0.350 OA
HETATM   25  H   UNK N   1      35.219  19.113   9.591  0.00  0.00     0.219 HD
ENDBRANCH  11  24
ENDBRANCH   3  10
BRANCH   4  26
HETATM   26  C   UNK N   1      30.373  17.177   4.800  0.00  0.00     0.194 C 
HETATM   27  O   UNK N   1      30.164  16.157   4.167  0.00  0.00    -0.645 OA
BRANCH  26  28
HETATM   28  O   UNK N   1      30.792  18.272   4.134  0.00  0.00    -0.772 OA
HETATM   29  H   UNK N   1      30.207  18.728   3.563  0.00  0.00     0.167 HD
ENDBRANCH  26  28
ENDBRANCH   4  26
BRANCH   2  30
HETATM   30  C   UNK N   1      27.708  17.720   6.051  0.00  0.00     0.216 C 
BRANCH  30  31
HETATM   31  O   UNK N   1      27.223  18.989   6.296  0.00  0.00    -0.317 OA
BRANCH  31  32
HETATM   32  C   UNK N   1      27.582  20.068   5.565  0.00  0.00     0.255 C 
HETATM   33  C   UNK N   1      27.167  21.426   6.015  0.00  0.00     0.126 C 
HETATM   34  O   UNK N   1      28.240  19.943   4.543  0.00  0.00    -0.266 OA
ENDBRANCH  31  32
ENDBRANCH  30  31
ENDBRANCH   2  30
TORSDOF 14
ENDMDL
MODEL 2
REMARK VINA RESULT:      -6.4      2.591      8.803
REMARK  14 active torsions:
REMARK  status: ('A' for Active; 'I' for Inactive)
REMARK    1  A    between atoms: C_3  and  C_2 
REMARK    2  A    between atoms: C_4  and  C_2 
REMARK    3  A    between atoms: C_9  and  C_3 
REMARK    4  A    between atoms: C_10  and  C_4 
REMARK    5  A    between atoms: C_8  and  C_5 
REMARK    6  A    between atoms: O_28  and  C_5 
REMARK    7  A    between atoms: O_28  and  C_7 
REMARK    8  A    between atoms: C_15  and  C_9 
REMARK    9  A    between atoms: C_9  and  N_17 
REMARK   10  A    between atoms: C_10  and  O_22 
REMARK   11  A    between atoms: C_11  and  N_18 
REMARK   12  A    between atoms: C_16  and  C_12 
REMARK   13  A    between atoms: O_25  and  C_15 
REMARK   14  A    between atoms: O_27  and  C_16 
ROOT
HETATM    1  C   UNK N   1      34.912  14.123   7.033  0.00  0.00     0.115 C 
HETATM    2  C   UNK N   1      35.323  14.812   8.319  0.00  0.00    -0.013 C 
HETATM    3  C   UNK N   1      32.465  17.188   6.327  0.00  0.00     0.209 C 
HETATM    4  C   UNK N   1      34.591  15.883   8.762  0.00  0.00     0.117 C 
HETATM    5  C   UNK N   1      32.879  17.445   7.735  0.00  0.00     0.251 C 
HETATM    6  C   UNK N   1      33.106  15.753   6.668  0.00  0.00     0.187 C 
HETATM    7  N   UNK N   1      33.501  16.313   7.926  0.00  0.00    -0.293 N 
HETATM    8  O   UNK N   1      32.997  18.486   8.363  0.00  0.00    -0.271 OA
HETATM    9  S   UNK N   1      34.591  15.349   5.726  0.00  0.00    -0.136 SA
ENDROOT
BRANCH   3  10
HETATM   10  N   UNK N   1      31.053  17.051   6.062  0.00  0.00    -0.359 N 
HETATM   11  C   UNK N   1      30.588  17.539   4.957  0.00  0.00     0.111 C 
ATOM     12  HN  UNK N   1      30.438  16.584   6.727  1.00  0.00     0.162 HD
BRANCH  11  13
HETATM   13  C   UNK N   1      29.123  17.454   4.637  0.00  0.00     0.083 C 
BRANCH  13  14
HETATM   14  C   UNK N   1      28.412  18.796   4.851  0.00  0.00     0.010 C 
BRANCH  14  15
HETATM   15  C   UNK N   1      27.395  18.705   5.985  0.00  0.00     0.036 C 
BRANCH  15  16
HETATM   16  C   UNK N   1      27.829  19.522   7.198  0.00  0.00     0.173 C 
BRANCH  16  17
HETATM   17  C   UNK N   1      28.324  18.642   8.317  0.00  0.00     0.163 C 
HETATM   18  O   UNK N   1      29.478  18.241   8.332  0.00  0.00    -0.648 OA
BRANCH  17  19
HETATM   19  O   UNK N   1      27.483  18.274   9.303  0.00  0.00    -0.775 OA
HETATM   20  H   UNK N   1      27.712  18.417  10.200  0.00  0.00     0.167 HD
ENDBRANCH  17  19
ENDBRANCH  16  17
BRANCH  16  21
HETATM   21  N   UNK N   1      26.709  20.338   7.642  0.00  0.00    -0.418 N 
HETATM   22  H   UNK N   1      25.983  19.940   8.238  0.00  0.00     0.150 HD
HETATM   23  H   UNK N   1      26.649  21.315   7.356  0.00  0.00     0.150 HD
ENDBRANCH  16  21
ENDBRANCH  15  16
ENDBRANCH  14  15
ENDBRANCH  13  14
ENDBRANCH  11  13
BRANCH  11  24
HETATM   24  O   UNK N   1      31.427  18.136   4.077  0.00  0.00    -0.350 OA
HETATM   25  H   UNK N   1      31.791  17.914   3.243  0.00  0.00     0.219 HD
ENDBRANCH  11  24
ENDBRANCH   3  10
BRANCH   4  26
HETATM   26  C   UNK N   1      34.978  16.654   9.997  0.00  0.00     0.194 C 
HETATM   27  O   UNK N   1      35.597  17.699   9.903  0.00  0.00    -0.645 OA
BRANCH  26  28
HETATM   28  O   UNK N   1      34.659  16.204  11.227  0.00  0.00    -0.772 OA
HETATM   29  H   UNK N   1      35.115  15.473  11.594  0.00  0.00     0.167 HD
ENDBRANCH  26  28
ENDBRANCH   4  26
BRANCH   2  30
HETATM   30  C   UNK N   1      36.554  14.301   9.022  0.00  0.00     0.216 C 
BRANCH  30  31
HETATM   31  O   UNK N   1      36.211  13.587  10.152  0.00  0.00    -0.317 OA
BRANCH  31  32
HETATM   32  C   UNK N   1      37.054  13.408  11.194  0.00  0.00     0.255 C 
HETATM   33  C   UNK N   1      36.555  13.618  12.582  0.00  0.00     0.126 C 
HETATM   34  O   UNK N   1      38.216  13.077  11.012  0.00  0.00    -0.266 OA
ENDBRANCH  31  32
ENDBRANCH  30  31
ENDBRANCH   2  30
TORSDOF 14
ENDMDL
MODEL 3
REMARK VINA RESULT:      -6.3      3.216      9.353
REMARK  14 active torsions:
REMARK  status: ('A' for Active; 'I' for Inactive)
REMARK    1  A    between atoms: C_3  and  C_2 
REMARK    2  A    between atoms: C_4  and  C_2 
REMARK    3  A    between atoms: C_9  and  C_3 
REMARK    4  A    between atoms: C_10  and  C_4 
REMARK    5  A    between atoms: C_8  and  C_5 
REMARK    6  A    between atoms: O_28  and  C_5 
REMARK    7  A    between atoms: O_28  and  C_7 
REMARK    8  A    between atoms: C_15  and  C_9 
REMARK    9  A    between atoms: C_9  and  N_17 
REMARK   10  A    between atoms: C_10  and  O_22 
REMARK   11  A    between atoms: C_11  and  N_18 
REMARK   12  A    between atoms: C_16  and  C_12 
REMARK   13  A    between atoms: O_25  and  C_15 
REMARK   14  A    between atoms: O_27  and  C_16 
ROOT
HETATM    1  C   UNK N   1      34.903  11.568  10.410  0.00  0.00     0.115 C 
HETATM    2  C   UNK N   1      35.283  11.952  11.826  0.00  0.00    -0.013 C 
HETATM    3  C   UNK N   1      35.043  15.437   9.466  0.00  0.00     0.209 C 
HETATM    4  C   UNK N   1      35.243  13.272  12.191  0.00  0.00     0.117 C 
HETATM    5  C   UNK N   1      35.137  15.481  10.952  0.00  0.00     0.251 C 
HETATM    6  C   UNK N   1      34.590  13.929   9.793  0.00  0.00     0.187 C 
HETATM    7  N   UNK N   1      34.889  14.217  11.164  0.00  0.00    -0.293 N 
HETATM    8  O   UNK N   1      35.678  16.280  11.702  0.00  0.00    -0.271 OA
HETATM    9  S   UNK N   1      35.731  12.657   9.209  0.00  0.00    -0.136 SA
ENDROOT
BRANCH   3  10
HETATM   10  N   UNK N   1      33.957  16.158   8.845  0.00  0.00    -0.359 N 
HETATM   11  C   UNK N   1      34.072  17.439   8.711  0.00  0.00     0.111 C 
ATOM     12  HN  UNK N   1      33.123  15.670   8.521  1.00  0.00     0.162 HD
BRANCH  11  13
HETATM   13  C   UNK N   1      32.964  18.250   8.100  0.00  0.00     0.083 C 
BRANCH  13  14
HETATM   14  C   UNK N   1      31.592  17.605   8.327  0.00  0.00     0.010 C 
BRANCH  14  15
HETATM   15  C   UNK N   1      30.651  18.556   9.061  0.00  0.00     0.036 C 
BRANCH  15  16
HETATM   16  C   UNK N   1      29.202  18.360   8.629  0.00  0.00     0.173 C 
BRANCH  16  17
HETATM   17  C   UNK N   1      28.490  17.354   9.498  0.00  0.00     0.163 C 
HETATM   18  O   UNK N   1      29.044  16.870  10.474  0.00  0.00    -0.648 OA
BRANCH  17  19
HETATM   19  O   UNK N   1      27.240  16.965   9.186  0.00  0.00    -0.775 OA
HETATM   20  H   UNK N   1      26.668  16.627   9.848  0.00  0.00     0.167 HD
ENDBRANCH  17  19
ENDBRANCH  16  17
BRANCH  16  21
HETATM   21  N   UNK N   1      29.178  17.943   7.235  0.00  0.00    -0.418 N 
HETATM   22  H   UNK N   1      29.651  18.498   6.522  0.00  0.00     0.150 HD
HETATM   23  H   UNK N   1      28.685  17.091   6.970  0.00  0.00     0.150 HD
ENDBRANCH  16  21
ENDBRANCH  15  16
ENDBRANCH  14  15
ENDBRANCH  13  14
ENDBRANCH  11  13
BRANCH  11  24
HETATM   24  O   UNK N   1      35.200  18.063   9.128  0.00  0.00    -0.350 OA
HETATM   25  H   UNK N   1      35.459  18.536   9.895  0.00  0.00     0.219 HD
ENDBRANCH  11  24
ENDBRANCH   3  10
BRANCH   4  26
HETATM   26  C   UNK N   1      35.667  13.732  13.561  0.00  0.00     0.194 C 
HETATM   27  O   UNK N   1      34.923  13.593  14.516  0.00  0.00    -0.645 OA
BRANCH  26  28
HETATM   28  O   UNK N   1      36.867  14.311  13.761  0.00  0.00    -0.772 OA
HETATM   29  H   UNK N   1      37.578  13.813  14.113  0.00  0.00     0.167 HD
ENDBRANCH  26  28
ENDBRANCH   4  26
BRANCH   2  30
HETATM   30  C   UNK N   1      35.731  10.849  12.751  0.00  0.00     0.216 C 
BRANCH  30  31
HETATM   31  O   UNK N   1      34.648  10.140  13.228  0.00  0.00    -0.317 OA
BRANCH  31  32
HETATM   32  C   UNK N   1      34.122  10.337  14.459  0.00  0.00     0.255 C 
HETATM   33  C   UNK N   1      34.890   9.902  15.659  0.00  0.00     0.126 C 
HETATM   34  O   UNK N   1      33.030  10.866  14.598  0.00  0.00    -0.266 OA
ENDBRANCH  31  32
ENDBRANCH  30  31
ENDBRANCH   2  30
TORSDOF 14
ENDMDL
MODEL 4
REMARK VINA RESULT:      -6.3      4.837     11.307
REMARK  14 active torsions:
REMARK  status: ('A' for Active; 'I' for Inactive)
REMARK    1  A    between atoms: C_3  and  C_2 
REMARK    2  A    between atoms: C_4  and  C_2 
REMARK    3  A    between atoms: C_9  and  C_3 
REMARK    4  A    between atoms: C_10  and  C_4 
REMARK    5  A    between atoms: C_8  and  C_5 
REMARK    6  A    between atoms: O_28  and  C_5 
REMARK    7  A    between atoms: O_28  and  C_7 
REMARK    8  A    between atoms: C_15  and  C_9 
REMARK    9  A    between atoms: C_9  and  N_17 
REMARK   10  A    between atoms: C_10  and  O_22 
REMARK   11  A    between atoms: C_11  and  N_18 
REMARK   12  A    between atoms: C_16  and  C_12 
REMARK   13  A    between atoms: O_25  and  C_15 
REMARK   14  A    between atoms: O_27  and  C_16 
ROOT
HETATM    1  C   UNK N   1      30.027  15.578   5.565  0.00  0.00     0.115 C 
HETATM    2  C   UNK N   1      30.633  16.251   6.781  0.00  0.00    -0.013 C 
HETATM    3  C   UNK N   1      27.163  18.349   5.623  0.00  0.00     0.209 C 
HETATM    4  C   UNK N   1      29.904  17.201   7.447  0.00  0.00     0.117 C 
HETATM    5  C   UNK N   1      27.846  18.587   6.925  0.00  0.00     0.251 C 
HETATM    6  C   UNK N   1      28.017  16.989   5.714  0.00  0.00     0.187 C 
HETATM    7  N   UNK N   1      28.616  17.533   6.896  0.00  0.00    -0.293 N 
HETATM    8  O   UNK N   1      27.985  19.604   7.588  0.00  0.00    -0.271 OA
HETATM    9  S   UNK N   1      29.293  16.816   4.450  0.00  0.00    -0.136 SA
ENDROOT
BRANCH   3  10
HETATM   10  N   UNK N   1      25.751  18.052   5.656  0.00  0.00    -0.359 N 
HETATM   11  C   UNK N   1      24.973  18.691   4.845  0.00  0.00     0.111 C 
ATOM     12  HN  UNK N   1      25.377  17.357   6.302  1.00  0.00     0.162 HD
BRANCH  11  13
HETATM   13  C   UNK N   1      23.490  18.448   4.851  0.00  0.00     0.083 C 
BRANCH  13  14
HETATM   14  C   UNK N   1      22.872  18.653   3.463  0.00  0.00     0.010 C 
BRANCH  14  15
HETATM   15  C   UNK N   1      21.491  19.294   3.565  0.00  0.00     0.036 C 
BRANCH  15  16
HETATM   16  C   UNK N   1      20.727  19.199   2.249  0.00  0.00     0.173 C 
BRANCH  16  17
HETATM   17  C   UNK N   1      20.962  20.405   1.376  0.00  0.00     0.163 C 
HETATM   18  O   UNK N   1      21.449  21.425   1.841  0.00  0.00    -0.648 OA
BRANCH  17  19
HETATM   19  O   UNK N   1      20.614  20.372   0.076  0.00  0.00    -0.775 OA
HETATM   20  H   UNK N   1      21.062  19.805  -0.522  0.00  0.00     0.167 HD
ENDBRANCH  17  19
ENDBRANCH  16  17
BRANCH  16  21
HETATM   21  N   UNK N   1      19.309  19.041   2.536  0.00  0.00    -0.418 N 
HETATM   22  H   UNK N   1      18.737  18.404   1.983  0.00  0.00     0.150 HD
HETATM   23  H   UNK N   1      18.885  19.572   3.297  0.00  0.00     0.150 HD
ENDBRANCH  16  21
ENDBRANCH  15  16
ENDBRANCH  14  15
ENDBRANCH  13  14
ENDBRANCH  11  13
BRANCH  11  24
HETATM   24  O   UNK N   1      25.495  19.594   3.980  0.00  0.00    -0.350 OA
HETATM   25  H   UNK N   1      26.249  20.150   3.967  0.00  0.00     0.219 HD
ENDBRANCH  11  24
ENDBRANCH   3  10
BRANCH   4  26
HETATM   26  C   UNK N   1      30.466  17.954   8.624  0.00  0.00     0.194 C 
HETATM   27  O   UNK N   1      31.547  18.512   8.541  0.00  0.00    -0.645 OA
BRANCH  26  28
HETATM   28  O   UNK N   1      29.797  18.021   9.792  0.00  0.00    -0.772 OA
HETATM   29  H   UNK N   1      29.832  17.307  10.397  0.00  0.00     0.167 HD
ENDBRANCH  26  28
ENDBRANCH   4  26
BRANCH   2  30
HETATM   30  C   UNK N   1      32.037  15.863   7.166  0.00  0.00     0.216 C 
BRANCH  30  31
HETATM   31  O   UNK N   1      32.888  15.963   6.084  0.00  0.00    -0.317 OA
BRANCH  31  32
HETATM   32  C   UNK N   1      33.427  17.135   5.677  0.00  0.00     0.255 C 
HETATM   33  C   UNK N   1      33.009  17.716   4.371  0.00  0.00     0.126 C 
HETATM   34  O   UNK N   1      34.248  17.721   6.366  0.00  0.00    -0.266 OA
ENDBRANCH  31  32
ENDBRANCH  30  31
ENDBRANCH   2  30
TORSDOF 14
ENDMDL
MODEL 5
REMARK VINA RESULT:      -6.2      4.195      7.069
REMARK  14 active torsions:
REMARK  status: ('A' for Active; 'I' for Inactive)
REMARK    1  A    between atoms: C_3  and  C_2 
REMARK    2  A    between atoms: C_4  and  C_2 
REMARK    3  A    between atoms: C_9  and  C_3 
REMARK    4  A    between atoms: C_10  and  C_4 
REMARK    5  A    between atoms: C_8  and  C_5 
REMARK    6  A    between atoms: O_28  and  C_5 
REMARK    7  A    between atoms: O_28  and  C_7 
REMARK    8  A    between atoms: C_15  and  C_9 
REMARK    9  A    between atoms: C_9  and  N_17 
REMARK   10  A    between atoms: C_10  and  O_22 
REMARK   11  A    between atoms: C_11  and  N_18 
REMARK   12  A    between atoms: C_16  and  C_12 
REMARK   13  A    between atoms: O_25  and  C_15 
REMARK   14  A    between atoms: O_27  and  C_16 
ROOT
HETATM    1  C   UNK N   1      35.272  12.790   8.106  0.00  0.00     0.115 C 
HETATM    2  C   UNK N   1      35.403  14.248   8.503  0.00  0.00    -0.013 C 
HETATM    3  C   UNK N   1      34.697  11.932  11.955  0.00  0.00     0.209 C 
HETATM    4  C   UNK N   1      35.531  14.567   9.829  0.00  0.00     0.117 C 
HETATM    5  C   UNK N   1      35.131  13.356  12.020  0.00  0.00     0.251 C 
HETATM    6  C   UNK N   1      35.279  12.088  10.464  0.00  0.00     0.187 C 
HETATM    7  N   UNK N   1      35.474  13.475  10.766  0.00  0.00    -0.293 N 
HETATM    8  O   UNK N   1      34.866  14.244  12.818  0.00  0.00    -0.271 OA
HETATM    9  S   UNK N   1      34.043  11.952   9.156  0.00  0.00    -0.136 SA
ENDROOT
BRANCH   3  10
HETATM   10  N   UNK N   1      35.474  10.965  12.693  0.00  0.00    -0.359 N 
HETATM   11  C   UNK N   1      34.892  10.314  13.648  0.00  0.00     0.111 C 
ATOM     12  HN  UNK N   1      36.454  10.799  12.468  1.00  0.00     0.162 HD
BRANCH  11  13
HETATM   13  C   UNK N   1      35.654   9.315  14.472  0.00  0.00     0.083 C 
BRANCH  13  14
HETATM   14  C   UNK N   1      35.224   9.341  15.943  0.00  0.00     0.010 C 
BRANCH  14  15
HETATM   15  C   UNK N   1      35.997  10.401  16.724  0.00  0.00     0.036 C 
BRANCH  15  16
HETATM   16  C   UNK N   1      35.099  11.562  17.136  0.00  0.00     0.173 C 
BRANCH  16  17
HETATM   17  C   UNK N   1      35.195  12.714  16.168  0.00  0.00     0.163 C 
HETATM   18  O   UNK N   1      36.256  13.294  15.991  0.00  0.00    -0.648 OA
BRANCH  17  19
HETATM   19  O   UNK N   1      34.097  13.126  15.505  0.00  0.00    -0.775 OA
HETATM   20  H   UNK N   1      33.282  12.675  15.608  0.00  0.00     0.167 HD
ENDBRANCH  17  19
ENDBRANCH  16  17
BRANCH  16  21
HETATM   21  N   UNK N   1      35.465  11.988  18.479  0.00  0.00    -0.418 N 
HETATM   22  H   UNK N   1      34.988  11.600  19.292  0.00  0.00     0.150 HD
HETATM   23  H   UNK N   1      36.204  12.679  18.606  0.00  0.00     0.150 HD
ENDBRANCH  16  21
ENDBRANCH  15  16
ENDBRANCH  14  15
ENDBRANCH  13  14
ENDBRANCH  11  13
BRANCH  11  24
HETATM   24  O   UNK N   1      33.582  10.534  13.914  0.00  0.00    -0.350 OA
HETATM   25  H   UNK N   1      32.774  10.116  13.690  0.00  0.00     0.219 HD
ENDBRANCH  11  24
ENDBRANCH   3  10
BRANCH   4  26
HETATM   26  C   UNK N   1      35.603  15.996  10.300  0.00  0.00     0.194 C 
HETATM   27  O   UNK N   1      36.651  16.455  10.719  0.00  0.00    -0.645 OA
BRANCH  26  28
HETATM   28  O   UNK N   1      34.516  16.792  10.278  0.00  0.00    -0.772 OA
HETATM   29  H   UNK N   1      34.585  17.675   9.971  0.00  0.00     0.167 HD
ENDBRANCH  26  28
ENDBRANCH   4  26
BRANCH   2  30
HETATM   30  C   UNK N   1      35.342  15.278   7.405  0.00  0.00     0.216 C 
BRANCH  30  31
HETATM   31  O   UNK N   1      34.120  15.920   7.404  0.00  0.00    -0.317 OA
BRANCH  31  32
HETATM   32  C   UNK N   1      33.951  17.181   6.946  0.00  0.00     0.255 C 
HETATM   33  C   UNK N   1      32.951  17.440   5.873  0.00  0.00     0.126 C 
HETATM   34  O   UNK N   1      34.606  18.107   7.400  0.00  0.00    -0.266 OA
ENDBRANCH  31  32
ENDBRANCH  30  31
ENDBRANCH   2  30
TORSDOF 14
ENDMDL
MODEL 6
REMARK VINA RESULT:      -6.2      1.981      2.379
REMARK  14 active torsions:
REMARK  status: ('A' for Active; 'I' for Inactive)
REMARK    1  A    between atoms: C_3  and  C_2 
REMARK    2  A    between atoms: C_4  and  C_2 
REMARK    3  A    between atoms: C_9  and  C_3 
REMARK    4  A    between atoms: C_10  and  C_4 
REMARK    5  A    between atoms: C_8  and  C_5 
REMARK    6  A    between atoms: O_28  and  C_5 
REMARK    7  A    between atoms: O_28  and  C_7 
REMARK    8  A    between atoms: C_15  and  C_9 
REMARK    9  A    between atoms: C_9  and  N_17 
REMARK   10  A    between atoms: C_10  and  O_22 
REMARK   11  A    between atoms: C_11  and  N_18 
REMARK   12  A    between atoms: C_16  and  C_12 
REMARK   13  A    between atoms: O_25  and  C_15 
REMARK   14  A    between atoms: O_27  and  C_16 
ROOT
HETATM    1  C   UNK N   1      28.674  17.602   8.361  0.00  0.00     0.115 C 
HETATM    2  C   UNK N   1      28.793  17.516   6.852  0.00  0.00    -0.013 C 
HETATM    3  C   UNK N   1      32.654  17.524   8.545  0.00  0.00     0.209 C 
HETATM    4  C   UNK N   1      30.008  17.212   6.297  0.00  0.00     0.117 C 
HETATM    5  C   UNK N   1      32.407  17.188   7.114  0.00  0.00     0.251 C 
HETATM    6  C   UNK N   1      31.084  17.188   8.631  0.00  0.00     0.187 C 
HETATM    7  N   UNK N   1      31.112  17.049   7.206  0.00  0.00    -0.293 N 
HETATM    8  O   UNK N   1      33.076  17.391   6.112  0.00  0.00    -0.271 OA
HETATM    9  S   UNK N   1      30.035  18.595   9.052  0.00  0.00    -0.136 SA
ENDROOT
BRANCH   3  10
HETATM   10  N   UNK N   1      33.409  16.578   9.331  0.00  0.00    -0.359 N 
HETATM   11  C   UNK N   1      34.634  16.869   9.628  0.00  0.00     0.111 C 
ATOM     12  HN  UNK N   1      32.989  15.703   9.643  1.00  0.00     0.162 HD
BRANCH  11  13
HETATM   13  C   UNK N   1      35.481  15.913  10.418  0.00  0.00     0.083 C 
BRANCH  13  14
HETATM   14  C   UNK N   1      34.718  14.631  10.772  0.00  0.00     0.010 C 
BRANCH  14  15
HETATM   15  C   UNK N   1      35.299  13.425  10.040  0.00  0.00     0.036 C 
BRANCH  15  16
HETATM   16  C   UNK N   1      34.708  13.276   8.642  0.00  0.00     0.173 C 
BRANCH  16  17
HETATM   17  C   UNK N   1      33.240  12.937   8.687  0.00  0.00     0.163 C 
HETATM   18  O   UNK N   1      32.868  11.821   9.017  0.00  0.00    -0.648 OA
BRANCH  17  19
HETATM   19  O   UNK N   1      32.327  13.863   8.341  0.00  0.00    -0.775 OA
HETATM   20  H   UNK N   1      32.587  14.748   8.173  0.00  0.00     0.167 HD
ENDBRANCH  17  19
ENDBRANCH  16  17
BRANCH  16  21
HETATM   21  N   UNK N   1      35.450  12.251   7.922  0.00  0.00    -0.418 N 
HETATM   22  H   UNK N   1      36.217  12.508   7.301  0.00  0.00     0.150 HD
HETATM   23  H   UNK N   1      35.202  11.269   8.042  0.00  0.00     0.150 HD
ENDBRANCH  16  21
ENDBRANCH  15  16
ENDBRANCH  14  15
ENDBRANCH  13  14
ENDBRANCH  11  13
BRANCH  11  24
HETATM   24  O   UNK N   1      35.165  18.047   9.221  0.00  0.00    -0.350 OA
HETATM   25  H   UNK N   1      35.935  18.309   8.755  0.00  0.00     0.219 HD
ENDBRANCH  11  24
ENDBRANCH   3  10
BRANCH   4  26
HETATM   26  C   UNK N   1      30.212  17.170   4.805  0.00  0.00     0.194 C 
HETATM   27  O   UNK N   1      29.950  16.161   4.174  0.00  0.00    -0.645 OA
BRANCH  26  28
HETATM   28  O   UNK N   1      30.696  18.237   4.139  0.00  0.00    -0.772 OA
HETATM   29  H   UNK N   1      30.948  19.010   4.606  0.00  0.00     0.167 HD
ENDBRANCH  26  28
ENDBRANCH   4  26
BRANCH   2  30
HETATM   30  C   UNK N   1      27.561  17.817   6.037  0.00  0.00     0.216 C 
BRANCH  30  31
HETATM   31  O   UNK N   1      27.122  19.104   6.271  0.00  0.00    -0.317 OA
BRANCH  31  32
HETATM   32  C   UNK N   1      27.578  20.174   5.581  0.00  0.00     0.255 C 
HETATM   33  C   UNK N   1      27.276  21.546   6.077  0.00  0.00     0.126 C 
HETATM   34  O   UNK N   1      28.234  20.031   4.561  0.00  0.00    -0.266 OA
ENDBRANCH  31  32
ENDBRANCH  30  31
ENDBRANCH   2  30
TORSDOF 14
ENDMDL
MODEL 7
REMARK VINA RESULT:      -6.1      3.885      9.219
REMARK  14 active torsions:
REMARK  status: ('A' for Active; 'I' for Inactive)
REMARK    1  A    between atoms: C_3  and  C_2 
REMARK    2  A    between atoms: C_4  and  C_2 
REMARK    3  A    between atoms: C_9  and  C_3 
REMARK    4  A    between atoms: C_10  and  C_4 
REMARK    5  A    between atoms: C_8  and  C_5 
REMARK    6  A    between atoms: O_28  and  C_5 
REMARK    7  A    between atoms: O_28  and  C_7 
REMARK    8  A    between atoms: C_15  and  C_9 
REMARK    9  A    between atoms: C_9  and  N_17 
REMARK   10  A    between atoms: C_10  and  O_22 
REMARK   11  A    between atoms: C_11  and  N_18 
REMARK   12  A    between atoms: C_16  and  C_12 
REMARK   13  A    between atoms: O_25  and  C_15 
REMARK   14  A    between atoms: O_27  and  C_16 
ROOT
HETATM    1  C   UNK N   1      34.965  11.446  10.501  0.00  0.00     0.115 C 
HETATM    2  C   UNK N   1      35.347  11.855  11.910  0.00  0.00    -0.013 C 
HETATM    3  C   UNK N   1      35.041  15.304   9.504  0.00  0.00     0.209 C 
HETATM    4  C   UNK N   1      35.289  13.180  12.257  0.00  0.00     0.117 C 
HETATM    5  C   UNK N   1      35.142  15.369  10.988  0.00  0.00     0.251 C 
HETATM    6  C   UNK N   1      34.613  13.793   9.854  0.00  0.00     0.187 C 
HETATM    7  N   UNK N   1      34.915  14.105  11.219  0.00  0.00    -0.293 N 
HETATM    8  O   UNK N   1      35.674  16.187  11.724  0.00  0.00    -0.271 OA
HETATM    9  S   UNK N   1      35.770  12.532   9.281  0.00  0.00    -0.136 SA
ENDROOT
BRANCH   3  10
HETATM   10  N   UNK N   1      33.941  15.999   8.879  0.00  0.00    -0.359 N 
HETATM   11  C   UNK N   1      34.013  17.286   8.772  0.00  0.00     0.111 C 
ATOM     12  HN  UNK N   1      33.128  15.490   8.533  1.00  0.00     0.162 HD
BRANCH  11  13
HETATM   13  C   UNK N   1      32.889  18.070   8.158  0.00  0.00     0.083 C 
BRANCH  13  14
HETATM   14  C   UNK N   1      32.140  17.259   7.094  0.00  0.00     0.010 C 
BRANCH  14  15
HETATM   15  C   UNK N   1      32.809  17.392   5.729  0.00  0.00     0.036 C 
BRANCH  15  16
HETATM   16  C   UNK N   1      33.032  16.032   5.077  0.00  0.00     0.173 C 
BRANCH  16  17
HETATM   17  C   UNK N   1      34.126  15.255   5.764  0.00  0.00     0.163 C 
HETATM   18  O   UNK N   1      33.913  14.133   6.201  0.00  0.00    -0.648 OA
BRANCH  17  19
HETATM   19  O   UNK N   1      35.344  15.805   5.920  0.00  0.00    -0.775 OA
HETATM   20  H   UNK N   1      35.826  15.676   6.713  0.00  0.00     0.167 HD
ENDBRANCH  17  19
ENDBRANCH  16  17
BRANCH  16  21
HETATM   21  N   UNK N   1      33.349  16.230   3.670  0.00  0.00    -0.418 N 
HETATM   22  H   UNK N   1      33.559  15.432   3.070  0.00  0.00     0.150 HD
HETATM   23  H   UNK N   1      33.359  17.173   3.281  0.00  0.00     0.150 HD
ENDBRANCH  16  21
ENDBRANCH  15  16
ENDBRANCH  14  15
ENDBRANCH  13  14
ENDBRANCH  11  13
BRANCH  11  24
HETATM   24  O   UNK N   1      35.113  17.940   9.218  0.00  0.00    -0.350 OA
HETATM   25  H   UNK N   1      35.495  18.112  10.057  0.00  0.00     0.219 HD
ENDBRANCH  11  24
ENDBRANCH   3  10
BRANCH   4  26
HETATM   26  C   UNK N   1      35.713  13.665  13.619  0.00  0.00     0.194 C 
HETATM   27  O   UNK N   1      34.963  13.558  14.573  0.00  0.00    -0.645 OA
BRANCH  26  28
HETATM   28  O   UNK N   1      36.920  14.233  13.811  0.00  0.00    -0.772 OA
HETATM   29  H   UNK N   1      37.655  13.706  14.058  0.00  0.00     0.167 HD
ENDBRANCH  26  28
ENDBRANCH   4  26
BRANCH   2  30
HETATM   30  C   UNK N   1      35.817  10.773  12.848  0.00  0.00     0.216 C 
BRANCH  30  31
HETATM   31  O   UNK N   1      34.748  10.045  13.331  0.00  0.00    -0.317 OA
BRANCH  31  32
HETATM   32  C   UNK N   1      34.144  10.318  14.509  0.00  0.00     0.255 C 
HETATM   33  C   UNK N   1      34.839   9.978  15.782  0.00  0.00     0.126 C 
HETATM   34  O   UNK N   1      33.040  10.840  14.543  0.00  0.00    -0.266 OA
ENDBRANCH  31  32
ENDBRANCH  30  31
ENDBRANCH   2  30
TORSDOF 14
ENDMDL
MODEL 8
REMARK VINA RESULT:      -6.1      3.066      4.770
REMARK  14 active torsions:
REMARK  status: ('A' for Active; 'I' for Inactive)
REMARK    1  A    between atoms: C_3  and  C_2 
REMARK    2  A    between atoms: C_4  and  C_2 
REMARK    3  A    between atoms: C_9  and  C_3 
REMARK    4  A    between atoms: C_10  and  C_4 
REMARK    5  A    between atoms: C_8  and  C_5 
REMARK    6  A    between atoms: O_28  and  C_5 
REMARK    7  A    between atoms: O_28  and  C_7 
REMARK    8  A    between atoms: C_15  and  C_9 
REMARK    9  A    between atoms: C_9  and  N_17 
REMARK   10  A    between atoms: C_10  and  O_22 
REMARK   11  A    between atoms: C_11  and  N_18 
REMARK   12  A    between atoms: C_16  and  C_12 
REMARK   13  A    between atoms: O_25  and  C_15 
REMARK   14  A    between atoms: O_27  and  C_16 
ROOT
HETATM    1  C   UNK N   1      33.989  15.076   5.899  0.00  0.00     0.115 C 
HETATM    2  C   UNK N   1      33.971  16.523   6.351  0.00  0.00    -0.013 C 
HETATM    3  C   UNK N   1      34.465  14.030   9.715  0.00  0.00     0.209 C 
HETATM    4  C   UNK N   1      34.349  16.824   7.634  0.00  0.00     0.117 C 
HETATM    5  C   UNK N   1      34.667  15.504   9.775  0.00  0.00     0.251 C 
HETATM    6  C   UNK N   1      34.654  14.323   8.145  0.00  0.00     0.187 C 
HETATM    7  N   UNK N   1      34.687  15.714   8.486  0.00  0.00    -0.293 N 
HETATM    8  O   UNK N   1      34.454  16.311  10.667  0.00  0.00    -0.271 OA
HETATM    9  S   UNK N   1      33.187  14.011   7.140  0.00  0.00    -0.136 SA
ENDROOT
BRANCH   3  10
HETATM   10  N   UNK N   1      35.537  13.191  10.196  0.00  0.00    -0.359 N 
HETATM   11  C   UNK N   1      35.447  12.711  11.394  0.00  0.00     0.111 C 
ATOM     12  HN  UNK N   1      36.342  12.982   9.607  1.00  0.00     0.162 HD
BRANCH  11  13
HETATM   13  C   UNK N   1      36.543  11.855  11.962  0.00  0.00     0.083 C 
BRANCH  13  14
HETATM   14  C   UNK N   1      37.353  12.599  13.031  0.00  0.00     0.010 C 
BRANCH  14  15
HETATM   15  C   UNK N   1      37.016  12.090  14.430  0.00  0.00     0.036 C 
BRANCH  15  16
HETATM   16  C   UNK N   1      36.630  13.230  15.366  0.00  0.00     0.173 C 
BRANCH  16  17
HETATM   17  C   UNK N   1      35.200  13.116  15.829  0.00  0.00     0.163 C 
HETATM   18  O   UNK N   1      34.898  13.363  16.987  0.00  0.00    -0.648 OA
BRANCH  17  19
HETATM   19  O   UNK N   1      34.246  12.715  14.968  0.00  0.00    -0.775 OA
HETATM   20  H   UNK N   1      33.341  12.869  15.156  0.00  0.00     0.167 HD
ENDBRANCH  17  19
ENDBRANCH  16  17
BRANCH  16  21
HETATM   21  N   UNK N   1      36.849  14.497  14.682  0.00  0.00    -0.418 N 
HETATM   22  H   UNK N   1      37.713  14.664  14.168  0.00  0.00     0.150 HD
HETATM   23  H   UNK N   1      36.131  15.221  14.716  0.00  0.00     0.150 HD
ENDBRANCH  16  21
ENDBRANCH  15  16
ENDBRANCH  14  15
ENDBRANCH  13  14
ENDBRANCH  11  13
BRANCH  11  24
HETATM   24  O   UNK N   1      34.356  12.983  12.150  0.00  0.00    -0.350 OA
HETATM   25  H   UNK N   1      33.916  13.760  12.435  0.00  0.00     0.219 HD
ENDBRANCH  11  24
ENDBRANCH   3  10
BRANCH   4  26
HETATM   26  C   UNK N   1      34.297  18.231   8.169  0.00  0.00     0.194 C 
HETATM   27  O   UNK N   1      33.239  18.715   8.531  0.00  0.00    -0.645 OA
BRANCH  26  28
HETATM   28  O   UNK N   1      35.411  18.986   8.251  0.00  0.00    -0.772 OA
HETATM   29  H   UNK N   1      35.595  19.627   7.592  0.00  0.00     0.167 HD
ENDBRANCH  26  28
ENDBRANCH   4  26
BRANCH   2  30
HETATM   30  C   UNK N   1      33.492  17.557   5.364  0.00  0.00     0.216 C 
BRANCH  30  31
HETATM   31  O   UNK N   1      32.114  17.555   5.284  0.00  0.00    -0.317 OA
BRANCH  31  32
HETATM   32  C   UNK N   1      31.443  17.250   4.150  0.00  0.00     0.255 C 
HETATM   33  C   UNK N   1      32.208  16.958   2.906  0.00  0.00     0.126 C 
HETATM   34  O   UNK N   1      30.222  17.209   4.135  0.00  0.00    -0.266 OA
ENDBRANCH  31  32
ENDBRANCH  30  31
ENDBRANCH   2  30
TORSDOF 14
ENDMDL
MODEL 9
REMARK VINA RESULT:      -6.1      2.684      8.665
REMARK  14 active torsions:
REMARK  status: ('A' for Active; 'I' for Inactive)
REMARK    1  A    between atoms: C_3  and  C_2 
REMARK    2  A    between atoms: C_4  and  C_2 
REMARK    3  A    between atoms: C_9  and  C_3 
REMARK    4  A    between atoms: C_10  and  C_4 
REMARK    5  A    between atoms: C_8  and  C_5 
REMARK    6  A    between atoms: O_28  and  C_5 
REMARK    7  A    between atoms: O_28  and  C_7 
REMARK    8  A    between atoms: C_15  and  C_9 
REMARK    9  A    between atoms: C_9  and  N_17 
REMARK   10  A    between atoms: C_10  and  O_22 
REMARK   11  A    between atoms: C_11  and  N_18 
REMARK   12  A    between atoms: C_16  and  C_12 
REMARK   13  A    between atoms: O_25  and  C_15 
REMARK   14  A    between atoms: O_27  and  C_16 
ROOT
HETATM    1  C   UNK N   1      34.031  12.694   9.426  0.00  0.00     0.115 C 
HETATM    2  C   UNK N   1      34.997  13.334  10.403  0.00  0.00    -0.013 C 
HETATM    3  C   UNK N   1      33.436  16.308   7.855  0.00  0.00     0.209 C 
HETATM    4  C   UNK N   1      35.036  14.700  10.503  0.00  0.00     0.117 C 
HETATM    5  C   UNK N   1      34.207  16.633   9.088  0.00  0.00     0.251 C 
HETATM    6  C   UNK N   1      33.297  14.900   8.619  0.00  0.00     0.187 C 
HETATM    7  N   UNK N   1      34.178  15.438   9.613  0.00  0.00    -0.293 N 
HETATM    8  O   UNK N   1      34.974  17.550   9.341  0.00  0.00    -0.271 OA
HETATM    9  S   UNK N   1      34.125  13.518   7.805  0.00  0.00    -0.136 SA
ENDROOT
BRANCH   3  10
HETATM   10  N   UNK N   1      32.137  16.919   7.701  0.00  0.00    -0.359 N 
HETATM   11  C   UNK N   1      31.592  16.908   6.528  0.00  0.00     0.111 C 
ATOM     12  HN  UNK N   1      31.663  17.349   8.495  1.00  0.00     0.162 HD
BRANCH  11  13
HETATM   13  C   UNK N   1      30.255  17.553   6.297  0.00  0.00     0.083 C 
BRANCH  13  14
HETATM   14  C   UNK N   1      29.107  16.541   6.397  0.00  0.00     0.010 C 
BRANCH  14  15
HETATM   15  C   UNK N   1      27.989  17.064   7.294  0.00  0.00     0.036 C 
BRANCH  15  16
HETATM   16  C   UNK N   1      28.512  18.064   8.320  0.00  0.00     0.173 C 
BRANCH  16  17
HETATM   17  C   UNK N   1      28.973  17.381   9.582  0.00  0.00     0.163 C 
HETATM   18  O   UNK N   1      28.181  16.779  10.291  0.00  0.00    -0.648 OA
BRANCH  17  19
HETATM   19  O   UNK N   1      30.267  17.452   9.949  0.00  0.00    -0.775 OA
HETATM   20  H   UNK N   1      30.635  18.263  10.241  0.00  0.00     0.167 HD
ENDBRANCH  17  19
ENDBRANCH  16  17
BRANCH  16  21
HETATM   21  N   UNK N   1      27.464  19.032   8.613  0.00  0.00    -0.418 N 
HETATM   22  H   UNK N   1      27.194  19.224   9.577  0.00  0.00     0.150 HD
HETATM   23  H   UNK N   1      26.999  19.521   7.848  0.00  0.00     0.150 HD
ENDBRANCH  16  21
ENDBRANCH  15  16
ENDBRANCH  14  15
ENDBRANCH  13  14
ENDBRANCH  11  13
BRANCH  11  24
HETATM   24  O   UNK N   1      32.230  16.312   5.493  0.00  0.00    -0.350 OA
HETATM   25  H   UNK N   1      32.942  16.537   4.926  0.00  0.00     0.219 HD
ENDBRANCH  11  24
ENDBRANCH   3  10
BRANCH   4  26
HETATM   26  C   UNK N   1      36.014  15.404  11.406  0.00  0.00     0.194 C 
HETATM   27  O   UNK N   1      35.842  15.414  12.613  0.00  0.00    -0.645 OA
BRANCH  26  28
HETATM   28  O   UNK N   1      37.089  16.043  10.905  0.00  0.00    -0.772 OA
HETATM   29  H   UNK N   1      37.634  16.560  11.466  0.00  0.00     0.167 HD
ENDBRANCH  26  28
ENDBRANCH   4  26
BRANCH   2  30
HETATM   30  C   UNK N   1      35.902  12.420  11.189  0.00  0.00     0.216 C 
BRANCH  30  31
HETATM   31  O   UNK N   1      35.334  12.093  12.403  0.00  0.00    -0.317 OA
BRANCH  31  32
HETATM   32  C   UNK N   1      34.745  10.900  12.644  0.00  0.00     0.255 C 
HETATM   33  C   UNK N   1      33.899  10.734  13.858  0.00  0.00     0.126 C 
HETATM   34  O   UNK N   1      34.896   9.959  11.879  0.00  0.00    -0.266 OA
ENDBRANCH  31  32
ENDBRANCH  30  31
ENDBRANCH   2  30
TORSDOF 14
ENDMDL
