MODEL 1
REMARK VINA RESULT:      -4.6      0.000      0.000
REMARK  7 active torsions:
REMARK  status: ('A' for Active; 'I' for Inactive)
REMARK    1  A    between atoms: C_2  and  C_3 
REMARK    2  A    between atoms: C_3  and  O_4 
REMARK    3  A    between atoms: C_3  and  C_9 
REMARK    4  A    between atoms: O_4  and  P_5 
REMARK    5  A    between atoms: P_5  and  O_6 
REMARK    6  A    between atoms: P_5  and  O_7 
REMARK    7  A    between atoms: C_9  and  O_10 
ROOT
HETATM    1  C   UNK N   1      33.808  16.877   8.448  0.00  0.00     0.230 C 
ENDROOT
BRANCH   1   2
HETATM    2  C   UNK N   1      32.306  16.711   8.222  0.00  0.00     0.039 C 
HETATM    3  C   UNK N   1      31.546  17.979   8.570  0.00  0.00     0.008 C 
ENDBRANCH   1   2
BRANCH   1   4
HETATM    4  O   UNK N   1      34.048  17.030   9.822  0.00  0.00    -0.281 OA
BRANCH   4   5
HETATM    5  P   UNK N   1      35.320  15.905  10.213  0.00  0.00     0.391 P 
HETATM    6  O   UNK N   1      35.926  17.267  10.647  0.00  0.00    -0.632 OA
BRANCH   5   7
HETATM    7  O   UNK N   1      35.789  15.640  11.863  0.00  0.00    -0.307 OA
HETATM    8  H   UNK N   1      35.155  15.382  12.551  0.00  0.00     0.222 HD
ENDBRANCH   5   7
BRANCH   5   9
HETATM    9  O   UNK N   1      33.928  15.543  11.186  0.00  0.00    -0.307 OA
HETATM   10  H   UNK N   1      32.996  15.502  10.923  0.00  0.00     0.222 HD
ENDBRANCH   5   9
ENDBRANCH   4   5
ENDBRANCH   1   4
BRANCH   1  11
HETATM   11  C   UNK N   1      34.394  18.048   7.693  0.00  0.00     0.170 C 
HETATM   12  O   UNK N   1      34.344  18.067   6.474  0.00  0.00    -0.648 OA
BRANCH  11  13
HETATM   13  O   UNK N   1      34.965  19.078   8.346  0.00  0.00    -0.774 OA
HETATM   14  H   UNK N   1      35.687  19.591   8.038  0.00  0.00     0.167 HD
ENDBRANCH  11  13
ENDBRANCH   1  11
TORSDOF 7
ENDMDL
MODEL 2
REMARK VINA RESULT:      -4.2      1.264      1.490
REMARK  7 active torsions:
REMARK  status: ('A' for Active; 'I' for Inactive)
REMARK    1  A    between atoms: C_2  and  C_3 
REMARK    2  A    between atoms: C_3  and  O_4 
REMARK    3  A    between atoms: C_3  and  C_9 
REMARK    4  A    between atoms: O_4  and  P_5 
REMARK    5  A    between atoms: P_5  and  O_6 
REMARK    6  A    between atoms: P_5  and  O_7 
REMARK    7  A    between atoms: C_9  and  O_10 
ROOT
HETATM    1  C   UNK N   1      32.984  16.643   7.625  0.00  0.00     0.230 C 
ENDROOT
BRANCH   1   2
HETATM    2  C   UNK N   1      31.578  16.810   7.052  0.00  0.00     0.039 C 
HETATM    3  C   UNK N   1      30.684  17.602   7.991  0.00  0.00     0.008 C 
ENDBRANCH   1   2
BRANCH   1   4
HETATM    4  O   UNK N   1      32.914  16.691   9.026  0.00  0.00    -0.281 OA
BRANCH   4   5
HETATM    5  P   UNK N   1      33.695  15.240   9.594  0.00  0.00     0.391 P 
HETATM    6  O   UNK N   1      34.547  16.362  10.247  0.00  0.00    -0.632 OA
BRANCH   5   7
HETATM    7  O   UNK N   1      33.685  14.834  11.281  0.00  0.00    -0.307 OA
HETATM    8  H   UNK N   1      34.281  14.170  11.662  0.00  0.00     0.222 HD
ENDBRANCH   5   7
BRANCH   5   9
HETATM    9  O   UNK N   1      32.075  15.292  10.218  0.00  0.00    -0.307 OA
HETATM   10  H   UNK N   1      31.751  15.023  11.092  0.00  0.00     0.222 HD
ENDBRANCH   5   9
ENDBRANCH   4   5
ENDBRANCH   1   4
BRANCH   1  11
HETATM   11  C   UNK N   1      33.955  17.688   7.125  0.00  0.00     0.170 C 
HETATM   12  O   UNK N   1      34.162  17.796   5.927  0.00  0.00    -0.648 OA
BRANCH  11  13
HETATM   13  O   UNK N   1      34.592  18.508   7.982  0.00  0.00    -0.774 OA
HETATM   14  H   UNK N   1      34.466  18.538   8.910  0.00  0.00     0.167 HD
ENDBRANCH  11  13
ENDBRANCH   1  11
TORSDOF 7
ENDMDL
MODEL 3
REMARK VINA RESULT:      -4.2      2.655      3.834
REMARK  7 active torsions:
REMARK  status: ('A' for Active; 'I' for Inactive)
REMARK    1  A    between atoms: C_2  and  C_3 
REMARK    2  A    between atoms: C_3  and  O_4 
REMARK    3  A    between atoms: C_3  and  C_9 
REMARK    4  A    between atoms: O_4  and  P_5 
REMARK    5  A    between atoms: P_5  and  O_6 
REMARK    6  A    between atoms: P_5  and  O_7 
REMARK    7  A    between atoms: C_9  and  O_10 
ROOT
HETATM    1  C   UNK N   1      33.885  17.255   8.951  0.00  0.00     0.230 C 
ENDROOT
BRANCH   1   2
HETATM    2  C   UNK N   1      34.862  16.205   9.477  0.00  0.00     0.039 C 
HETATM    3  C   UNK N   1      35.373  16.564  10.862  0.00  0.00     0.008 C 
ENDBRANCH   1   2
BRANCH   1   4
HETATM    4  O   UNK N   1      32.816  16.604   8.314  0.00  0.00    -0.281 OA
BRANCH   4   5
HETATM    5  P   UNK N   1      31.451  17.678   8.453  0.00  0.00     0.391 P 
HETATM    6  O   UNK N   1      31.402  17.258   6.959  0.00  0.00    -0.632 OA
BRANCH   5   7
HETATM    7  O   UNK N   1      29.834  17.082   8.245  0.00  0.00    -0.307 OA
HETATM    8  H   UNK N   1      29.592  16.158   8.416  0.00  0.00     0.222 HD
ENDBRANCH   5   7
BRANCH   5   9
HETATM    9  O   UNK N   1      31.183  16.290   9.463  0.00  0.00    -0.307 OA
HETATM   10  H   UNK N   1      30.932  16.258  10.398  0.00  0.00     0.222 HD
ENDBRANCH   5   9
ENDBRANCH   4   5
ENDBRANCH   1   4
BRANCH   1  11
HETATM   11  C   UNK N   1      34.526  18.236   7.998  0.00  0.00     0.170 C 
HETATM   12  O   UNK N   1      35.116  19.209   8.440  0.00  0.00    -0.648 OA
BRANCH  11  13
HETATM   13  O   UNK N   1      34.464  18.051   6.665  0.00  0.00    -0.774 OA
HETATM   14  H   UNK N   1      33.688  17.869   6.172  0.00  0.00     0.167 HD
ENDBRANCH  11  13
ENDBRANCH   1  11
TORSDOF 7
ENDMDL
MODEL 4
REMARK VINA RESULT:      -4.1     12.923     14.234
REMARK  7 active torsions:
REMARK  status: ('A' for Active; 'I' for Inactive)
REMARK    1  A    between atoms: C_2  and  C_3 
REMARK    2  A    between atoms: C_3  and  O_4 
REMARK    3  A    between atoms: C_3  and  C_9 
REMARK    4  A    between atoms: O_4  and  P_5 
REMARK    5  A    between atoms: P_5  and  O_6 
REMARK    6  A    between atoms: P_5  and  O_7 
REMARK    7  A    between atoms: C_9  and  O_10 
ROOT
HETATM    1  C   UNK N   1      21.758  12.415   9.839  0.00  0.00     0.230 C 
ENDROOT
BRANCH   1   2
HETATM    2  C   UNK N   1      22.762  13.556   9.681  0.00  0.00     0.039 C 
HETATM    3  C   UNK N   1      24.173  13.032   9.474  0.00  0.00     0.008 C 
ENDBRANCH   1   2
BRANCH   1   4
HETATM    4  O   UNK N   1      20.559  12.772   9.203  0.00  0.00    -0.281 OA
BRANCH   4   5
HETATM    5  P   UNK N   1      20.725  14.454   8.778  0.00  0.00     0.391 P 
HETATM    6  O   UNK N   1      20.409  13.788   7.411  0.00  0.00    -0.632 OA
BRANCH   5   7
HETATM    7  O   UNK N   1      19.364  15.354   8.186  0.00  0.00    -0.307 OA
HETATM    8  H   UNK N   1      19.339  16.325   8.190  0.00  0.00     0.222 HD
ENDBRANCH   5   7
BRANCH   5   9
HETATM    9  O   UNK N   1      19.370  14.273   9.849  0.00  0.00    -0.307 OA
HETATM   10  H   UNK N   1      18.903  14.953  10.358  0.00  0.00     0.222 HD
ENDBRANCH   5   9
ENDBRANCH   4   5
ENDBRANCH   1   4
BRANCH   1  11
HETATM   11  C   UNK N   1      21.485  12.063  11.283  0.00  0.00     0.170 C 
HETATM   12  O   UNK N   1      20.353  12.173  11.727  0.00  0.00    -0.648 OA
BRANCH  11  13
HETATM   13  O   UNK N   1      22.470  11.621  12.088  0.00  0.00    -0.774 OA
HETATM   14  H   UNK N   1      22.807  12.069  12.839  0.00  0.00     0.167 HD
ENDBRANCH  11  13
ENDBRANCH   1  11
TORSDOF 7
ENDMDL
MODEL 5
REMARK VINA RESULT:      -4.0      1.725      2.769
REMARK  7 active torsions:
REMARK  status: ('A' for Active; 'I' for Inactive)
REMARK    1  A    between atoms: C_2  and  C_3 
REMARK    2  A    between atoms: C_3  and  O_4 
REMARK    3  A    between atoms: C_3  and  C_9 
REMARK    4  A    between atoms: O_4  and  P_5 
REMARK    5  A    between atoms: P_5  and  O_6 
REMARK    6  A    between atoms: P_5  and  O_7 
REMARK    7  A    between atoms: C_9  and  O_10 
ROOT
HETATM    1  C   UNK N   1      33.343  16.576   9.216  0.00  0.00     0.230 C 
ENDROOT
BRANCH   1   2
HETATM    2  C   UNK N   1      32.852  17.567   8.162  0.00  0.00     0.039 C 
HETATM    3  C   UNK N   1      31.434  18.030   8.450  0.00  0.00     0.008 C 
ENDBRANCH   1   2
BRANCH   1   4
HETATM    4  O   UNK N   1      34.683  16.256   8.951  0.00  0.00    -0.281 OA
BRANCH   4   5
HETATM    5  P   UNK N   1      35.361  15.739  10.471  0.00  0.00     0.391 P 
HETATM    6  O   UNK N   1      36.194  14.934   9.436  0.00  0.00    -0.632 OA
BRANCH   5   7
HETATM    7  O   UNK N   1      37.004  16.119  10.880  0.00  0.00    -0.307 OA
HETATM    8  H   UNK N   1      37.519  15.596  11.515  0.00  0.00     0.222 HD
ENDBRANCH   5   7
BRANCH   5   9
HETATM    9  O   UNK N   1      35.656  17.439  10.270  0.00  0.00    -0.307 OA
HETATM   10  H   UNK N   1      35.334  18.179  10.807  0.00  0.00     0.222 HD
ENDBRANCH   5   9
ENDBRANCH   4   5
ENDBRANCH   1   4
BRANCH   1  11
HETATM   11  C   UNK N   1      32.516  15.312   9.272  0.00  0.00     0.170 C 
HETATM   12  O   UNK N   1      32.559  14.522   8.343  0.00  0.00    -0.648 OA
BRANCH  11  13
HETATM   13  O   UNK N   1      31.737  15.040  10.336  0.00  0.00    -0.774 OA
HETATM   14  H   UNK N   1      30.858  15.338  10.463  0.00  0.00     0.167 HD
ENDBRANCH  11  13
ENDBRANCH   1  11
TORSDOF 7
ENDMDL
MODEL 6
REMARK VINA RESULT:      -3.9     13.957     15.273
REMARK  7 active torsions:
REMARK  status: ('A' for Active; 'I' for Inactive)
REMARK    1  A    between atoms: C_2  and  C_3 
REMARK    2  A    between atoms: C_3  and  O_4 
REMARK    3  A    between atoms: C_3  and  C_9 
REMARK    4  A    between atoms: O_4  and  P_5 
REMARK    5  A    between atoms: P_5  and  O_6 
REMARK    6  A    between atoms: P_5  and  O_7 
REMARK    7  A    between atoms: C_9  and  O_10 
ROOT
HETATM    1  C   UNK N   1      28.896  24.175  -3.765  0.00  0.00     0.230 C 
ENDROOT
BRANCH   1   2
HETATM    2  C   UNK N   1      29.137  24.153  -5.273  0.00  0.00     0.039 C 
HETATM    3  C   UNK N   1      28.288  23.096  -5.958  0.00  0.00     0.008 C 
ENDBRANCH   1   2
BRANCH   1   4
HETATM    4  O   UNK N   1      29.249  22.927  -3.228  0.00  0.00    -0.281 OA
BRANCH   4   5
HETATM    5  P   UNK N   1      30.983  22.954  -3.055  0.00  0.00     0.391 P 
HETATM    6  O   UNK N   1      30.492  23.153  -1.595  0.00  0.00    -0.632 OA
BRANCH   5   7
HETATM    7  O   UNK N   1      31.802  21.705  -2.171  0.00  0.00    -0.307 OA
HETATM    8  H   UNK N   1      32.574  21.235  -2.525  0.00  0.00     0.222 HD
ENDBRANCH   5   7
BRANCH   5   9
HETATM    9  O   UNK N   1      30.498  21.389  -3.630  0.00  0.00    -0.307 OA
HETATM   10  H   UNK N   1      29.732  20.856  -3.369  0.00  0.00     0.222 HD
ENDBRANCH   5   9
ENDBRANCH   4   5
ENDBRANCH   1   4
BRANCH   1  11
HETATM   11  C   UNK N   1      27.467  24.503  -3.398  0.00  0.00     0.170 C 
HETATM   12  O   UNK N   1      26.853  23.764  -2.645  0.00  0.00    -0.648 OA
BRANCH  11  13
HETATM   13  O   UNK N   1      26.862  25.603  -3.884  0.00  0.00    -0.774 OA
HETATM   14  H   UNK N   1      27.248  26.454  -3.960  0.00  0.00     0.167 HD
ENDBRANCH  11  13
ENDBRANCH   1  11
TORSDOF 7
ENDMDL
MODEL 7
REMARK VINA RESULT:      -3.9     14.022     14.585
REMARK  7 active torsions:
REMARK  status: ('A' for Active; 'I' for Inactive)
REMARK    1  A    between atoms: C_2  and  C_3 
REMARK    2  A    between atoms: C_3  and  O_4 
REMARK    3  A    between atoms: C_3  and  C_9 
REMARK    4  A    between atoms: O_4  and  P_5 
REMARK    5  A    between atoms: P_5  and  O_6 
REMARK    6  A    between atoms: P_5  and  O_7 
REMARK    7  A    between atoms: C_9  and  O_10 
ROOT
HETATM    1  C   UNK N   1      20.367  16.394   7.449  0.00  0.00     0.230 C 
ENDROOT
BRANCH   1   2
HETATM    2  C   UNK N   1      20.249  16.495   5.929  0.00  0.00     0.039 C 
HETATM    3  C   UNK N   1      18.942  15.902   5.431  0.00  0.00     0.008 C 
ENDBRANCH   1   2
BRANCH   1   4
HETATM    4  O   UNK N   1      19.655  15.267   7.887  0.00  0.00    -0.281 OA
BRANCH   4   5
HETATM    5  P   UNK N   1      20.629  14.542   9.137  0.00  0.00     0.391 P 
HETATM    6  O   UNK N   1      19.210  14.536   9.767  0.00  0.00    -0.632 OA
BRANCH   5   7
HETATM    7  O   UNK N   1      20.389  12.885   9.596  0.00  0.00    -0.307 OA
HETATM    8  H   UNK N   1      19.742  12.311   9.156  0.00  0.00     0.222 HD
ENDBRANCH   5   7
BRANCH   5   9
HETATM    9  O   UNK N   1      20.656  13.517   7.735  0.00  0.00    -0.307 OA
HETATM   10  H   UNK N   1      21.399  13.309   7.149  0.00  0.00     0.222 HD
ENDBRANCH   5   9
ENDBRANCH   4   5
ENDBRANCH   1   4
BRANCH   1  11
HETATM   11  C   UNK N   1      19.866  17.626   8.165  0.00  0.00     0.170 C 
HETATM   12  O   UNK N   1      20.430  18.695   7.994  0.00  0.00    -0.648 OA
BRANCH  11  13
HETATM   13  O   UNK N   1      18.800  17.566   8.986  0.00  0.00    -0.774 OA
HETATM   14  H   UNK N   1      18.462  16.791   9.390  0.00  0.00     0.167 HD
ENDBRANCH  11  13
ENDBRANCH   1  11
TORSDOF 7
ENDMDL
MODEL 8
REMARK VINA RESULT:      -3.8      6.046      7.493
REMARK  7 active torsions:
REMARK  status: ('A' for Active; 'I' for Inactive)
REMARK    1  A    between atoms: C_2  and  C_3 
REMARK    2  A    between atoms: C_3  and  O_4 
REMARK    3  A    between atoms: C_3  and  C_9 
REMARK    4  A    between atoms: O_4  and  P_5 
REMARK    5  A    between atoms: P_5  and  O_6 
REMARK    6  A    between atoms: P_5  and  O_7 
REMARK    7  A    between atoms: C_9  and  O_10 
ROOT
HETATM    1  C   UNK N   1      35.261  12.069  14.479  0.00  0.00     0.230 C 
ENDROOT
BRANCH   1   2
HETATM    2  C   UNK N   1      35.376  11.925  15.996  0.00  0.00     0.039 C 
HETATM    3  C   UNK N   1      34.880  13.169  16.713  0.00  0.00     0.008 C 
ENDBRANCH   1   2
BRANCH   1   4
HETATM    4  O   UNK N   1      35.133  13.429  14.159  0.00  0.00    -0.281 OA
BRANCH   4   5
HETATM    5  P   UNK N   1      36.146  13.690  12.765  0.00  0.00     0.391 P 
HETATM    6  O   UNK N   1      34.764  14.208  12.282  0.00  0.00    -0.632 OA
BRANCH   5   7
HETATM    7  O   UNK N   1      36.482  15.299  12.206  0.00  0.00    -0.307 OA
HETATM    8  H   UNK N   1      36.900  15.476  11.348  0.00  0.00     0.222 HD
ENDBRANCH   5   7
BRANCH   5   9
HETATM    9  O   UNK N   1      36.720  14.678  14.074  0.00  0.00    -0.307 OA
HETATM   10  H   UNK N   1      37.630  14.814  14.379  0.00  0.00     0.222 HD
ENDBRANCH   5   9
ENDBRANCH   4   5
ENDBRANCH   1   4
BRANCH   1  11
HETATM   11  C   UNK N   1      34.101  11.295  13.897  0.00  0.00     0.170 C 
HETATM   12  O   UNK N   1      33.246  10.840  14.639  0.00  0.00    -0.648 OA
BRANCH  11  13
HETATM   13  O   UNK N   1      33.992  11.104  12.568  0.00  0.00    -0.774 OA
HETATM   14  H   UNK N   1      34.180  10.309  12.110  0.00  0.00     0.167 HD
ENDBRANCH  11  13
ENDBRANCH   1  11
TORSDOF 7
ENDMDL
MODEL 9
REMARK VINA RESULT:      -3.8     10.403     12.154
REMARK  7 active torsions:
REMARK  status: ('A' for Active; 'I' for Inactive)
REMARK    1  A    between atoms: C_2  and  C_3 
REMARK    2  A    between atoms: C_3  and  O_4 
REMARK    3  A    between atoms: C_3  and  C_9 
REMARK    4  A    between atoms: O_4  and  P_5 
REMARK    5  A    between atoms: P_5  and  O_6 
REMARK    6  A    between atoms: P_5  and  O_7 
REMARK    7  A    between atoms: C_9  and  O_10 
ROOT
HETATM    1  C   UNK N   1      42.317  21.291   2.666  0.00  0.00     0.230 C 
ENDROOT
BRANCH   1   2
HETATM    2  C   UNK N   1      43.463  20.552   3.355  0.00  0.00     0.039 C 
HETATM    3  C   UNK N   1      43.915  19.348   2.548  0.00  0.00     0.008 C 
ENDBRANCH   1   2
BRANCH   1   4
HETATM    4  O   UNK N   1      42.411  22.659   2.968  0.00  0.00    -0.281 OA
BRANCH   4   5
HETATM    5  P   UNK N   1      44.096  23.072   2.801  0.00  0.00     0.391 P 
HETATM    6  O   UNK N   1      43.448  23.788   1.585  0.00  0.00    -0.632 OA
BRANCH   5   7
HETATM    7  O   UNK N   1      44.622  24.718   2.964  0.00  0.00    -0.307 OA
HETATM    8  H   UNK N   1      44.846  25.272   2.200  0.00  0.00     0.222 HD
ENDBRANCH   5   7
BRANCH   5   9
HETATM    9  O   UNK N   1      43.490  23.756   4.278  0.00  0.00    -0.307 OA
HETATM   10  H   UNK N   1      43.831  23.655   5.180  0.00  0.00     0.222 HD
ENDBRANCH   5   9
ENDBRANCH   4   5
ENDBRANCH   1   4
BRANCH   1  11
HETATM   11  C   UNK N   1      40.955  20.772   3.062  0.00  0.00     0.170 C 
HETATM   12  O   UNK N   1      40.868  19.781   3.768  0.00  0.00    -0.648 OA
BRANCH  11  13
HETATM   13  O   UNK N   1      39.831  21.392   2.653  0.00  0.00    -0.774 OA
HETATM   14  H   UNK N   1      38.969  21.024   2.657  0.00  0.00     0.167 HD
ENDBRANCH  11  13
ENDBRANCH   1  11
TORSDOF 7
ENDMDL
