MODEL 1
REMARK VINA RESULT:      -4.8      0.000      0.000
REMARK  0 active torsions:
REMARK  status: ('A' for Active; 'I' for Inactive)
ROOT
HETATM    1  C   UNK N   1      20.143  15.110   8.673  0.00  0.00     0.048 C 
HETATM    2  C   UNK N   1      20.865  14.126   9.516  0.00  0.00    -0.060 A 
HETATM    3  C   UNK N   1      22.267  14.058   9.450  0.00  0.00     0.038 A 
HETATM    4  C   UNK N   1      22.902  13.123  10.254  0.00  0.00     0.060 A 
HETATM    5  C   UNK N   1      22.220  12.294  11.084  0.00  0.00     0.060 A 
HETATM    6  C   UNK N   1      20.831  12.325  11.183  0.00  0.00     0.032 A 
HETATM    7  C   UNK N   1      20.146  13.262  10.381  0.00  0.00     0.009 A 
HETATM    8  N   UNK N   1      23.081  11.503  11.735  0.00  0.00    -0.351 N 
ATOM      9  HN  UNK N   1      22.869  10.780  12.423  1.00  0.00     0.166 HD
HETATM   10  C   UNK N   1      24.303  11.882  11.272  0.00  0.00     0.181 A 
HETATM   11  N   UNK N   1      24.215  12.882  10.356  0.00  0.00    -0.350 N 
HETATM   12  H   UNK N   1      24.950  13.327   9.877  0.00  0.00     0.166 HD
ENDROOT
TORSDOF 0
ENDMDL
MODEL 2
REMARK VINA RESULT:      -4.6      1.837      2.799
REMARK  0 active torsions:
REMARK  status: ('A' for Active; 'I' for Inactive)
ROOT
HETATM    1  C   UNK N   1      25.158  13.531   7.428  0.00  0.00     0.048 C 
HETATM    2  C   UNK N   1      24.219  13.085   8.487  0.00  0.00    -0.060 A 
HETATM    3  C   UNK N   1      24.702  12.861   9.788  0.00  0.00     0.038 A 
HETATM    4  C   UNK N   1      23.791  12.445  10.747  0.00  0.00     0.060 A 
HETATM    5  C   UNK N   1      22.477  12.254  10.468  0.00  0.00     0.060 A 
HETATM    6  C   UNK N   1      21.953  12.464   9.194  0.00  0.00     0.032 A 
HETATM    7  C   UNK N   1      22.847  12.887   8.189  0.00  0.00     0.009 A 
HETATM    8  N   UNK N   1      21.836  11.856  11.574  0.00  0.00    -0.351 N 
ATOM      9  HN  UNK N   1      20.846  11.634  11.677  1.00  0.00     0.166 HD
HETATM   10  C   UNK N   1      22.806  11.813  12.527  0.00  0.00     0.181 A 
HETATM   11  N   UNK N   1      24.021  12.173  12.038  0.00  0.00    -0.350 N 
HETATM   12  H   UNK N   1      24.876  12.223  12.522  0.00  0.00     0.166 HD
ENDROOT
TORSDOF 0
ENDMDL
MODEL 3
REMARK VINA RESULT:      -4.6     14.014     15.102
REMARK  0 active torsions:
REMARK  status: ('A' for Active; 'I' for Inactive)
ROOT
HETATM    1  C   UNK N   1      35.128  13.600  18.539  0.00  0.00     0.048 C 
HETATM    2  C   UNK N   1      35.614  13.794  17.150  0.00  0.00    -0.060 A 
HETATM    3  C   UNK N   1      35.024  13.062  16.105  0.00  0.00     0.038 A 
HETATM    4  C   UNK N   1      35.507  13.273  14.823  0.00  0.00     0.060 A 
HETATM    5  C   UNK N   1      36.510  14.147  14.558  0.00  0.00     0.060 A 
HETATM    6  C   UNK N   1      37.125  14.894  15.561  0.00  0.00     0.032 A 
HETATM    7  C   UNK N   1      36.663  14.709  16.880  0.00  0.00     0.009 A 
HETATM    8  N   UNK N   1      36.771  14.148  13.245  0.00  0.00    -0.351 N 
ATOM      9  HN  UNK N   1      37.469  14.699  12.747  1.00  0.00     0.166 HD
HETATM   10  C   UNK N   1      35.893  13.247  12.728  0.00  0.00     0.181 A 
HETATM   11  N   UNK N   1      35.102  12.694  13.685  0.00  0.00    -0.350 N 
HETATM   12  H   UNK N   1      34.394  12.022  13.569  0.00  0.00     0.166 HD
ENDROOT
TORSDOF 0
ENDMDL
MODEL 4
REMARK VINA RESULT:      -4.6      1.750      2.637
REMARK  0 active torsions:
REMARK  status: ('A' for Active; 'I' for Inactive)
ROOT
HETATM    1  C   UNK N   1      21.484  12.673   7.204  0.00  0.00     0.048 C 
HETATM    2  C   UNK N   1      22.270  12.542   8.455  0.00  0.00    -0.060 A 
HETATM    3  C   UNK N   1      21.605  12.269   9.663  0.00  0.00     0.038 A 
HETATM    4  C   UNK N   1      22.378  12.155  10.808  0.00  0.00     0.060 A 
HETATM    5  C   UNK N   1      23.727  12.297  10.793  0.00  0.00     0.060 A 
HETATM    6  C   UNK N   1      24.429  12.568   9.621  0.00  0.00     0.032 A 
HETATM    7  C   UNK N   1      23.680  12.692   8.432  0.00  0.00     0.009 A 
HETATM    8  N   UNK N   1      24.209  12.137  12.031  0.00  0.00    -0.351 N 
ATOM      9  HN  UNK N   1      25.182  12.186  12.335  1.00  0.00     0.166 HD
HETATM   10  C   UNK N   1      23.108  11.894  12.793  0.00  0.00     0.181 A 
HETATM   11  N   UNK N   1      21.966  11.901  12.057  0.00  0.00    -0.350 N 
HETATM   12  H   UNK N   1      21.045  11.752  12.370  0.00  0.00     0.166 HD
ENDROOT
TORSDOF 0
ENDMDL
MODEL 5
REMARK VINA RESULT:      -4.4      1.992      3.381
REMARK  0 active torsions:
REMARK  status: ('A' for Active; 'I' for Inactive)
ROOT
HETATM    1  C   UNK N   1      23.184  11.785  12.979  0.00  0.00     0.048 C 
HETATM    2  C   UNK N   1      22.988  12.137  11.551  0.00  0.00    -0.060 A 
HETATM    3  C   UNK N   1      24.111  12.323  10.726  0.00  0.00     0.038 A 
HETATM    4  C   UNK N   1      23.882  12.651   9.399  0.00  0.00     0.060 A 
HETATM    5  C   UNK N   1      22.634  12.792   8.888  0.00  0.00     0.060 A 
HETATM    6  C   UNK N   1      21.492  12.617   9.666  0.00  0.00     0.032 A 
HETATM    7  C   UNK N   1      21.679  12.283  11.024  0.00  0.00     0.009 A 
HETATM    8  N   UNK N   1      22.712  13.108   7.590  0.00  0.00    -0.351 N 
ATOM      9  HN  UNK N   1      21.945  13.277   6.940  1.00  0.00     0.166 HD
HETATM   10  C   UNK N   1      24.048  13.153   7.334  0.00  0.00     0.181 A 
HETATM   11  N   UNK N   1      24.789  12.874   8.438  0.00  0.00    -0.350 N 
HETATM   12  H   UNK N   1      25.770  12.842   8.515  0.00  0.00     0.166 HD
ENDROOT
TORSDOF 0
ENDMDL
MODEL 6
REMARK VINA RESULT:      -4.4     11.058     12.158
REMARK  0 active torsions:
REMARK  status: ('A' for Active; 'I' for Inactive)
ROOT
HETATM    1  C   UNK N   1      32.227  17.241   3.234  0.00  0.00     0.048 C 
HETATM    2  C   UNK N   1      32.245  17.257   4.718  0.00  0.00    -0.060 A 
HETATM    3  C   UNK N   1      33.468  17.431   5.390  0.00  0.00     0.038 A 
HETATM    4  C   UNK N   1      33.440  17.439   6.777  0.00  0.00     0.060 A 
HETATM    5  C   UNK N   1      32.292  17.288   7.483  0.00  0.00     0.060 A 
HETATM    6  C   UNK N   1      31.058  17.113   6.860  0.00  0.00     0.032 A 
HETATM    7  C   UNK N   1      31.041  17.098   5.450  0.00  0.00     0.009 A 
HETATM    8  N   UNK N   1      32.560  17.336   8.793  0.00  0.00    -0.351 N 
ATOM      9  HN  UNK N   1      31.904  17.253   9.569  1.00  0.00     0.166 HD
HETATM   10  C   UNK N   1      33.907  17.522   8.854  0.00  0.00     0.181 A 
HETATM   11  N   UNK N   1      34.470  17.588   7.619  0.00  0.00    -0.350 N 
HETATM   12  H   UNK N   1      35.420  17.717   7.395  0.00  0.00     0.166 HD
ENDROOT
TORSDOF 0
ENDMDL
MODEL 7
REMARK VINA RESULT:      -4.4     21.370     22.503
REMARK  0 active torsions:
REMARK  status: ('A' for Active; 'I' for Inactive)
ROOT
HETATM    1  C   UNK N   1      26.985  26.577  -8.136  0.00  0.00     0.048 C 
HETATM    2  C   UNK N   1      26.634  27.244  -6.858  0.00  0.00    -0.060 A 
HETATM    3  C   UNK N   1      27.412  28.325  -6.407  0.00  0.00     0.038 A 
HETATM    4  C   UNK N   1      27.049  28.919  -5.208  0.00  0.00     0.060 A 
HETATM    5  C   UNK N   1      25.988  28.495  -4.477  0.00  0.00     0.060 A 
HETATM    6  C   UNK N   1      25.188  27.429  -4.884  0.00  0.00     0.032 A 
HETATM    7  C   UNK N   1      25.523  26.796  -6.099  0.00  0.00     0.009 A 
HETATM    8  N   UNK N   1      25.873  29.245  -3.375  0.00  0.00    -0.351 N 
ATOM      9  HN  UNK N   1      25.174  29.168  -2.636  1.00  0.00     0.166 HD
HETATM   10  C   UNK N   1      26.898  30.135  -3.465  0.00  0.00     0.181 A 
HETATM   11  N   UNK N   1      27.638  29.951  -4.590  0.00  0.00    -0.350 N 
HETATM   12  H   UNK N   1      28.427  30.461  -4.884  0.00  0.00     0.166 HD
ENDROOT
TORSDOF 0
ENDMDL
MODEL 8
REMARK VINA RESULT:      -4.4     10.916     12.395
REMARK  0 active torsions:
REMARK  status: ('A' for Active; 'I' for Inactive)
ROOT
HETATM    1  C   UNK N   1      31.180  16.658   6.748  0.00  0.00     0.048 C 
HETATM    2  C   UNK N   1      32.348  16.844   7.646  0.00  0.00    -0.060 A 
HETATM    3  C   UNK N   1      32.522  15.977   8.738  0.00  0.00     0.038 A 
HETATM    4  C   UNK N   1      33.626  16.186   9.551  0.00  0.00     0.060 A 
HETATM    5  C   UNK N   1      34.519  17.181   9.325  0.00  0.00     0.060 A 
HETATM    6  C   UNK N   1      34.387  18.064   8.256  0.00  0.00     0.032 A 
HETATM    7  C   UNK N   1      33.277  17.887   7.403  0.00  0.00     0.009 A 
HETATM    8  N   UNK N   1      35.476  17.147  10.260  0.00  0.00    -0.351 N 
ATOM      9  HN  UNK N   1      36.281  17.766  10.353  1.00  0.00     0.166 HD
HETATM   10  C   UNK N   1      35.131  16.100  11.057  0.00  0.00     0.181 A 
HETATM   11  N   UNK N   1      33.991  15.492  10.637  0.00  0.00    -0.350 N 
HETATM   12  H   UNK N   1      33.537  14.717  11.039  0.00  0.00     0.166 HD
ENDROOT
TORSDOF 0
ENDMDL
MODEL 9
REMARK VINA RESULT:      -4.4     13.282     14.422
REMARK  0 active torsions:
REMARK  status: ('A' for Active; 'I' for Inactive)
ROOT
HETATM    1  C   UNK N   1      35.243  13.155  17.962  0.00  0.00     0.048 C 
HETATM    2  C   UNK N   1      35.251  12.981  16.488  0.00  0.00    -0.060 A 
HETATM    3  C   UNK N   1      36.117  13.764  15.706  0.00  0.00     0.038 A 
HETATM    4  C   UNK N   1      36.092  13.569  14.333  0.00  0.00     0.060 A 
HETATM    5  C   UNK N   1      35.273  12.664  13.741  0.00  0.00     0.060 A 
HETATM    6  C   UNK N   1      34.399  11.866  14.475  0.00  0.00     0.032 A 
HETATM    7  C   UNK N   1      34.393  12.032  15.876  0.00  0.00     0.009 A 
HETATM    8  N   UNK N   1      35.459  12.689  12.416  0.00  0.00    -0.351 N 
ATOM      9  HN  UNK N   1      34.990  12.125  11.708  1.00  0.00     0.166 HD
HETATM   10  C   UNK N   1      36.416  13.639  12.228  0.00  0.00     0.181 A 
HETATM   11  N   UNK N   1      36.821  14.195  13.400  0.00  0.00    -0.350 N 
HETATM   12  H   UNK N   1      37.496  14.898  13.533  0.00  0.00     0.166 HD
ENDROOT
TORSDOF 0
ENDMDL
