MODEL 1
REMARK VINA RESULT:      -6.7      0.000      0.000
REMARK  6 active torsions:
REMARK  status: ('A' for Active; 'I' for Inactive)
REMARK    1  A    between atoms: C_8  and  C_5 
REMARK    2  A    between atoms: O_14  and  C_5 
REMARK    3  A    between atoms: N_13  and  C_6 
REMARK    4  A    between atoms: O_18  and  C_7 
REMARK    5  A    between atoms: C_9  and  O_15 
REMARK    6  A    between atoms: C_12  and  O_18 
ROOT
HETATM    1  C   UNK N   1      35.239  13.424  11.817  0.00  0.00     0.179 C 
HETATM    2  C   UNK N   1      36.786  13.438  11.786  0.00  0.00     0.180 C 
HETATM    3  C   UNK N   1      37.319  12.415  12.792  0.00  0.00     0.183 C 
HETATM    4  C   UNK N   1      36.722  12.707  14.175  0.00  0.00     0.205 C 
HETATM    5  C   UNK N   1      35.174  12.732  14.071  0.00  0.00     0.298 C 
HETATM    6  O   UNK N   1      36.963  11.122  12.389  0.00  0.00    -0.390 OA
HETATM    7  O   UNK N   1      37.186  13.936  14.651  0.00  0.00    -0.388 OA
HETATM    8  O   UNK N   1      34.771  13.715  13.125  0.00  0.00    -0.348 OA
HETATM    9  H   UNK N   1      36.711  10.255  12.035  0.00  0.00     0.210 HD
HETATM   10  H   UNK N   1      37.529  14.789  14.962  0.00  0.00     0.210 HD
ENDROOT
BRANCH   2  11
HETATM   11  O   UNK N   1      37.270  13.134  10.511  0.00  0.00    -0.390 OA
HETATM   12  H   UNK N   1      36.959  12.394   9.965  0.00  0.00     0.210 HD
ENDBRANCH   2  11
BRANCH   1  13
HETATM   13  C   UNK N   1      34.669  14.495  10.887  0.00  0.00     0.198 C 
BRANCH  13  14
HETATM   14  O   UNK N   1      33.375  14.860  11.263  0.00  0.00    -0.398 OA
HETATM   15  H   UNK N   1      32.566  14.362  11.065  0.00  0.00     0.209 HD
ENDBRANCH  13  14
ENDBRANCH   1  13
BRANCH   5  16
HETATM   16  O   UNK N   1      34.524  13.036  15.265  0.00  0.00    -0.318 OA
BRANCH  16  17
HETATM   17  C   UNK N   1      34.843  12.673  16.536  0.00  0.00     0.072 A 
HETATM   18  C   UNK N   1      34.998  11.312  16.829  0.00  0.00     0.039 A 
HETATM   19  C   UNK N   1      35.293  10.896  18.131  0.00  0.00     0.031 A 
HETATM   20  C   UNK N   1      35.414  11.838  19.156  0.00  0.00     0.025 A 
HETATM   21  C   UNK N   1      35.249  13.195  18.877  0.00  0.00     0.031 A 
HETATM   22  C   UNK N   1      34.970  13.608  17.574  0.00  0.00     0.039 A 
BRANCH  20  23
HETATM   23  N   UNK N   1      35.698  11.420  20.470  0.00  0.00    -0.399 N 
HETATM   24  H   UNK N   1      36.320  10.673  20.626  0.00  0.00     0.156 HD
HETATM   25  H   UNK N   1      35.276  11.876  21.234  0.00  0.00     0.156 HD
ENDBRANCH  20  23
ENDBRANCH  16  17
ENDBRANCH   5  16
TORSDOF 6
ENDMDL
MODEL 2
REMARK VINA RESULT:      -6.6     16.194     18.966
REMARK  6 active torsions:
REMARK  status: ('A' for Active; 'I' for Inactive)
REMARK    1  A    between atoms: C_8  and  C_5 
REMARK    2  A    between atoms: O_14  and  C_5 
REMARK    3  A    between atoms: N_13  and  C_6 
REMARK    4  A    between atoms: O_18  and  C_7 
REMARK    5  A    between atoms: C_9  and  O_15 
REMARK    6  A    between atoms: C_12  and  O_18 
ROOT
HETATM    1  C   UNK N   1      20.857  17.907   2.805  0.00  0.00     0.179 C 
HETATM    2  C   UNK N   1      19.642  18.776   2.399  0.00  0.00     0.180 C 
HETATM    3  C   UNK N   1      20.129  19.963   1.565  0.00  0.00     0.183 C 
HETATM    4  C   UNK N   1      21.205  20.725   2.349  0.00  0.00     0.205 C 
HETATM    5  C   UNK N   1      22.335  19.744   2.757  0.00  0.00     0.298 C 
HETATM    6  O   UNK N   1      20.665  19.506   0.353  0.00  0.00    -0.390 OA
HETATM    7  O   UNK N   1      20.647  21.308   3.490  0.00  0.00    -0.388 OA
HETATM    8  O   UNK N   1      21.794  18.683   3.535  0.00  0.00    -0.348 OA
HETATM    9  H   UNK N   1      20.990  19.122  -0.476  0.00  0.00     0.210 HD
HETATM   10  H   UNK N   1      20.234  21.709   4.271  0.00  0.00     0.210 HD
ENDROOT
BRANCH   2  11
HETATM   11  O   UNK N   1      18.714  18.036   1.660  0.00  0.00    -0.390 OA
HETATM   12  H   UNK N   1      17.754  18.058   1.803  0.00  0.00     0.210 HD
ENDBRANCH   2  11
BRANCH   1  13
HETATM   13  C   UNK N   1      20.421  16.757   3.712  0.00  0.00     0.198 C 
BRANCH  13  14
HETATM   14  O   UNK N   1      19.077  16.874   4.073  0.00  0.00    -0.398 OA
HETATM   15  H   UNK N   1      18.538  16.180   4.483  0.00  0.00     0.209 HD
ENDBRANCH  13  14
ENDBRANCH   1  13
BRANCH   5  16
HETATM   16  O   UNK N   1      23.349  20.321   3.518  0.00  0.00    -0.318 OA
BRANCH  16  17
HETATM   17  C   UNK N   1      24.633  19.908   3.697  0.00  0.00     0.072 A 
HETATM   18  C   UNK N   1      24.871  18.772   4.482  0.00  0.00     0.039 A 
HETATM   19  C   UNK N   1      26.179  18.335   4.717  0.00  0.00     0.031 A 
HETATM   20  C   UNK N   1      27.260  19.045   4.188  0.00  0.00     0.025 A 
HETATM   21  C   UNK N   1      27.033  20.186   3.416  0.00  0.00     0.031 A 
HETATM   22  C   UNK N   1      25.727  20.610   3.170  0.00  0.00     0.039 A 
BRANCH  20  23
HETATM   23  N   UNK N   1      28.577  18.615   4.435  0.00  0.00    -0.399 N 
HETATM   24  H   UNK N   1      29.241  19.242   4.802  0.00  0.00     0.156 HD
HETATM   25  H   UNK N   1      28.836  17.685   4.240  0.00  0.00     0.156 HD
ENDBRANCH  20  23
ENDBRANCH  16  17
ENDBRANCH   5  16
TORSDOF 6
ENDMDL
MODEL 3
REMARK VINA RESULT:      -6.5      6.736     10.304
REMARK  6 active torsions:
REMARK  status: ('A' for Active; 'I' for Inactive)
REMARK    1  A    between atoms: C_8  and  C_5 
REMARK    2  A    between atoms: O_14  and  C_5 
REMARK    3  A    between atoms: N_13  and  C_6 
REMARK    4  A    between atoms: O_18  and  C_7 
REMARK    5  A    between atoms: C_9  and  O_15 
REMARK    6  A    between atoms: C_12  and  O_18 
ROOT
HETATM    1  C   UNK N   1      35.450  14.561   9.813  0.00  0.00     0.179 C 
HETATM    2  C   UNK N   1      34.241  14.954  10.696  0.00  0.00     0.180 C 
HETATM    3  C   UNK N   1      32.971  14.949   9.842  0.00  0.00     0.183 C 
HETATM    4  C   UNK N   1      33.176  15.862   8.626  0.00  0.00     0.205 C 
HETATM    5  C   UNK N   1      34.447  15.414   7.857  0.00  0.00     0.298 C 
HETATM    6  O   UNK N   1      32.692  13.646   9.411  0.00  0.00    -0.390 OA
HETATM    7  O   UNK N   1      33.312  17.190   9.038  0.00  0.00    -0.388 OA
HETATM    8  O   UNK N   1      35.574  15.460   8.722  0.00  0.00    -0.348 OA
HETATM    9  H   UNK N   1      32.543  12.717   9.176  0.00  0.00     0.210 HD
HETATM   10  H   UNK N   1      33.396  18.106   9.349  0.00  0.00     0.210 HD
ENDROOT
BRANCH   2  11
HETATM   11  O   UNK N   1      34.086  14.069  11.767  0.00  0.00    -0.390 OA
HETATM   12  H   UNK N   1      33.454  14.188  12.493  0.00  0.00     0.210 HD
ENDBRANCH   2  11
BRANCH   1  13
HETATM   13  C   UNK N   1      36.751  14.638  10.611  0.00  0.00     0.198 C 
BRANCH  13  14
HETATM   14  O   UNK N   1      37.106  15.961  10.881  0.00  0.00    -0.398 OA
HETATM   15  H   UNK N   1      36.549  16.740  10.724  0.00  0.00     0.209 HD
ENDBRANCH  13  14
ENDBRANCH   1  13
BRANCH   5  16
HETATM   16  O   UNK N   1      34.758  16.206   6.753  0.00  0.00    -0.318 OA
BRANCH  16  17
HETATM   17  C   UNK N   1      34.049  16.406   5.610  0.00  0.00     0.072 A 
HETATM   18  C   UNK N   1      33.308  17.587   5.475  0.00  0.00     0.039 A 
HETATM   19  C   UNK N   1      32.539  17.815   4.329  0.00  0.00     0.031 A 
HETATM   20  C   UNK N   1      32.488  16.852   3.318  0.00  0.00     0.025 A 
HETATM   21  C   UNK N   1      33.213  15.666   3.449  0.00  0.00     0.031 A 
HETATM   22  C   UNK N   1      33.991  15.449   4.586  0.00  0.00     0.039 A 
BRANCH  20  23
HETATM   23  N   UNK N   1      31.705  17.074   2.169  0.00  0.00    -0.399 N 
HETATM   24  H   UNK N   1      30.864  17.580   2.236  0.00  0.00     0.156 HD
HETATM   25  H   UNK N   1      31.999  16.722   1.298  0.00  0.00     0.156 HD
ENDBRANCH  20  23
ENDBRANCH  16  17
ENDBRANCH   5  16
TORSDOF 6
ENDMDL
MODEL 4
REMARK VINA RESULT:      -6.2      8.266     10.830
REMARK  6 active torsions:
REMARK  status: ('A' for Active; 'I' for Inactive)
REMARK    1  A    between atoms: C_8  and  C_5 
REMARK    2  A    between atoms: O_14  and  C_5 
REMARK    3  A    between atoms: N_13  and  C_6 
REMARK    4  A    between atoms: O_18  and  C_7 
REMARK    5  A    between atoms: C_9  and  O_15 
REMARK    6  A    between atoms: C_12  and  O_18 
ROOT
HETATM    1  C   UNK N   1      28.748  17.595   7.390  0.00  0.00     0.179 C 
HETATM    2  C   UNK N   1      28.020  18.063   6.107  0.00  0.00     0.180 C 
HETATM    3  C   UNK N   1      28.327  17.087   4.969  0.00  0.00     0.183 C 
HETATM    4  C   UNK N   1      29.847  16.957   4.810  0.00  0.00     0.205 C 
HETATM    5  C   UNK N   1      30.473  16.548   6.169  0.00  0.00     0.298 C 
HETATM    6  O   UNK N   1      27.775  15.832   5.258  0.00  0.00    -0.390 OA
HETATM    7  O   UNK N   1      30.392  18.171   4.381  0.00  0.00    -0.388 OA
HETATM    8  O   UNK N   1      30.146  17.515   7.159  0.00  0.00    -0.348 OA
HETATM    9  H   UNK N   1      27.341  15.001   5.506  0.00  0.00     0.210 HD
HETATM   10  H   UNK N   1      30.744  19.022   4.077  0.00  0.00     0.210 HD
ENDROOT
BRANCH   2  11
HETATM   11  O   UNK N   1      26.638  18.131   6.304  0.00  0.00    -0.390 OA
HETATM   12  H   UNK N   1      26.204  18.109   7.172  0.00  0.00     0.210 HD
ENDBRANCH   2  11
BRANCH   1  13
HETATM   13  C   UNK N   1      28.536  18.593   8.528  0.00  0.00     0.198 C 
BRANCH  13  14
HETATM   14  O   UNK N   1      27.415  18.263   9.292  0.00  0.00    -0.398 OA
HETATM   15  H   UNK N   1      27.137  18.704  10.110  0.00  0.00     0.209 HD
ENDBRANCH  13  14
ENDBRANCH   1  13
BRANCH   5  16
HETATM   16  O   UNK N   1      31.862  16.446   6.153  0.00  0.00    -0.318 OA
BRANCH  16  17
HETATM   17  C   UNK N   1      32.753  16.659   7.159  0.00  0.00     0.072 A 
HETATM   18  C   UNK N   1      32.875  15.692   8.165  0.00  0.00     0.039 A 
HETATM   19  C   UNK N   1      33.755  15.889   9.235  0.00  0.00     0.031 A 
HETATM   20  C   UNK N   1      34.503  17.066   9.317  0.00  0.00     0.025 A 
HETATM   21  C   UNK N   1      34.379  18.041   8.326  0.00  0.00     0.031 A 
HETATM   22  C   UNK N   1      33.512  17.834   7.253  0.00  0.00     0.039 A 
BRANCH  20  23
HETATM   23  N   UNK N   1      35.380  17.271  10.399  0.00  0.00    -0.399 N 
HETATM   24  H   UNK N   1      35.057  17.165  11.322  0.00  0.00     0.156 HD
HETATM   25  H   UNK N   1      36.318  17.522  10.232  0.00  0.00     0.156 HD
ENDBRANCH  20  23
ENDBRANCH  16  17
ENDBRANCH   5  16
TORSDOF 6
ENDMDL
MODEL 5
REMARK VINA RESULT:      -6.1      6.496      9.665
REMARK  6 active torsions:
REMARK  status: ('A' for Active; 'I' for Inactive)
REMARK    1  A    between atoms: C_8  and  C_5 
REMARK    2  A    between atoms: O_14  and  C_5 
REMARK    3  A    between atoms: N_13  and  C_6 
REMARK    4  A    between atoms: O_18  and  C_7 
REMARK    5  A    between atoms: C_9  and  O_15 
REMARK    6  A    between atoms: C_12  and  O_18 
ROOT
HETATM    1  C   UNK N   1      35.584  14.295   9.086  0.00  0.00     0.179 C 
HETATM    2  C   UNK N   1      35.998  14.734  10.511  0.00  0.00     0.180 C 
HETATM    3  C   UNK N   1      34.887  15.596  11.115  0.00  0.00     0.183 C 
HETATM    4  C   UNK N   1      34.582  16.764  10.169  0.00  0.00     0.205 C 
HETATM    5  C   UNK N   1      34.245  16.209   8.760  0.00  0.00     0.298 C 
HETATM    6  O   UNK N   1      33.732  14.824  11.298  0.00  0.00    -0.390 OA
HETATM    7  O   UNK N   1      35.683  17.622  10.091  0.00  0.00    -0.388 OA
HETATM    8  O   UNK N   1      35.334  15.433   8.276  0.00  0.00    -0.348 OA
HETATM    9  H   UNK N   1      32.982  14.224  11.426  0.00  0.00     0.210 HD
HETATM   10  H   UNK N   1      36.458  18.205  10.060  0.00  0.00     0.210 HD
ENDROOT
BRANCH   2  11
HETATM   11  O   UNK N   1      36.231  13.629  11.335  0.00  0.00    -0.390 OA
HETATM   12  H   UNK N   1      35.562  12.966  11.569  0.00  0.00     0.210 HD
ENDBRANCH   2  11
BRANCH   1  13
HETATM   13  C   UNK N   1      36.707  13.503   8.416  0.00  0.00     0.198 C 
BRANCH  13  14
HETATM   14  O   UNK N   1      37.951  13.819   8.966  0.00  0.00    -0.398 OA
HETATM   15  H   UNK N   1      38.104  14.170   9.857  0.00  0.00     0.209 HD
ENDBRANCH  13  14
ENDBRANCH   1  13
BRANCH   5  16
HETATM   16  O   UNK N   1      33.995  17.189   7.802  0.00  0.00    -0.318 OA
BRANCH  16  17
HETATM   17  C   UNK N   1      33.066  17.205   6.809  0.00  0.00     0.072 A 
HETATM   18  C   UNK N   1      33.488  17.446   5.495  0.00  0.00     0.039 A 
HETATM   19  C   UNK N   1      32.560  17.503   4.451  0.00  0.00     0.031 A 
HETATM   20  C   UNK N   1      31.198  17.343   4.716  0.00  0.00     0.025 A 
HETATM   21  C   UNK N   1      30.765  17.116   6.024  0.00  0.00     0.031 A 
HETATM   22  C   UNK N   1      31.695  17.043   7.061  0.00  0.00     0.039 A 
BRANCH  20  23
HETATM   23  N   UNK N   1      30.260  17.413   3.669  0.00  0.00    -0.399 N 
HETATM   24  H   UNK N   1      29.558  16.729   3.588  0.00  0.00     0.156 HD
HETATM   25  H   UNK N   1      30.307  18.148   3.015  0.00  0.00     0.156 HD
ENDBRANCH  20  23
ENDBRANCH  16  17
ENDBRANCH   5  16
TORSDOF 6
ENDMDL
MODEL 6
REMARK VINA RESULT:      -6.1     16.365     18.251
REMARK  6 active torsions:
REMARK  status: ('A' for Active; 'I' for Inactive)
REMARK    1  A    between atoms: C_8  and  C_5 
REMARK    2  A    between atoms: O_14  and  C_5 
REMARK    3  A    between atoms: N_13  and  C_6 
REMARK    4  A    between atoms: O_18  and  C_7 
REMARK    5  A    between atoms: C_9  and  O_15 
REMARK    6  A    between atoms: C_12  and  O_18 
ROOT
HETATM    1  C   UNK N   1      21.418  19.364   3.229  0.00  0.00     0.179 C 
HETATM    2  C   UNK N   1      20.881  18.668   1.956  0.00  0.00     0.180 C 
HETATM    3  C   UNK N   1      19.953  17.520   2.362  0.00  0.00     0.183 C 
HETATM    4  C   UNK N   1      20.701  16.580   3.316  0.00  0.00     0.205 C 
HETATM    5  C   UNK N   1      21.247  17.396   4.517  0.00  0.00     0.298 C 
HETATM    6  O   UNK N   1      18.815  18.031   3.000  0.00  0.00    -0.390 OA
HETATM    7  O   UNK N   1      21.756  15.953   2.648  0.00  0.00    -0.388 OA
HETATM    8  O   UNK N   1      22.104  18.429   4.047  0.00  0.00    -0.348 OA
HETATM    9  H   UNK N   1      18.042  18.455   3.402  0.00  0.00     0.210 HD
HETATM   10  H   UNK N   1      22.477  15.526   2.159  0.00  0.00     0.210 HD
ENDROOT
BRANCH   2  11
HETATM   11  O   UNK N   1      20.183  19.566   1.143  0.00  0.00    -0.390 OA
HETATM   12  H   UNK N   1      19.656  19.313   0.368  0.00  0.00     0.210 HD
ENDBRANCH   2  11
BRANCH   1  13
HETATM   13  C   UNK N   1      22.416  20.462   2.866  0.00  0.00     0.198 C 
BRANCH  13  14
HETATM   14  O   UNK N   1      21.774  21.682   2.644  0.00  0.00    -0.398 OA
HETATM   15  H   UNK N   1      21.047  21.834   2.019  0.00  0.00     0.209 HD
ENDBRANCH  13  14
ENDBRANCH   1  13
BRANCH   5  16
HETATM   16  O   UNK N   1      21.987  16.647   5.430  0.00  0.00    -0.318 OA
BRANCH  16  17
HETATM   17  C   UNK N   1      21.576  16.023   6.566  0.00  0.00     0.072 A 
HETATM   18  C   UNK N   1      21.874  14.665   6.734  0.00  0.00     0.039 A 
HETATM   19  C   UNK N   1      21.440  13.978   7.873  0.00  0.00     0.031 A 
HETATM   20  C   UNK N   1      20.683  14.641   8.842  0.00  0.00     0.025 A 
HETATM   21  C   UNK N   1      20.369  15.991   8.678  0.00  0.00     0.031 A 
HETATM   22  C   UNK N   1      20.818  16.677   7.549  0.00  0.00     0.039 A 
BRANCH  20  23
HETATM   23  N   UNK N   1      20.234  13.949   9.983  0.00  0.00    -0.399 N 
HETATM   24  H   UNK N   1      19.286  13.695  10.065  0.00  0.00     0.156 HD
HETATM   25  H   UNK N   1      20.868  13.718  10.700  0.00  0.00     0.156 HD
ENDBRANCH  20  23
ENDBRANCH  16  17
ENDBRANCH   5  16
TORSDOF 6
ENDMDL
MODEL 7
REMARK VINA RESULT:      -5.9      6.792      9.991
REMARK  6 active torsions:
REMARK  status: ('A' for Active; 'I' for Inactive)
REMARK    1  A    between atoms: C_8  and  C_5 
REMARK    2  A    between atoms: O_14  and  C_5 
REMARK    3  A    between atoms: N_13  and  C_6 
REMARK    4  A    between atoms: O_18  and  C_7 
REMARK    5  A    between atoms: C_9  and  O_15 
REMARK    6  A    between atoms: C_12  and  O_18 
ROOT
HETATM    1  C   UNK N   1      34.943  15.762   9.872  0.00  0.00     0.179 C 
HETATM    2  C   UNK N   1      34.319  14.476  10.467  0.00  0.00     0.180 C 
HETATM    3  C   UNK N   1      33.397  13.837   9.426  0.00  0.00     0.183 C 
HETATM    4  C   UNK N   1      32.364  14.872   8.962  0.00  0.00     0.205 C 
HETATM    5  C   UNK N   1      33.100  16.138   8.449  0.00  0.00     0.298 C 
HETATM    6  O   UNK N   1      34.149  13.398   8.329  0.00  0.00    -0.390 OA
HETATM    7  O   UNK N   1      31.514  15.212  10.018  0.00  0.00    -0.388 OA
HETATM    8  O   UNK N   1      33.922  16.668   9.482  0.00  0.00    -0.348 OA
HETATM    9  H   UNK N   1      34.734  13.091   7.620  0.00  0.00     0.210 HD
HETATM   10  H   UNK N   1      30.932  15.425  10.765  0.00  0.00     0.210 HD
ENDROOT
BRANCH   2  11
HETATM   11  O   UNK N   1      35.306  13.560  10.841  0.00  0.00    -0.390 OA
HETATM   12  H   UNK N   1      35.472  13.271  11.752  0.00  0.00     0.210 HD
ENDBRANCH   2  11
BRANCH   1  13
HETATM   13  C   UNK N   1      35.805  16.477  10.913  0.00  0.00     0.198 C 
BRANCH  13  14
HETATM   14  O   UNK N   1      37.131  16.044  10.859  0.00  0.00    -0.398 OA
HETATM   15  H   UNK N   1      37.915  16.601  10.987  0.00  0.00     0.209 HD
ENDBRANCH  13  14
ENDBRANCH   1  13
BRANCH   5  16
HETATM   16  O   UNK N   1      32.255  17.168   8.043  0.00  0.00    -0.318 OA
BRANCH  16  17
HETATM   17  C   UNK N   1      31.418  17.224   6.972  0.00  0.00     0.072 A 
HETATM   18  C   UNK N   1      31.972  17.307   5.689  0.00  0.00     0.039 A 
HETATM   19  C   UNK N   1      31.146  17.400   4.564  0.00  0.00     0.031 A 
HETATM   20  C   UNK N   1      29.758  17.434   4.717  0.00  0.00     0.025 A 
HETATM   21  C   UNK N   1      29.196  17.364   5.993  0.00  0.00     0.031 A 
HETATM   22  C   UNK N   1      30.023  17.255   7.111  0.00  0.00     0.039 A 
BRANCH  20  23
HETATM   23  N   UNK N   1      28.924  17.540   3.588  0.00  0.00    -0.399 N 
HETATM   24  H   UNK N   1      28.393  16.766   3.292  0.00  0.00     0.156 HD
HETATM   25  H   UNK N   1      28.872  18.390   3.093  0.00  0.00     0.156 HD
ENDBRANCH  20  23
ENDBRANCH  16  17
ENDBRANCH   5  16
TORSDOF 6
ENDMDL
MODEL 8
REMARK VINA RESULT:      -5.9      4.089      7.133
REMARK  6 active torsions:
REMARK  status: ('A' for Active; 'I' for Inactive)
REMARK    1  A    between atoms: C_8  and  C_5 
REMARK    2  A    between atoms: O_14  and  C_5 
REMARK    3  A    between atoms: N_13  and  C_6 
REMARK    4  A    between atoms: O_18  and  C_7 
REMARK    5  A    between atoms: C_9  and  O_15 
REMARK    6  A    between atoms: C_12  and  O_18 
ROOT
HETATM    1  C   UNK N   1      36.499  13.694  14.020  0.00  0.00     0.179 C 
HETATM    2  C   UNK N   1      36.903  12.279  13.539  0.00  0.00     0.180 C 
HETATM    3  C   UNK N   1      37.036  12.285  12.015  0.00  0.00     0.183 C 
HETATM    4  C   UNK N   1      35.732  12.803  11.395  0.00  0.00     0.205 C 
HETATM    5  C   UNK N   1      35.395  14.193  11.997  0.00  0.00     0.298 C 
HETATM    6  O   UNK N   1      38.100  13.112  11.633  0.00  0.00    -0.390 OA
HETATM    7  O   UNK N   1      34.688  11.909  11.649  0.00  0.00    -0.388 OA
HETATM    8  O   UNK N   1      35.280  14.090  13.411  0.00  0.00    -0.348 OA
HETATM    9  H   UNK N   1      38.868  13.672  11.443  0.00  0.00     0.210 HD
HETATM   10  H   UNK N   1      33.983  11.269  11.833  0.00  0.00     0.210 HD
ENDROOT
BRANCH   2  11
HETATM   11  O   UNK N   1      38.113  11.875  14.112  0.00  0.00    -0.390 OA
HETATM   12  H   UNK N   1      38.737  11.256  13.700  0.00  0.00     0.210 HD
ENDBRANCH   2  11
BRANCH   1  13
HETATM   13  C   UNK N   1      36.273  13.708  15.531  0.00  0.00     0.198 C 
BRANCH  13  14
HETATM   14  O   UNK N   1      35.912  12.444  16.004  0.00  0.00    -0.398 OA
HETATM   15  H   UNK N   1      36.422  11.907  16.630  0.00  0.00     0.209 HD
ENDBRANCH  13  14
ENDBRANCH   1  13
BRANCH   5  16
HETATM   16  O   UNK N   1      34.200  14.742  11.538  0.00  0.00    -0.318 OA
BRANCH  16  17
HETATM   17  C   UNK N   1      33.950  15.421  10.386  0.00  0.00     0.072 A 
HETATM   18  C   UNK N   1      34.746  16.530  10.072  0.00  0.00     0.039 A 
HETATM   19  C   UNK N   1      34.500  17.274   8.913  0.00  0.00     0.031 A 
HETATM   20  C   UNK N   1      33.440  16.928   8.072  0.00  0.00     0.025 A 
HETATM   21  C   UNK N   1      32.633  15.832   8.383  0.00  0.00     0.031 A 
HETATM   22  C   UNK N   1      32.891  15.082   9.530  0.00  0.00     0.039 A 
BRANCH  20  23
HETATM   23  N   UNK N   1      33.183  17.683   6.912  0.00  0.00    -0.399 N 
HETATM   24  H   UNK N   1      33.611  17.440   6.060  0.00  0.00     0.156 HD
HETATM   25  H   UNK N   1      32.573  18.456   6.953  0.00  0.00     0.156 HD
ENDBRANCH  20  23
ENDBRANCH  16  17
ENDBRANCH   5  16
TORSDOF 6
ENDMDL
MODEL 9
REMARK VINA RESULT:      -5.9     24.853     26.419
REMARK  6 active torsions:
REMARK  status: ('A' for Active; 'I' for Inactive)
REMARK    1  A    between atoms: C_8  and  C_5 
REMARK    2  A    between atoms: O_14  and  C_5 
REMARK    3  A    between atoms: N_13  and  C_6 
REMARK    4  A    between atoms: O_18  and  C_7 
REMARK    5  A    between atoms: C_9  and  O_15 
REMARK    6  A    between atoms: C_12  and  O_18 
ROOT
HETATM    1  C   UNK N   1      27.843  22.342  -8.019  0.00  0.00     0.179 C 
HETATM    2  C   UNK N   1      27.049  21.908  -9.275  0.00  0.00     0.180 C 
HETATM    3  C   UNK N   1      26.136  23.055  -9.713  0.00  0.00     0.183 C 
HETATM    4  C   UNK N   1      25.252  23.477  -8.533  0.00  0.00     0.205 C 
HETATM    5  C   UNK N   1      26.150  23.826  -7.318  0.00  0.00     0.298 C 
HETATM    6  O   UNK N   1      26.909  24.144 -10.136  0.00  0.00    -0.390 OA
HETATM    7  O   UNK N   1      24.373  22.445  -8.195  0.00  0.00    -0.388 OA
HETATM    8  O   UNK N   1      26.953  22.703  -6.975  0.00  0.00    -0.348 OA
HETATM    9  H   UNK N   1      27.505  24.845 -10.443  0.00  0.00     0.210 HD
HETATM   10  H   UNK N   1      23.768  21.715  -7.984  0.00  0.00     0.210 HD
ENDROOT
BRANCH   2  11
HETATM   11  O   UNK N   1      27.907  21.566 -10.324  0.00  0.00    -0.390 OA
HETATM   12  H   UNK N   1      27.626  21.127 -11.143  0.00  0.00     0.210 HD
ENDBRANCH   2  11
BRANCH   1  13
HETATM   13  C   UNK N   1      28.704  21.191  -7.499  0.00  0.00     0.198 C 
BRANCH  13  14
HETATM   14  O   UNK N   1      28.272  19.963  -8.003  0.00  0.00    -0.398 OA
HETATM   15  H   UNK N   1      28.396  19.648  -8.912  0.00  0.00     0.209 HD
ENDBRANCH  13  14
ENDBRANCH   1  13
BRANCH   5  16
HETATM   16  O   UNK N   1      25.448  24.181  -6.168  0.00  0.00    -0.318 OA
BRANCH  16  17
HETATM   17  C   UNK N   1      25.560  25.298  -5.401  0.00  0.00     0.072 A 
HETATM   18  C   UNK N   1      25.014  26.498  -5.875  0.00  0.00     0.039 A 
HETATM   19  C   UNK N   1      25.138  27.676  -5.132  0.00  0.00     0.031 A 
HETATM   20  C   UNK N   1      25.829  27.668  -3.917  0.00  0.00     0.025 A 
HETATM   21  C   UNK N   1      26.388  26.480  -3.442  0.00  0.00     0.031 A 
HETATM   22  C   UNK N   1      26.249  25.303  -4.179  0.00  0.00     0.039 A 
BRANCH  20  23
HETATM   23  N   UNK N   1      25.966  28.855  -3.174  0.00  0.00    -0.399 N 
HETATM   24  H   UNK N   1      26.417  29.635  -3.569  0.00  0.00     0.156 HD
HETATM   25  H   UNK N   1      25.610  28.905  -2.257  0.00  0.00     0.156 HD
ENDBRANCH  20  23
ENDBRANCH  16  17
ENDBRANCH   5  16
TORSDOF 6
ENDMDL
