MODEL 1
REMARK VINA RESULT:      -5.6      0.000      0.000
REMARK  8 active torsions:
REMARK  status: ('A' for Active; 'I' for Inactive)
REMARK    1  A    between atoms: C_2  and  C_1 
REMARK    2  A    between atoms: C_3  and  C_1 
REMARK    3  A    between atoms: C_4  and  C_2 
REMARK    4  A    between atoms: C_2  and  O_7 
REMARK    5  A    between atoms: C_5  and  C_3 
REMARK    6  A    between atoms: C_3  and  O_8 
REMARK    7  A    between atoms: C_6  and  C_4 
REMARK    8  A    between atoms: C_4  and  O_9 
ROOT
HETATM    1  C   UNK N   1      35.833  15.616  10.337  0.00  0.00     0.160 C 
ENDROOT
BRANCH   1   2
HETATM    2  C   UNK N   1      35.006  16.908  10.197  0.00  0.00     0.077 C 
BRANCH   2   3
HETATM    3  C   UNK N   1      34.201  17.035   8.889  0.00  0.00     0.221 C 
BRANCH   3   4
HETATM    4  C   UNK N   1      34.604  18.208   8.025  0.00  0.00     0.203 C 
HETATM    5  O   UNK N   1      34.335  18.197   6.834  0.00  0.00    -0.646 OA
HETATM    6  O   UNK N   1      35.277  19.254   8.540  0.00  0.00    -0.646 OA
ENDBRANCH   3   4
BRANCH   3   7
HETATM    7  O   UNK N   1      32.835  17.105   9.170  0.00  0.00    -0.385 OA
HETATM    8  H   UNK N   1      32.170  17.575   8.643  0.00  0.00     0.210 HD
ENDBRANCH   3   7
ENDBRANCH   2   3
ENDBRANCH   1   2
BRANCH   1   9
HETATM    9  C   UNK N   1      35.033  14.482  11.010  0.00  0.00     0.247 C 
BRANCH   9  10
HETATM   10  C   UNK N   1      35.686  13.868  12.226  0.00  0.00     0.205 C 
HETATM   11  O   UNK N   1      36.807  13.393  12.132  0.00  0.00    -0.646 OA
HETATM   12  O   UNK N   1      35.064  13.858  13.421  0.00  0.00    -0.646 OA
ENDBRANCH   9  10
BRANCH   9  13
HETATM   13  O   UNK N   1      33.762  14.951  11.357  0.00  0.00    -0.382 OA
HETATM   14  H   UNK N   1      33.001  14.379  11.541  0.00  0.00     0.210 HD
ENDBRANCH   9  13
ENDBRANCH   1   9
BRANCH   1  15
HETATM   15  O   UNK N   1      37.006  15.863  11.055  0.00  0.00    -0.392 OA
HETATM   16  H   UNK N   1      37.785  16.307  10.683  0.00  0.00     0.210 HD
ENDBRANCH   1  15
TORSDOF 8
ENDMDL
MODEL 2
REMARK VINA RESULT:      -5.2      1.103      5.137
REMARK  8 active torsions:
REMARK  status: ('A' for Active; 'I' for Inactive)
REMARK    1  A    between atoms: C_2  and  C_1 
REMARK    2  A    between atoms: C_3  and  C_1 
REMARK    3  A    between atoms: C_4  and  C_2 
REMARK    4  A    between atoms: C_2  and  O_7 
REMARK    5  A    between atoms: C_5  and  C_3 
REMARK    6  A    between atoms: C_3  and  O_8 
REMARK    7  A    between atoms: C_6  and  C_4 
REMARK    8  A    between atoms: C_4  and  O_9 
ROOT
HETATM    1  C   UNK N   1      34.660  16.678  10.006  0.00  0.00     0.160 C 
ENDROOT
BRANCH   1   2
HETATM    2  C   UNK N   1      35.257  15.331   9.553  0.00  0.00     0.077 C 
BRANCH   2   3
HETATM    3  C   UNK N   1      36.215  14.665  10.560  0.00  0.00     0.221 C 
BRANCH   3   4
HETATM    4  C   UNK N   1      35.650  14.527  11.954  0.00  0.00     0.203 C 
HETATM    5  O   UNK N   1      34.612  13.905  12.123  0.00  0.00    -0.646 OA
HETATM    6  O   UNK N   1      36.255  15.099  13.013  0.00  0.00    -0.646 OA
ENDBRANCH   3   4
BRANCH   3   7
HETATM    7  O   UNK N   1      37.422  15.365  10.609  0.00  0.00    -0.385 OA
HETATM    8  H   UNK N   1      37.966  15.615   9.844  0.00  0.00     0.210 HD
ENDBRANCH   3   7
ENDBRANCH   2   3
ENDBRANCH   1   2
BRANCH   1   9
HETATM    9  C   UNK N   1      33.758  17.307   8.925  0.00  0.00     0.247 C 
BRANCH   9  10
HETATM   10  C   UNK N   1      34.466  18.206   7.939  0.00  0.00     0.205 C 
HETATM   11  O   UNK N   1      35.018  19.219   8.337  0.00  0.00    -0.646 OA
HETATM   12  O   UNK N   1      34.522  17.895   6.629  0.00  0.00    -0.646 OA
ENDBRANCH   9  10
BRANCH   9  13
HETATM   13  O   UNK N   1      33.089  16.296   8.229  0.00  0.00    -0.382 OA
HETATM   14  H   UNK N   1      33.116  16.186   7.266  0.00  0.00     0.210 HD
ENDBRANCH   9  13
ENDBRANCH   1   9
BRANCH   1  15
HETATM   15  O   UNK N   1      35.677  17.569  10.356  0.00  0.00    -0.392 OA
HETATM   16  H   UNK N   1      35.778  17.954  11.241  0.00  0.00     0.210 HD
ENDBRANCH   1  15
TORSDOF 8
ENDMDL
MODEL 3
REMARK VINA RESULT:      -5.0      1.753      3.157
REMARK  8 active torsions:
REMARK  status: ('A' for Active; 'I' for Inactive)
REMARK    1  A    between atoms: C_2  and  C_1 
REMARK    2  A    between atoms: C_3  and  C_1 
REMARK    3  A    between atoms: C_4  and  C_2 
REMARK    4  A    between atoms: C_2  and  O_7 
REMARK    5  A    between atoms: C_5  and  C_3 
REMARK    6  A    between atoms: C_3  and  O_8 
REMARK    7  A    between atoms: C_6  and  C_4 
REMARK    8  A    between atoms: C_4  and  O_9 
ROOT
HETATM    1  C   UNK N   1      36.252  14.067  12.790  0.00  0.00     0.160 C 
ENDROOT
BRANCH   1   2
HETATM    2  C   UNK N   1      35.303  14.753  11.789  0.00  0.00     0.077 C 
BRANCH   2   3
HETATM    3  C   UNK N   1      35.798  16.103  11.233  0.00  0.00     0.221 C 
BRANCH   3   4
HETATM    4  C   UNK N   1      34.981  16.634  10.079  0.00  0.00     0.203 C 
HETATM    5  O   UNK N   1      34.106  15.936   9.589  0.00  0.00    -0.646 OA
HETATM    6  O   UNK N   1      35.216  17.855   9.560  0.00  0.00    -0.646 OA
ENDBRANCH   3   4
BRANCH   3   7
HETATM    7  O   UNK N   1      37.138  16.003  10.854  0.00  0.00    -0.385 OA
HETATM    8  H   UNK N   1      37.489  15.434  10.150  0.00  0.00     0.210 HD
ENDBRANCH   3   7
ENDBRANCH   2   3
ENDBRANCH   1   2
BRANCH   1   9
HETATM    9  C   UNK N   1      35.561  12.920  13.555  0.00  0.00     0.247 C 
BRANCH   9  10
HETATM   10  C   UNK N   1      35.355  13.162  15.032  0.00  0.00     0.205 C 
HETATM   11  O   UNK N   1      34.224  13.151  15.491  0.00  0.00    -0.646 OA
HETATM   12  O   UNK N   1      36.401  13.363  15.858  0.00  0.00    -0.646 OA
ENDBRANCH   9  10
BRANCH   9  13
HETATM   13  O   UNK N   1      34.328  12.638  12.958  0.00  0.00    -0.382 OA
HETATM   14  H   UNK N   1      33.668  12.031  13.329  0.00  0.00     0.210 HD
ENDBRANCH   9  13
ENDBRANCH   1   9
BRANCH   1  15
HETATM   15  O   UNK N   1      36.765  15.001  13.694  0.00  0.00    -0.392 OA
HETATM   16  H   UNK N   1      36.902  14.822  14.638  0.00  0.00     0.210 HD
ENDBRANCH   1  15
TORSDOF 8
ENDMDL
MODEL 4
REMARK VINA RESULT:      -5.0      3.536      6.208
REMARK  8 active torsions:
REMARK  status: ('A' for Active; 'I' for Inactive)
REMARK    1  A    between atoms: C_2  and  C_1 
REMARK    2  A    between atoms: C_3  and  C_1 
REMARK    3  A    between atoms: C_4  and  C_2 
REMARK    4  A    between atoms: C_2  and  O_7 
REMARK    5  A    between atoms: C_5  and  C_3 
REMARK    6  A    between atoms: C_3  and  O_8 
REMARK    7  A    between atoms: C_6  and  C_4 
REMARK    8  A    between atoms: C_4  and  O_9 
ROOT
HETATM    1  C   UNK N   1      30.642  17.015   8.598  0.00  0.00     0.160 C 
ENDROOT
BRANCH   1   2
HETATM    2  C   UNK N   1      31.925  17.360   7.815  0.00  0.00     0.077 C 
BRANCH   2   3
HETATM    3  C   UNK N   1      33.110  17.839   8.676  0.00  0.00     0.221 C 
BRANCH   3   4
HETATM    4  C   UNK N   1      34.305  18.308   7.878  0.00  0.00     0.203 C 
HETATM    5  O   UNK N   1      34.445  17.928   6.726  0.00  0.00    -0.646 OA
HETATM    6  O   UNK N   1      35.234  19.117   8.422  0.00  0.00    -0.646 OA
ENDBRANCH   3   4
BRANCH   3   7
HETATM    7  O   UNK N   1      33.501  16.831   9.559  0.00  0.00    -0.385 OA
HETATM    8  H   UNK N   1      32.905  16.240  10.047  0.00  0.00     0.210 HD
ENDBRANCH   3   7
ENDBRANCH   2   3
ENDBRANCH   1   2
BRANCH   1   9
HETATM    9  C   UNK N   1      29.372  17.200   7.744  0.00  0.00     0.247 C 
BRANCH   9  10
HETATM   10  C   UNK N   1      28.301  18.068   8.363  0.00  0.00     0.205 C 
HETATM   11  O   UNK N   1      27.770  17.717   9.404  0.00  0.00    -0.646 OA
HETATM   12  O   UNK N   1      27.941  19.238   7.799  0.00  0.00    -0.646 OA
ENDBRANCH   9  10
BRANCH   9  13
HETATM   13  O   UNK N   1      29.722  17.721   6.494  0.00  0.00    -0.382 OA
HETATM   14  H   UNK N   1      30.398  18.403   6.357  0.00  0.00     0.210 HD
ENDBRANCH   9  13
ENDBRANCH   1   9
BRANCH   1  15
HETATM   15  O   UNK N   1      30.555  17.790   9.757  0.00  0.00    -0.392 OA
HETATM   16  H   UNK N   1      30.720  17.448  10.650  0.00  0.00     0.210 HD
ENDBRANCH   1  15
TORSDOF 8
ENDMDL
MODEL 5
REMARK VINA RESULT:      -5.0     16.107     17.111
REMARK  8 active torsions:
REMARK  status: ('A' for Active; 'I' for Inactive)
REMARK    1  A    between atoms: C_2  and  C_1 
REMARK    2  A    between atoms: C_3  and  C_1 
REMARK    3  A    between atoms: C_4  and  C_2 
REMARK    4  A    between atoms: C_2  and  O_7 
REMARK    5  A    between atoms: C_5  and  C_3 
REMARK    6  A    between atoms: C_3  and  O_8 
REMARK    7  A    between atoms: C_6  and  C_4 
REMARK    8  A    between atoms: C_4  and  O_9 
ROOT
HETATM    1  C   UNK N   1      20.040  17.745   2.597  0.00  0.00     0.160 C 
ENDROOT
BRANCH   1   2
HETATM    2  C   UNK N   1      19.487  19.182   2.536  0.00  0.00     0.077 C 
BRANCH   2   3
HETATM    3  C   UNK N   1      20.373  20.256   3.196  0.00  0.00     0.221 C 
BRANCH   3   4
HETATM    4  C   UNK N   1      21.520  20.727   2.333  0.00  0.00     0.203 C 
HETATM    5  O   UNK N   1      22.471  21.291   2.852  0.00  0.00    -0.646 OA
HETATM    6  O   UNK N   1      21.502  20.562   0.996  0.00  0.00    -0.646 OA
ENDBRANCH   3   4
BRANCH   3   7
HETATM    7  O   UNK N   1      20.864  19.790   4.417  0.00  0.00    -0.385 OA
HETATM    8  H   UNK N   1      21.783  19.538   4.601  0.00  0.00     0.210 HD
ENDBRANCH   3   7
ENDBRANCH   2   3
ENDBRANCH   1   2
BRANCH   1   9
HETATM    9  C   UNK N   1      20.031  17.058   1.216  0.00  0.00     0.247 C 
BRANCH   9  10
HETATM   10  C   UNK N   1      20.379  15.588   1.225  0.00  0.00     0.205 C 
HETATM   11  O   UNK N   1      19.576  14.783   1.672  0.00  0.00    -0.646 OA
HETATM   12  O   UNK N   1      21.548  15.145   0.724  0.00  0.00    -0.646 OA
ENDBRANCH   9  10
BRANCH   9  13
HETATM   13  O   UNK N   1      18.779  17.232   0.617  0.00  0.00    -0.382 OA
HETATM   14  H   UNK N   1      18.601  17.094  -0.326  0.00  0.00     0.210 HD
ENDBRANCH   9  13
ENDBRANCH   1   9
BRANCH   1  15
HETATM   15  O   UNK N   1      19.313  16.981   3.514  0.00  0.00    -0.392 OA
HETATM   16  H   UNK N   1      18.556  17.319   4.019  0.00  0.00     0.210 HD
ENDBRANCH   1  15
TORSDOF 8
ENDMDL
MODEL 6
REMARK VINA RESULT:      -4.9      1.826      4.978
REMARK  8 active torsions:
REMARK  status: ('A' for Active; 'I' for Inactive)
REMARK    1  A    between atoms: C_2  and  C_1 
REMARK    2  A    between atoms: C_3  and  C_1 
REMARK    3  A    between atoms: C_4  and  C_2 
REMARK    4  A    between atoms: C_2  and  O_7 
REMARK    5  A    between atoms: C_5  and  C_3 
REMARK    6  A    between atoms: C_3  and  O_8 
REMARK    7  A    between atoms: C_6  and  C_4 
REMARK    8  A    between atoms: C_4  and  O_9 
ROOT
HETATM    1  C   UNK N   1      34.591  16.557   9.943  0.00  0.00     0.160 C 
ENDROOT
BRANCH   1   2
HETATM    2  C   UNK N   1      35.024  15.194   9.369  0.00  0.00     0.077 C 
BRANCH   2   3
HETATM    3  C   UNK N   1      34.408  13.963  10.064  0.00  0.00     0.221 C 
BRANCH   3   4
HETATM    4  C   UNK N   1      33.493  13.148   9.181  0.00  0.00     0.203 C 
HETATM    5  O   UNK N   1      32.475  13.656   8.737  0.00  0.00    -0.646 OA
HETATM    6  O   UNK N   1      33.766  11.860   8.895  0.00  0.00    -0.646 OA
ENDBRANCH   3   4
BRANCH   3   7
HETATM    7  O   UNK N   1      33.725  14.355  11.216  0.00  0.00    -0.385 OA
HETATM    8  H   UNK N   1      32.782  14.580  11.269  0.00  0.00     0.210 HD
ENDBRANCH   3   7
ENDBRANCH   2   3
ENDBRANCH   1   2
BRANCH   1   9
HETATM    9  C   UNK N   1      33.757  17.375   8.937  0.00  0.00     0.247 C 
BRANCH   9  10
HETATM   10  C   UNK N   1      34.553  18.279   8.025  0.00  0.00     0.205 C 
HETATM   11  O   UNK N   1      34.496  18.114   6.816  0.00  0.00    -0.646 OA
HETATM   12  O   UNK N   1      35.303  19.283   8.520  0.00  0.00    -0.646 OA
ENDBRANCH   9  10
BRANCH   9  13
HETATM   13  O   UNK N   1      32.980  16.507   8.162  0.00  0.00    -0.382 OA
HETATM   14  H   UNK N   1      33.163  16.292   7.234  0.00  0.00     0.210 HD
ENDBRANCH   9  13
ENDBRANCH   1   9
BRANCH   1  15
HETATM   15  O   UNK N   1      35.709  17.294  10.345  0.00  0.00    -0.392 OA
HETATM   16  H   UNK N   1      35.663  18.081  10.911  0.00  0.00     0.210 HD
ENDBRANCH   1  15
TORSDOF 8
ENDMDL
MODEL 7
REMARK VINA RESULT:      -4.9      1.599      5.905
REMARK  8 active torsions:
REMARK  status: ('A' for Active; 'I' for Inactive)
REMARK    1  A    between atoms: C_2  and  C_1 
REMARK    2  A    between atoms: C_3  and  C_1 
REMARK    3  A    between atoms: C_4  and  C_2 
REMARK    4  A    between atoms: C_2  and  O_7 
REMARK    5  A    between atoms: C_5  and  C_3 
REMARK    6  A    between atoms: C_3  and  O_8 
REMARK    7  A    between atoms: C_6  and  C_4 
REMARK    8  A    between atoms: C_4  and  O_9 
ROOT
HETATM    1  C   UNK N   1      35.053  14.579  11.296  0.00  0.00     0.160 C 
ENDROOT
BRANCH   1   2
HETATM    2  C   UNK N   1      35.682  14.643  12.701  0.00  0.00     0.077 C 
BRANCH   2   3
HETATM    3  C   UNK N   1      36.432  13.371  13.143  0.00  0.00     0.221 C 
BRANCH   3   4
HETATM    4  C   UNK N   1      36.773  13.332  14.614  0.00  0.00     0.203 C 
HETATM    5  O   UNK N   1      36.966  14.379  15.214  0.00  0.00    -0.646 OA
HETATM    6  O   UNK N   1      36.893  12.163  15.273  0.00  0.00    -0.646 OA
ENDBRANCH   3   4
BRANCH   3   7
HETATM    7  O   UNK N   1      37.595  13.212  12.387  0.00  0.00    -0.385 OA
HETATM    8  H   UNK N   1      37.733  13.537  11.482  0.00  0.00     0.210 HD
ENDBRANCH   3   7
ENDBRANCH   2   3
ENDBRANCH   1   2
BRANCH   1   9
HETATM    9  C   UNK N   1      35.794  15.477  10.285  0.00  0.00     0.247 C 
BRANCH   9  10
HETATM   10  C   UNK N   1      35.043  16.714   9.850  0.00  0.00     0.205 C 
HETATM   11  O   UNK N   1      35.521  17.816  10.072  0.00  0.00    -0.646 OA
HETATM   12  O   UNK N   1      33.868  16.623   9.197  0.00  0.00    -0.646 OA
ENDBRANCH   9  10
BRANCH   9  13
HETATM   13  O   UNK N   1      37.032  15.852  10.815  0.00  0.00    -0.382 OA
HETATM   14  H   UNK N   1      37.777  15.245  10.946  0.00  0.00     0.210 HD
ENDBRANCH   9  13
ENDBRANCH   1   9
BRANCH   1  15
HETATM   15  O   UNK N   1      33.703  14.936  11.350  0.00  0.00    -0.392 OA
HETATM   16  H   UNK N   1      33.153  15.094  10.566  0.00  0.00     0.210 HD
ENDBRANCH   1  15
TORSDOF 8
ENDMDL
MODEL 8
REMARK VINA RESULT:      -4.9      1.810      5.904
REMARK  8 active torsions:
REMARK  status: ('A' for Active; 'I' for Inactive)
REMARK    1  A    between atoms: C_2  and  C_1 
REMARK    2  A    between atoms: C_3  and  C_1 
REMARK    3  A    between atoms: C_4  and  C_2 
REMARK    4  A    between atoms: C_2  and  O_7 
REMARK    5  A    between atoms: C_5  and  C_3 
REMARK    6  A    between atoms: C_3  and  O_8 
REMARK    7  A    between atoms: C_6  and  C_4 
REMARK    8  A    between atoms: C_4  and  O_9 
ROOT
HETATM    1  C   UNK N   1      35.460  14.371  11.542  0.00  0.00     0.160 C 
ENDROOT
BRANCH   1   2
HETATM    2  C   UNK N   1      36.079  14.747  12.902  0.00  0.00     0.077 C 
BRANCH   2   3
HETATM    3  C   UNK N   1      36.307  13.568  13.869  0.00  0.00     0.221 C 
BRANCH   3   4
HETATM    4  C   UNK N   1      35.040  13.003  14.465  0.00  0.00     0.203 C 
HETATM    5  O   UNK N   1      34.714  13.322  15.599  0.00  0.00    -0.646 OA
HETATM    6  O   UNK N   1      34.274  12.131  13.781  0.00  0.00    -0.646 OA
ENDBRANCH   3   4
BRANCH   3   7
HETATM    7  O   UNK N   1      37.180  13.947  14.890  0.00  0.00    -0.385 OA
HETATM    8  H   UNK N   1      37.097  14.740  15.443  0.00  0.00     0.210 HD
ENDBRANCH   3   7
ENDBRANCH   2   3
ENDBRANCH   1   2
BRANCH   1   9
HETATM    9  C   UNK N   1      35.984  15.261  10.398  0.00  0.00     0.247 C 
BRANCH   9  10
HETATM   10  C   UNK N   1      35.080  16.407  10.007  0.00  0.00     0.205 C 
HETATM   11  O   UNK N   1      33.990  16.171   9.511  0.00  0.00    -0.646 OA
HETATM   12  O   UNK N   1      35.444  17.687  10.223  0.00  0.00    -0.646 OA
ENDBRANCH   9  10
BRANCH   9  13
HETATM   13  O   UNK N   1      37.244  15.764  10.737  0.00  0.00    -0.382 OA
HETATM   14  H   UNK N   1      37.991  15.216  11.025  0.00  0.00     0.210 HD
ENDBRANCH   9  13
ENDBRANCH   1   9
BRANCH   1  15
HETATM   15  O   UNK N   1      34.066  14.446  11.604  0.00  0.00    -0.392 OA
HETATM   16  H   UNK N   1      33.498  14.608  10.834  0.00  0.00     0.210 HD
ENDBRANCH   1  15
TORSDOF 8
ENDMDL
MODEL 9
REMARK VINA RESULT:      -4.8      1.739      3.260
REMARK  8 active torsions:
REMARK  status: ('A' for Active; 'I' for Inactive)
REMARK    1  A    between atoms: C_2  and  C_1 
REMARK    2  A    between atoms: C_3  and  C_1 
REMARK    3  A    between atoms: C_4  and  C_2 
REMARK    4  A    between atoms: C_2  and  O_7 
REMARK    5  A    between atoms: C_5  and  C_3 
REMARK    6  A    between atoms: C_3  and  O_8 
REMARK    7  A    between atoms: C_6  and  C_4 
REMARK    8  A    between atoms: C_4  and  O_9 
ROOT
HETATM    1  C   UNK N   1      35.072  14.022  12.828  0.00  0.00     0.160 C 
ENDROOT
BRANCH   1   2
HETATM    2  C   UNK N   1      35.682  14.652  11.560  0.00  0.00     0.077 C 
BRANCH   2   3
HETATM    3  C   UNK N   1      34.663  15.242  10.565  0.00  0.00     0.221 C 
BRANCH   3   4
HETATM    4  C   UNK N   1      34.947  16.669  10.160  0.00  0.00     0.203 C 
HETATM    5  O   UNK N   1      35.947  17.227  10.586  0.00  0.00    -0.646 OA
HETATM    6  O   UNK N   1      34.104  17.349   9.359  0.00  0.00    -0.646 OA
ENDBRANCH   3   4
BRANCH   3   7
HETATM    7  O   UNK N   1      33.372  15.149  11.088  0.00  0.00    -0.385 OA
HETATM    8  H   UNK N   1      32.754  14.413  10.949  0.00  0.00     0.210 HD
ENDBRANCH   3   7
ENDBRANCH   2   3
ENDBRANCH   1   2
BRANCH   1   9
HETATM    9  C   UNK N   1      36.127  13.796  13.930  0.00  0.00     0.247 C 
BRANCH   9  10
HETATM   10  C   UNK N   1      35.639  13.037  15.142  0.00  0.00     0.205 C 
HETATM   11  O   UNK N   1      36.440  12.421  15.827  0.00  0.00    -0.646 OA
HETATM   12  O   UNK N   1      34.339  13.051  15.497  0.00  0.00    -0.646 OA
ENDBRANCH   9  10
BRANCH   9  13
HETATM   13  O   UNK N   1      37.234  13.136  13.388  0.00  0.00    -0.382 OA
HETATM   14  H   UNK N   1      37.784  13.491  12.672  0.00  0.00     0.210 HD
ENDBRANCH   9  13
ENDBRANCH   1   9
BRANCH   1  15
HETATM   15  O   UNK N   1      34.442  12.815  12.517  0.00  0.00    -0.392 OA
HETATM   16  H   UNK N   1      33.479  12.699  12.489  0.00  0.00     0.210 HD
ENDBRANCH   1  15
TORSDOF 8
ENDMDL
