MODEL 1
REMARK VINA RESULT:      -3.2      0.000      0.000
REMARK  2 active torsions:
REMARK  status: ('A' for Active; 'I' for Inactive)
REMARK    1  A    between atoms: Cu_5  and  Cu_1 
REMARK    2  A    between atoms: S_2  and  Cu_5 
ROOT
HETATM    1 Cu   UNK N   1      23.792  13.185  13.996  0.00  0.00     0.000 Cu
HETATM    2  S   UNK N   1      23.150  11.932  12.256  0.00  0.00     0.000 SA
HETATM    3 Cu   UNK N   1      22.472  10.634  10.655  0.00  0.00     0.000 Cu
HETATM    4 Cu   UNK N   1      23.911  13.111  11.242  0.00  0.00     0.000 Cu
HETATM    5 Cu   UNK N   1      22.420  10.823  13.435  0.00  0.00     0.000 Cu
ENDROOT
TORSDOF 2
ENDMDL
MODEL 2
REMARK VINA RESULT:      -3.2      0.132      3.561
REMARK  2 active torsions:
REMARK  status: ('A' for Active; 'I' for Inactive)
REMARK    1  A    between atoms: Cu_5  and  Cu_1 
REMARK    2  A    between atoms: S_2  and  Cu_5 
ROOT
HETATM    1 Cu   UNK N   1      22.576  10.631  10.698  0.00  0.00     0.000 Cu
HETATM    2  S   UNK N   1      23.185  11.908  12.433  0.00  0.00     0.000 SA
HETATM    3 Cu   UNK N   1      23.836  13.224  14.030  0.00  0.00     0.000 Cu
HETATM    4 Cu   UNK N   1      22.347  10.777  13.442  0.00  0.00     0.000 Cu
HETATM    5 Cu   UNK N   1      23.996  12.965  11.260  0.00  0.00     0.000 Cu
ENDROOT
TORSDOF 2
ENDMDL
MODEL 3
REMARK VINA RESULT:      -3.1      0.125      2.217
REMARK  2 active torsions:
REMARK  status: ('A' for Active; 'I' for Inactive)
REMARK    1  A    between atoms: Cu_5  and  Cu_1 
REMARK    2  A    between atoms: S_2  and  Cu_5 
ROOT
HETATM    1 Cu   UNK N   1      23.842  13.173  13.979  0.00  0.00     0.000 Cu
HETATM    2  S   UNK N   1      23.068  11.918  12.294  0.00  0.00     0.000 SA
HETATM    3 Cu   UNK N   1      22.370  10.790  10.577  0.00  0.00     0.000 Cu
HETATM    4 Cu   UNK N   1      22.439  10.847  13.501  0.00  0.00     0.000 Cu
HETATM    5 Cu   UNK N   1      23.775  13.117  11.192  0.00  0.00     0.000 Cu
ENDROOT
TORSDOF 2
ENDMDL
MODEL 4
REMARK VINA RESULT:      -3.1      0.109      2.789
REMARK  2 active torsions:
REMARK  status: ('A' for Active; 'I' for Inactive)
REMARK    1  A    between atoms: Cu_5  and  Cu_1 
REMARK    2  A    between atoms: S_2  and  Cu_5 
ROOT
HETATM    1 Cu   UNK N   1      22.560  10.621  10.672  0.00  0.00     0.000 Cu
HETATM    2  S   UNK N   1      23.214  11.954  12.348  0.00  0.00     0.000 SA
HETATM    3 Cu   UNK N   1      23.789  13.163  14.055  0.00  0.00     0.000 Cu
HETATM    4 Cu   UNK N   1      23.944  12.960  11.141  0.00  0.00     0.000 Cu
HETATM    5 Cu   UNK N   1      22.414  10.816  13.450  0.00  0.00     0.000 Cu
ENDROOT
TORSDOF 2
ENDMDL
MODEL 5
REMARK VINA RESULT:      -3.0      0.502      2.565
REMARK  2 active torsions:
REMARK  status: ('A' for Active; 'I' for Inactive)
REMARK    1  A    between atoms: Cu_5  and  Cu_1 
REMARK    2  A    between atoms: S_2  and  Cu_5 
ROOT
HETATM    1 Cu   UNK N   1      22.173  10.591  13.478  0.00  0.00     0.000 Cu
HETATM    2  S   UNK N   1      23.096  11.975  11.980  0.00  0.00     0.000 SA
HETATM    3 Cu   UNK N   1      24.035  13.388  10.628  0.00  0.00     0.000 Cu
HETATM    4 Cu   UNK N   1      22.445  10.937  10.756  0.00  0.00     0.000 Cu
HETATM    5 Cu   UNK N   1      23.689  12.928  13.355  0.00  0.00     0.000 Cu
ENDROOT
TORSDOF 2
ENDMDL
MODEL 6
REMARK VINA RESULT:      -3.0     13.153     14.443
REMARK  2 active torsions:
REMARK  status: ('A' for Active; 'I' for Inactive)
REMARK    1  A    between atoms: Cu_5  and  Cu_1 
REMARK    2  A    between atoms: S_2  and  Cu_5 
ROOT
HETATM    1 Cu   UNK N   1      20.223  18.814  -0.074  0.00  0.00     0.000 Cu
HETATM    2  S   UNK N   1      20.699  20.500   1.320  0.00  0.00     0.000 SA
HETATM    3 Cu   UNK N   1      21.243  22.053   2.734  0.00  0.00     0.000 Cu
HETATM    4 Cu   UNK N   1      19.583  21.454   0.401  0.00  0.00     0.000 Cu
HETATM    5 Cu   UNK N   1      21.805  19.386   2.150  0.00  0.00     0.000 Cu
ENDROOT
TORSDOF 2
ENDMDL
MODEL 7
REMARK VINA RESULT:      -3.0     13.140     14.501
REMARK  2 active torsions:
REMARK  status: ('A' for Active; 'I' for Inactive)
REMARK    1  A    between atoms: Cu_5  and  Cu_1 
REMARK    2  A    between atoms: S_2  and  Cu_5 
ROOT
HETATM    1 Cu   UNK N   1      20.222  18.780  -0.100  0.00  0.00     0.000 Cu
HETATM    2  S   UNK N   1      20.692  20.414   1.356  0.00  0.00     0.000 SA
HETATM    3 Cu   UNK N   1      21.066  22.077   2.699  0.00  0.00     0.000 Cu
HETATM    4 Cu   UNK N   1      21.721  19.277   2.161  0.00  0.00     0.000 Cu
HETATM    5 Cu   UNK N   1      19.599  21.449   0.415  0.00  0.00     0.000 Cu
ENDROOT
TORSDOF 2
ENDMDL
MODEL 8
REMARK VINA RESULT:      -2.9      0.690      2.360
REMARK  2 active torsions:
REMARK  status: ('A' for Active; 'I' for Inactive)
REMARK    1  A    between atoms: Cu_5  and  Cu_1 
REMARK    2  A    between atoms: S_2  and  Cu_5 
ROOT
HETATM    1 Cu   UNK N   1      24.899  13.329  11.184  0.00  0.00     0.000 Cu
HETATM    2  S   UNK N   1      23.468  11.972  12.243  0.00  0.00     0.000 SA
HETATM    3 Cu   UNK N   1      22.098  10.730  13.378  0.00  0.00     0.000 Cu
HETATM    4 Cu   UNK N   1      23.349  11.088  10.758  0.00  0.00     0.000 Cu
HETATM    5 Cu   UNK N   1      23.706  12.986  13.681  0.00  0.00     0.000 Cu
ENDROOT
TORSDOF 2
ENDMDL
MODEL 9
REMARK VINA RESULT:      -2.8      0.743      2.435
REMARK  2 active torsions:
REMARK  status: ('A' for Active; 'I' for Inactive)
REMARK    1  A    between atoms: Cu_5  and  Cu_1 
REMARK    2  A    between atoms: S_2  and  Cu_5 
ROOT
HETATM    1 Cu   UNK N   1      25.052  13.119  11.343  0.00  0.00     0.000 Cu
HETATM    2  S   UNK N   1      23.473  11.944  12.409  0.00  0.00     0.000 SA
HETATM    3 Cu   UNK N   1      21.931  10.730  13.336  0.00  0.00     0.000 Cu
HETATM    4 Cu   UNK N   1      23.707  13.018  13.748  0.00  0.00     0.000 Cu
HETATM    5 Cu   UNK N   1      23.359  10.937  10.952  0.00  0.00     0.000 Cu
ENDROOT
TORSDOF 2
ENDMDL
