MODEL 1
REMARK VINA RESULT:      -7.3      0.000      0.000
REMARK WARNING: 32 MAX_TORS EXCEEDED!!!
REMARK  34 active torsions:
REMARK  status: ('A' for Active; 'I' for Inactive)
REMARK    1  A    between atoms: C_5  and  C_4 
REMARK    2  A    between atoms: C_15  and  C_4 
REMARK    3  A    between atoms: N_31  and  C_5 
REMARK    4  A    between atoms: C_7  and  C_6 
REMARK    5  A    between atoms: N_29  and  C_6 
REMARK    6  A    between atoms: S_65  and  C_7 
REMARK    7  A    between atoms: C_16  and  C_8 
REMARK    8  A    between atoms: C_27  and  C_8 
REMARK    9  A    between atoms: C_17  and  C_9 
REMARK   10  A    between atoms: C_27  and  C_9 
REMARK   11  A    between atoms: C_14  and  C_10 
REMARK   12  A    between atoms: O_57  and  C_10 
REMARK   13  A    between atoms: C_26  and  C_11 
REMARK   14  A    between atoms: O_58  and  C_11 
REMARK   15  A    between atoms: N_29  and  C_15 
REMARK   16  A    between atoms: O_40  and  C_15 
REMARK   17  A    between atoms: S_65  and  C_17 
REMARK   18  A    between atoms: C_19  and  O_45 
REMARK   19  A    between atoms: C_20  and  O_60 
REMARK   20  A    between atoms: C_24  and  C_21 
REMARK   21  A    between atoms: C_26  and  C_21 
REMARK   22  A    between atoms: C_21  and  O_46 
REMARK   23  A    between atoms: N_28  and  C_22 
REMARK   24  A    between atoms: N_31  and  C_24 
REMARK   25  A    between atoms: O_47  and  C_24 
REMARK   26  A    between atoms: C_25  and  N_39 
REMARK   27  A    between atoms: C_27  and  O_49 
REMARK   28  A    between atoms: P_63  and  O_53 
REMARK   29  A    between atoms: P_64  and  O_55 
REMARK   30  A    between atoms: P_63  and  O_57 
REMARK   31  A    between atoms: P_64  and  O_58 
REMARK   32  A    between atoms: P_62  and  O_60 
REMARK   33  A    between atoms: P_63  and  O_61 
REMARK   34  A    between atoms: P_64  and  O_61 
ROOT
HETATM    1  O   UNK N   1      28.348  18.195   8.809  0.00  0.00    -0.631 OA
HETATM    2  P   UNK N   1      28.044  17.856   7.326  0.00  0.00     0.401 P 
ENDROOT
BRANCH   2   3
HETATM    3  O   UNK N   1      27.067  19.169   6.749  0.00  0.00    -0.307 OA
HETATM    4  H   UNK N   1      26.599  19.739   7.379  0.00  0.00     0.222 HD
ENDBRANCH   2   3
BRANCH   2   5
HETATM    5  O   UNK N   1      29.591  17.795   6.520  0.00  0.00    -0.296 OA
BRANCH   5   6
HETATM    6  C   UNK N   1      30.235  16.604   6.896  0.00  0.00     0.192 C 
BRANCH   6   7
HETATM    7  C   UNK N   1      31.763  16.729   6.940  0.00  0.00     0.008 C 
HETATM    8  C   UNK N   1      32.310  15.397   7.437  0.00  0.00     0.020 C 
HETATM    9  C   UNK N   1      32.322  16.953   5.534  0.00  0.00     0.020 C 
BRANCH   7  10
HETATM   10  C   UNK N   1      32.176  17.881   7.897  0.00  0.00     0.202 C 
BRANCH  10  11
HETATM   11  C   UNK N   1      33.619  17.782   8.319  0.00  0.00     0.141 C 
BRANCH  11  12
HETATM   12  N   UNK N   1      33.929  17.327   9.483  0.00  0.00    -0.372 N 
ATOM     13  HN  UNK N   1      33.250  17.394  10.242  1.00  0.00     0.161 HD
BRANCH  12  14
HETATM   14  C   UNK N   1      35.212  16.724   9.739  0.00  0.00     0.129 C 
BRANCH  14  15
HETATM   15  C   UNK N   1      35.308  16.239  11.170  0.00  0.00     0.103 C 
BRANCH  15  16
HETATM   16  C   UNK N   1      34.647  14.906  11.258  0.00  0.00     0.112 C 
BRANCH  16  17
HETATM   17  N   UNK N   1      35.369  13.847  11.378  0.00  0.00    -0.374 N 
ATOM     18  HN  UNK N   1      36.307  13.928  11.770  1.00  0.00     0.161 HD
BRANCH  17  19
HETATM   19  C   UNK N   1      34.889  12.548  10.974  0.00  0.00     0.132 C 
BRANCH  19  20
HETATM   20  C   UNK N   1      36.018  11.534  11.032  0.00  0.00     0.102 C 
BRANCH  20  21
HETATM   21  S   UNK N   1      37.431  12.237  11.934  0.00  0.00    -0.091 SA
BRANCH  21  22
HETATM   22  C   UNK N   1      37.629  10.788  12.981  0.00  0.00     0.188 C 
HETATM   23  O   UNK N   1      37.588   9.675  12.482  0.00  0.00    -0.285 OA
BRANCH  22  24
HETATM   24  C   UNK N   1      37.829  10.926  14.464  0.00  0.00     0.128 C 
BRANCH  24  25
HETATM   25  C   UNK N   1      36.579  10.649  15.303  0.00  0.00     0.071 C 
HETATM   26  C   UNK N   1      36.991   9.741  16.448  0.00  0.00     0.047 C 
BRANCH  25  27
HETATM   27  C   UNK N   1      36.009  11.963  15.850  0.00  0.00     0.150 C 
BRANCH  27  28
HETATM   28  C   UNK N   1      34.944  12.566  14.981  0.00  0.00     0.175 C 
HETATM   29  O   UNK N   1      35.155  13.620  14.406  0.00  0.00    -0.648 OA
HETATM   30  O   UNK N   1      33.762  11.940  14.820  0.00  0.00    -0.648 OA
ENDBRANCH  27  28
ENDBRANCH  25  27
BRANCH  25  31
HETATM   31  O   UNK N   1      35.622   9.988  14.528  0.00  0.00    -0.389 OA
HETATM   32  H   UNK N   1      35.785   9.766  13.598  0.00  0.00     0.210 HD
ENDBRANCH  25  31
ENDBRANCH  24  25
ENDBRANCH  22  24
ENDBRANCH  21  22
ENDBRANCH  20  21
ENDBRANCH  19  20
ENDBRANCH  17  19
ENDBRANCH  16  17
BRANCH  16  33
HETATM   33  O   UNK N   1      33.300  14.826  11.230  0.00  0.00    -0.350 OA
ATOM     34  HO  UNK N   1      32.812  15.320  10.582  1.00  0.00     0.219 HD
ENDBRANCH  16  33
ENDBRANCH  15  16
ENDBRANCH  14  15
ENDBRANCH  12  14
ENDBRANCH  11  12
BRANCH  11  35
HETATM   35  O   UNK N   1      34.584  18.138   7.442  0.00  0.00    -0.348 OA
ATOM     36  HO  UNK N   1      35.463  17.798   7.561  1.00  0.00     0.219 HD
ENDBRANCH  11  35
ENDBRANCH  10  11
BRANCH  10  37
HETATM   37  O   UNK N   1      31.348  17.905   9.025  0.00  0.00    -0.387 OA
HETATM   38  H   UNK N   1      30.533  18.390   9.229  0.00  0.00     0.210 HD
ENDBRANCH  10  37
ENDBRANCH   7  10
ENDBRANCH   6   7
ENDBRANCH   5   6
ENDBRANCH   2   5
BRANCH   2  39
HETATM   39  O   UNK N   1      27.176  16.344   7.339  0.00  0.00    -0.195 OA
BRANCH  39  40
HETATM   40  P   UNK N   1      26.407  16.154   5.783  0.00  0.00     0.401 P 
HETATM   41  O   UNK N   1      27.457  16.330   4.652  0.00  0.00    -0.631 OA
BRANCH  40  42
HETATM   42  O   UNK N   1      25.287  17.462   5.574  0.00  0.00    -0.307 OA
HETATM   43  H   UNK N   1      25.091  18.242   5.031  0.00  0.00     0.222 HD
ENDBRANCH  40  42
BRANCH  40  44
HETATM   44  O   UNK N   1      25.530  14.660   5.579  0.00  0.00    -0.294 OA
BRANCH  44  45
HETATM   45  C   UNK N   1      25.072  14.225   6.834  0.00  0.00     0.215 C 
BRANCH  45  46
HETATM   46  C   UNK N   1      23.711  14.849   7.153  0.00  0.00     0.180 C 
HETATM   47  C   UNK N   1      22.725  13.811   7.723  0.00  0.00     0.199 C 
HETATM   48  C   UNK N   1      21.445  14.361   7.145  0.00  0.00     0.199 C 
HETATM   49  C   UNK N   1      21.950  14.700   5.752  0.00  0.00     0.262 C 
HETATM   50  O   UNK N   1      23.151  15.399   5.971  0.00  0.00    -0.353 OA
BRANCH  47  51
HETATM   51  O   UNK N   1      22.647  13.765   9.135  0.00  0.00    -0.272 OA
BRANCH  51  52
HETATM   52  P   UNK N   1      23.556  12.407   9.774  0.00  0.00     0.422 P 
HETATM   53  O   UNK N   1      22.847  11.756  11.219  0.00  0.00    -0.617 OA
HETATM   54  O   UNK N   1      23.717  11.161   8.577  0.00  0.00    -0.617 OA
HETATM   55  O   UNK N   1      24.999  12.869  10.110  0.00  0.00    -0.617 OA
ENDBRANCH  51  52
ENDBRANCH  47  51
BRANCH  48  56
HETATM   56  O   UNK N   1      20.413  13.419   7.153  0.00  0.00    -0.388 OA
HETATM   57  H   UNK N   1      19.455  13.390   7.298  0.00  0.00     0.210 HD
ENDBRANCH  48  56
BRANCH  49  58
HETATM   58  N   UNK N   1      21.054  15.496   4.906  0.00  0.00    -0.297 N 
HETATM   59  C   UNK N   1      19.814  15.079   4.532  0.00  0.00     0.188 A 
HETATM   60  N   UNK N   1      19.178  16.012   3.773  0.00  0.00    -0.346 N 
HETATM   61  C   UNK N   1      20.052  17.029   3.697  0.00  0.00     0.122 A 
ATOM     62  HN  UNK N   1      18.248  15.954   3.358  1.00  0.00     0.167 HD
HETATM   63  C   UNK N   1      19.922  18.258   3.074  0.00  0.00     0.131 A 
HETATM   64  C   UNK N   1      21.180  16.721   4.369  0.00  0.00     0.142 A 
HETATM   65  N   UNK N   1      20.963  19.136   3.170  0.00  0.00    -0.337 N 
HETATM   66  C   UNK N   1      22.105  18.806   3.861  0.00  0.00     0.183 A 
ATOM     67  HN  UNK N   1      20.892  20.051   2.723  1.00  0.00     0.168 HD
HETATM   68  N   UNK N   1      22.219  17.584   4.470  0.00  0.00    -0.336 N 
ATOM     69  HN  UNK N   1      23.063  17.332   4.986  1.00  0.00     0.168 HD
BRANCH  63  70
HETATM   70  N   UNK N   1      18.747  18.604   2.375  0.00  0.00    -0.383 N 
HETATM   71  H   UNK N   1      18.579  18.229   1.480  0.00  0.00     0.157 HD
HETATM   72  H   UNK N   1      18.097  19.220   2.781  0.00  0.00     0.157 HD
ENDBRANCH  63  70
ENDBRANCH  49  58
ENDBRANCH  45  46
ENDBRANCH  44  45
ENDBRANCH  40  44
ENDBRANCH  39  40
ENDBRANCH   2  39
TORSDOF 34
ENDMDL
MODEL 2
REMARK VINA RESULT:      -7.2      2.778      4.986
REMARK WARNING: 32 MAX_TORS EXCEEDED!!!
REMARK  34 active torsions:
REMARK  status: ('A' for Active; 'I' for Inactive)
REMARK    1  A    between atoms: C_5  and  C_4 
REMARK    2  A    between atoms: C_15  and  C_4 
REMARK    3  A    between atoms: N_31  and  C_5 
REMARK    4  A    between atoms: C_7  and  C_6 
REMARK    5  A    between atoms: N_29  and  C_6 
REMARK    6  A    between atoms: S_65  and  C_7 
REMARK    7  A    between atoms: C_16  and  C_8 
REMARK    8  A    between atoms: C_27  and  C_8 
REMARK    9  A    between atoms: C_17  and  C_9 
REMARK   10  A    between atoms: C_27  and  C_9 
REMARK   11  A    between atoms: C_14  and  C_10 
REMARK   12  A    between atoms: O_57  and  C_10 
REMARK   13  A    between atoms: C_26  and  C_11 
REMARK   14  A    between atoms: O_58  and  C_11 
REMARK   15  A    between atoms: N_29  and  C_15 
REMARK   16  A    between atoms: O_40  and  C_15 
REMARK   17  A    between atoms: S_65  and  C_17 
REMARK   18  A    between atoms: C_19  and  O_45 
REMARK   19  A    between atoms: C_20  and  O_60 
REMARK   20  A    between atoms: C_24  and  C_21 
REMARK   21  A    between atoms: C_26  and  C_21 
REMARK   22  A    between atoms: C_21  and  O_46 
REMARK   23  A    between atoms: N_28  and  C_22 
REMARK   24  A    between atoms: N_31  and  C_24 
REMARK   25  A    between atoms: O_47  and  C_24 
REMARK   26  A    between atoms: C_25  and  N_39 
REMARK   27  A    between atoms: C_27  and  O_49 
REMARK   28  A    between atoms: P_63  and  O_53 
REMARK   29  A    between atoms: P_64  and  O_55 
REMARK   30  A    between atoms: P_63  and  O_57 
REMARK   31  A    between atoms: P_64  and  O_58 
REMARK   32  A    between atoms: P_62  and  O_60 
REMARK   33  A    between atoms: P_63  and  O_61 
REMARK   34  A    between atoms: P_64  and  O_61 
ROOT
HETATM    1  O   UNK N   1      28.288  15.366   5.174  0.00  0.00    -0.631 OA
HETATM    2  P   UNK N   1      28.105  16.731   5.888  0.00  0.00     0.401 P 
ENDROOT
BRANCH   2   3
HETATM    3  O   UNK N   1      26.602  16.599   6.746  0.00  0.00    -0.307 OA
HETATM    4  H   UNK N   1      25.780  16.914   6.337  0.00  0.00     0.222 HD
ENDBRANCH   2   3
BRANCH   2   5
HETATM    5  O   UNK N   1      29.460  16.891   6.976  0.00  0.00    -0.296 OA
BRANCH   5   6
HETATM    6  C   UNK N   1      30.605  17.173   6.212  0.00  0.00     0.192 C 
BRANCH   6   7
HETATM    7  C   UNK N   1      31.915  16.831   6.933  0.00  0.00     0.008 C 
HETATM    8  C   UNK N   1      31.713  15.486   7.618  0.00  0.00     0.020 C 
HETATM    9  C   UNK N   1      33.052  16.660   5.923  0.00  0.00     0.020 C 
BRANCH   7  10
HETATM   10  C   UNK N   1      32.253  17.932   7.976  0.00  0.00     0.202 C 
BRANCH  10  11
HETATM   11  C   UNK N   1      33.693  17.879   8.414  0.00  0.00     0.141 C 
BRANCH  11  12
HETATM   12  N   UNK N   1      34.011  17.357   9.548  0.00  0.00    -0.372 N 
ATOM     13  HN  UNK N   1      33.424  17.538  10.362  1.00  0.00     0.161 HD
BRANCH  12  14
HETATM   14  C   UNK N   1      35.177  16.523   9.692  0.00  0.00     0.129 C 
BRANCH  14  15
HETATM   15  C   UNK N   1      34.835  15.066   9.456  0.00  0.00     0.103 C 
BRANCH  15  16
HETATM   16  C   UNK N   1      34.148  14.544  10.671  0.00  0.00     0.112 C 
BRANCH  16  17
HETATM   17  N   UNK N   1      34.671  13.564  11.322  0.00  0.00    -0.374 N 
ATOM     18  HN  UNK N   1      34.160  12.684  11.388  1.00  0.00     0.161 HD
BRANCH  17  19
HETATM   19  C   UNK N   1      35.960  13.674  11.961  0.00  0.00     0.132 C 
BRANCH  19  20
HETATM   20  C   UNK N   1      35.798  14.213  13.372  0.00  0.00     0.102 C 
BRANCH  20  21
HETATM   21  S   UNK N   1      36.704  13.157  14.541  0.00  0.00    -0.091 SA
BRANCH  21  22
HETATM   22  C   UNK N   1      35.278  12.114  14.878  0.00  0.00     0.188 C 
HETATM   23  O   UNK N   1      34.200  12.630  15.124  0.00  0.00    -0.285 OA
BRANCH  22  24
HETATM   24  C   UNK N   1      35.398  10.616  14.877  0.00  0.00     0.128 C 
BRANCH  24  25
HETATM   25  C   UNK N   1      35.286   9.971  13.493  0.00  0.00     0.071 C 
HETATM   26  C   UNK N   1      35.392   8.468  13.681  0.00  0.00     0.047 C 
BRANCH  25  27
HETATM   27  C   UNK N   1      33.940  10.330  12.852  0.00  0.00     0.150 C 
BRANCH  27  28
HETATM   28  C   UNK N   1      33.875  10.033  11.382  0.00  0.00     0.175 C 
HETATM   29  O   UNK N   1      34.507  10.719  10.597  0.00  0.00    -0.648 OA
HETATM   30  O   UNK N   1      33.137   9.003  10.927  0.00  0.00    -0.648 OA
ENDBRANCH  27  28
ENDBRANCH  25  27
BRANCH  25  31
HETATM   31  O   UNK N   1      36.341  10.397  12.682  0.00  0.00    -0.389 OA
HETATM   32  H   UNK N   1      36.184  10.808  11.817  0.00  0.00     0.210 HD
ENDBRANCH  25  31
ENDBRANCH  24  25
ENDBRANCH  22  24
ENDBRANCH  21  22
ENDBRANCH  20  21
ENDBRANCH  19  20
ENDBRANCH  17  19
ENDBRANCH  16  17
BRANCH  16  33
HETATM   33  O   UNK N   1      32.999  15.116  11.087  0.00  0.00    -0.350 OA
ATOM     34  HO  UNK N   1      32.192  14.948  10.614  1.00  0.00     0.219 HD
ENDBRANCH  16  33
ENDBRANCH  15  16
ENDBRANCH  14  15
ENDBRANCH  12  14
ENDBRANCH  11  12
BRANCH  11  35
HETATM   35  O   UNK N   1      34.649  18.347   7.582  0.00  0.00    -0.348 OA
ATOM     36  HO  UNK N   1      34.831  17.877   6.777  1.00  0.00     0.219 HD
ENDBRANCH  11  35
ENDBRANCH  10  11
BRANCH  10  37
HETATM   37  O   UNK N   1      31.410  17.832   9.088  0.00  0.00    -0.387 OA
HETATM   38  H   UNK N   1      31.487  18.157   9.999  0.00  0.00     0.210 HD
ENDBRANCH  10  37
ENDBRANCH   7  10
ENDBRANCH   6   7
ENDBRANCH   5   6
ENDBRANCH   2   5
BRANCH   2  39
HETATM   39  O   UNK N   1      28.042  17.936   4.630  0.00  0.00    -0.195 OA
BRANCH  39  40
HETATM   40  P   UNK N   1      27.033  19.245   5.192  0.00  0.00     0.401 P 
HETATM   41  O   UNK N   1      27.527  20.588   4.588  0.00  0.00    -0.631 OA
BRANCH  40  42
HETATM   42  O   UNK N   1      27.263  19.403   6.905  0.00  0.00    -0.307 OA
HETATM   43  H   UNK N   1      26.827  19.672   7.728  0.00  0.00     0.222 HD
ENDBRANCH  40  42
BRANCH  40  44
HETATM   44  O   UNK N   1      25.327  19.030   4.898  0.00  0.00    -0.294 OA
BRANCH  44  45
HETATM   45  C   UNK N   1      25.158  18.249   3.743  0.00  0.00     0.215 C 
BRANCH  45  46
HETATM   46  C   UNK N   1      23.887  17.404   3.850  0.00  0.00     0.180 C 
HETATM   47  C   UNK N   1      22.629  18.279   4.012  0.00  0.00     0.199 C 
HETATM   48  C   UNK N   1      21.817  17.363   4.893  0.00  0.00     0.199 C 
HETATM   49  C   UNK N   1      22.925  16.904   5.828  0.00  0.00     0.262 C 
HETATM   50  O   UNK N   1      23.981  16.542   4.973  0.00  0.00    -0.353 OA
BRANCH  47  51
HETATM   51  O   UNK N   1      21.929  18.557   2.814  0.00  0.00    -0.272 OA
BRANCH  51  52
HETATM   52  P   UNK N   1      21.571  20.269   2.673  0.00  0.00     0.422 P 
HETATM   53  O   UNK N   1      21.065  20.710   1.072  0.00  0.00    -0.617 OA
HETATM   54  O   UNK N   1      20.366  20.740   3.828  0.00  0.00    -0.617 OA
HETATM   55  O   UNK N   1      22.843  21.087   3.020  0.00  0.00    -0.617 OA
ENDBRANCH  51  52
ENDBRANCH  47  51
BRANCH  48  56
HETATM   56  O   UNK N   1      20.780  18.037   5.543  0.00  0.00    -0.388 OA
HETATM   57  H   UNK N   1      20.070  17.845   6.175  0.00  0.00     0.210 HD
ENDBRANCH  48  56
BRANCH  49  58
HETATM   58  N   UNK N   1      22.602  15.791   6.727  0.00  0.00    -0.297 N 
HETATM   59  C   UNK N   1      21.364  15.590   7.253  0.00  0.00     0.188 A 
HETATM   60  N   UNK N   1      21.324  14.474   8.032  0.00  0.00    -0.346 N 
HETATM   61  C   UNK N   1      22.570  13.979   7.965  0.00  0.00     0.122 A 
ATOM     62  HN  UNK N   1      20.528  14.100   8.547  1.00  0.00     0.167 HD
HETATM   63  C   UNK N   1      23.094  12.834   8.539  0.00  0.00     0.131 A 
HETATM   64  C   UNK N   1      23.341  14.768   7.189  0.00  0.00     0.142 A 
HETATM   65  N   UNK N   1      24.404  12.537   8.290  0.00  0.00    -0.337 N 
HETATM   66  C   UNK N   1      25.175  13.353   7.496  0.00  0.00     0.183 A 
ATOM     67  HN  UNK N   1      24.816  11.698   8.699  1.00  0.00     0.168 HD
HETATM   68  N   UNK N   1      24.641  14.483   6.936  0.00  0.00    -0.336 N 
ATOM     69  HN  UNK N   1      25.206  15.092   6.344  1.00  0.00     0.168 HD
BRANCH  63  70
HETATM   70  N   UNK N   1      22.303  11.990   9.345  0.00  0.00    -0.383 N 
HETATM   71  H   UNK N   1      22.676  11.611  10.174  0.00  0.00     0.157 HD
HETATM   72  H   UNK N   1      21.380  11.780   9.079  0.00  0.00     0.157 HD
ENDBRANCH  63  70
ENDBRANCH  49  58
ENDBRANCH  45  46
ENDBRANCH  44  45
ENDBRANCH  40  44
ENDBRANCH  39  40
ENDBRANCH   2  39
TORSDOF 34
ENDMDL
MODEL 3
REMARK VINA RESULT:      -7.2      4.131     14.411
REMARK WARNING: 32 MAX_TORS EXCEEDED!!!
REMARK  34 active torsions:
REMARK  status: ('A' for Active; 'I' for Inactive)
REMARK    1  A    between atoms: C_5  and  C_4 
REMARK    2  A    between atoms: C_15  and  C_4 
REMARK    3  A    between atoms: N_31  and  C_5 
REMARK    4  A    between atoms: C_7  and  C_6 
REMARK    5  A    between atoms: N_29  and  C_6 
REMARK    6  A    between atoms: S_65  and  C_7 
REMARK    7  A    between atoms: C_16  and  C_8 
REMARK    8  A    between atoms: C_27  and  C_8 
REMARK    9  A    between atoms: C_17  and  C_9 
REMARK   10  A    between atoms: C_27  and  C_9 
REMARK   11  A    between atoms: C_14  and  C_10 
REMARK   12  A    between atoms: O_57  and  C_10 
REMARK   13  A    between atoms: C_26  and  C_11 
REMARK   14  A    between atoms: O_58  and  C_11 
REMARK   15  A    between atoms: N_29  and  C_15 
REMARK   16  A    between atoms: O_40  and  C_15 
REMARK   17  A    between atoms: S_65  and  C_17 
REMARK   18  A    between atoms: C_19  and  O_45 
REMARK   19  A    between atoms: C_20  and  O_60 
REMARK   20  A    between atoms: C_24  and  C_21 
REMARK   21  A    between atoms: C_26  and  C_21 
REMARK   22  A    between atoms: C_21  and  O_46 
REMARK   23  A    between atoms: N_28  and  C_22 
REMARK   24  A    between atoms: N_31  and  C_24 
REMARK   25  A    between atoms: O_47  and  C_24 
REMARK   26  A    between atoms: C_25  and  N_39 
REMARK   27  A    between atoms: C_27  and  O_49 
REMARK   28  A    between atoms: P_63  and  O_53 
REMARK   29  A    between atoms: P_64  and  O_55 
REMARK   30  A    between atoms: P_63  and  O_57 
REMARK   31  A    between atoms: P_64  and  O_58 
REMARK   32  A    between atoms: P_62  and  O_60 
REMARK   33  A    between atoms: P_63  and  O_61 
REMARK   34  A    between atoms: P_64  and  O_61 
ROOT
HETATM    1  O   UNK N   1      31.288  16.323   9.310  0.00  0.00    -0.631 OA
HETATM    2  P   UNK N   1      31.484  16.936   7.899  0.00  0.00     0.401 P 
ENDROOT
BRANCH   2   3
HETATM    3  O   UNK N   1      32.345  15.731   6.994  0.00  0.00    -0.307 OA
HETATM    4  H   UNK N   1      32.039  14.810   6.998  0.00  0.00     0.222 HD
ENDBRANCH   2   3
BRANCH   2   5
HETATM    5  O   UNK N   1      29.881  17.203   7.263  0.00  0.00    -0.296 OA
BRANCH   5   6
HETATM    6  C   UNK N   1      29.660  16.280   6.227  0.00  0.00     0.192 C 
BRANCH   6   7
HETATM    7  C   UNK N   1      28.598  16.740   5.221  0.00  0.00     0.008 C 
HETATM    8  C   UNK N   1      28.886  18.201   4.899  0.00  0.00     0.020 C 
HETATM    9  C   UNK N   1      28.723  15.954   3.914  0.00  0.00     0.020 C 
BRANCH   7  10
HETATM   10  C   UNK N   1      27.179  16.584   5.835  0.00  0.00     0.202 C 
BRANCH  10  11
HETATM   11  C   UNK N   1      26.206  17.593   5.284  0.00  0.00     0.141 C 
BRANCH  11  12
HETATM   12  N   UNK N   1      26.216  18.809   5.709  0.00  0.00    -0.372 N 
ATOM     13  HN  UNK N   1      26.974  19.118   6.317  1.00  0.00     0.161 HD
BRANCH  12  14
HETATM   14  C   UNK N   1      25.181  19.742   5.344  0.00  0.00     0.129 C 
BRANCH  14  15
HETATM   15  C   UNK N   1      25.583  20.551   4.129  0.00  0.00     0.103 C 
BRANCH  15  16
HETATM   16  C   UNK N   1      24.574  20.317   3.057  0.00  0.00     0.112 C 
BRANCH  16  17
HETATM   17  N   UNK N   1      23.451  19.762   3.354  0.00  0.00    -0.374 N 
ATOM     18  HN  UNK N   1      23.444  18.967   3.993  1.00  0.00     0.161 HD
BRANCH  17  19
HETATM   19  C   UNK N   1      22.200  20.233   2.811  0.00  0.00     0.132 C 
BRANCH  19  20
HETATM   20  C   UNK N   1      21.038  19.660   3.602  0.00  0.00     0.102 C 
BRANCH  20  21
HETATM   21  S   UNK N   1      20.918  17.870   3.310  0.00  0.00    -0.091 SA
BRANCH  21  22
HETATM   22  C   UNK N   1      21.459  17.448   4.972  0.00  0.00     0.188 C 
HETATM   23  O   UNK N   1      21.651  18.335   5.786  0.00  0.00    -0.285 OA
BRANCH  22  24
HETATM   24  C   UNK N   1      21.693  16.017   5.369  0.00  0.00     0.128 C 
BRANCH  24  25
HETATM   25  C   UNK N   1      20.524  15.364   6.111  0.00  0.00     0.071 C 
HETATM   26  C   UNK N   1      20.099  14.146   5.311  0.00  0.00     0.047 C 
BRANCH  25  27
HETATM   27  C   UNK N   1      20.962  14.944   7.519  0.00  0.00     0.150 C 
BRANCH  27  28
HETATM   28  C   UNK N   1      20.242  15.672   8.617  0.00  0.00     0.175 C 
HETATM   29  O   UNK N   1      19.373  15.103   9.253  0.00  0.00    -0.648 OA
HETATM   30  O   UNK N   1      20.563  16.946   8.912  0.00  0.00    -0.648 OA
ENDBRANCH  27  28
ENDBRANCH  25  27
BRANCH  25  31
HETATM   31  O   UNK N   1      19.448  16.253   6.181  0.00  0.00    -0.389 OA
HETATM   32  H   UNK N   1      18.539  15.967   6.000  0.00  0.00     0.210 HD
ENDBRANCH  25  31
ENDBRANCH  24  25
ENDBRANCH  22  24
ENDBRANCH  21  22
ENDBRANCH  20  21
ENDBRANCH  19  20
ENDBRANCH  17  19
ENDBRANCH  16  17
BRANCH  16  33
HETATM   33  O   UNK N   1      24.840  20.706   1.793  0.00  0.00    -0.350 OA
ATOM     34  HO  UNK N   1      24.827  21.631   1.572  1.00  0.00     0.219 HD
ENDBRANCH  16  33
ENDBRANCH  15  16
ENDBRANCH  14  15
ENDBRANCH  12  14
ENDBRANCH  11  12
BRANCH  11  35
HETATM   35  O   UNK N   1      25.352  17.214   4.308  0.00  0.00    -0.348 OA
ATOM     36  HO  UNK N   1      24.417  17.268   4.466  1.00  0.00     0.219 HD
ENDBRANCH  11  35
ENDBRANCH  10  11
BRANCH  10  37
HETATM   37  O   UNK N   1      27.233  16.682   7.230  0.00  0.00    -0.387 OA
HETATM   38  H   UNK N   1      26.562  16.900   7.896  0.00  0.00     0.210 HD
ENDBRANCH  10  37
ENDBRANCH   7  10
ENDBRANCH   6   7
ENDBRANCH   5   6
ENDBRANCH   2   5
BRANCH   2  39
HETATM   39  O   UNK N   1      32.423  18.388   8.125  0.00  0.00    -0.195 OA
BRANCH  39  40
HETATM   40  P   UNK N   1      34.112  17.948   8.060  0.00  0.00     0.401 P 
HETATM   41  O   UNK N   1      34.989  19.160   8.475  0.00  0.00    -0.631 OA
BRANCH  40  42
HETATM   42  O   UNK N   1      34.522  17.632   6.404  0.00  0.00    -0.307 OA
HETATM   43  H   UNK N   1      35.030  17.968   5.649  0.00  0.00     0.222 HD
ENDBRANCH  40  42
BRANCH  40  44
HETATM   44  O   UNK N   1      34.534  16.536   8.995  0.00  0.00    -0.294 OA
BRANCH  44  45
HETATM   45  C   UNK N   1      35.317  16.933  10.092  0.00  0.00     0.215 C 
BRANCH  45  46
HETATM   46  C   UNK N   1      36.194  15.773  10.570  0.00  0.00     0.180 C 
HETATM   47  C   UNK N   1      35.947  14.492   9.750  0.00  0.00     0.199 C 
HETATM   48  C   UNK N   1      36.171  13.470  10.837  0.00  0.00     0.199 C 
HETATM   49  C   UNK N   1      35.434  14.173  11.966  0.00  0.00     0.262 C 
HETATM   50  O   UNK N   1      35.914  15.495  11.933  0.00  0.00    -0.353 OA
BRANCH  47  51
HETATM   51  O   UNK N   1      36.848  14.277   8.681  0.00  0.00    -0.272 OA
BRANCH  51  52
HETATM   52  P   UNK N   1      35.989  13.911   7.195  0.00  0.00     0.422 P 
HETATM   53  O   UNK N   1      36.096  15.198   6.034  0.00  0.00    -0.617 OA
HETATM   54  O   UNK N   1      36.574  12.433   6.499  0.00  0.00    -0.617 OA
HETATM   55  O   UNK N   1      34.490  13.672   7.516  0.00  0.00    -0.617 OA
ENDBRANCH  51  52
ENDBRANCH  47  51
BRANCH  48  56
HETATM   56  O   UNK N   1      35.634  12.223  10.510  0.00  0.00    -0.388 OA
HETATM   57  H   UNK N   1      35.658  11.589   9.776  0.00  0.00     0.210 HD
ENDBRANCH  48  56
BRANCH  49  58
HETATM   58  N   UNK N   1      35.607  13.610  13.310  0.00  0.00    -0.297 N 
HETATM   59  C   UNK N   1      36.387  14.184  14.265  0.00  0.00     0.188 A 
HETATM   60  N   UNK N   1      36.356  13.480  15.430  0.00  0.00    -0.346 N 
HETATM   61  C   UNK N   1      35.523  12.457  15.176  0.00  0.00     0.122 A 
ATOM     62  HN  UNK N   1      36.850  13.684  16.298  1.00  0.00     0.167 HD
HETATM   63  C   UNK N   1      35.096  11.441  16.012  0.00  0.00     0.131 A 
HETATM   64  C   UNK N   1      35.077  12.528  13.905  0.00  0.00     0.142 A 
HETATM   65  N   UNK N   1      34.214  10.528  15.509  0.00  0.00    -0.337 N 
HETATM   66  C   UNK N   1      33.769  10.616  14.211  0.00  0.00     0.183 A 
ATOM     67  HN  UNK N   1      33.880   9.770  16.105  1.00  0.00     0.168 HD
HETATM   68  N   UNK N   1      34.203  11.628  13.395  0.00  0.00    -0.336 N 
ATOM     69  HN  UNK N   1      33.876  11.700  12.431  1.00  0.00     0.168 HD
BRANCH  63  70
HETATM   70  N   UNK N   1      35.541  11.355  17.347  0.00  0.00    -0.383 N 
HETATM   71  H   UNK N   1      34.922  11.553  18.086  0.00  0.00     0.157 HD
HETATM   72  H   UNK N   1      36.471  11.096  17.539  0.00  0.00     0.157 HD
ENDBRANCH  63  70
ENDBRANCH  49  58
ENDBRANCH  45  46
ENDBRANCH  44  45
ENDBRANCH  40  44
ENDBRANCH  39  40
ENDBRANCH   2  39
TORSDOF 34
ENDMDL
MODEL 4
REMARK VINA RESULT:      -7.1      7.006     10.407
REMARK WARNING: 32 MAX_TORS EXCEEDED!!!
REMARK  34 active torsions:
REMARK  status: ('A' for Active; 'I' for Inactive)
REMARK    1  A    between atoms: C_5  and  C_4 
REMARK    2  A    between atoms: C_15  and  C_4 
REMARK    3  A    between atoms: N_31  and  C_5 
REMARK    4  A    between atoms: C_7  and  C_6 
REMARK    5  A    between atoms: N_29  and  C_6 
REMARK    6  A    between atoms: S_65  and  C_7 
REMARK    7  A    between atoms: C_16  and  C_8 
REMARK    8  A    between atoms: C_27  and  C_8 
REMARK    9  A    between atoms: C_17  and  C_9 
REMARK   10  A    between atoms: C_27  and  C_9 
REMARK   11  A    between atoms: C_14  and  C_10 
REMARK   12  A    between atoms: O_57  and  C_10 
REMARK   13  A    between atoms: C_26  and  C_11 
REMARK   14  A    between atoms: O_58  and  C_11 
REMARK   15  A    between atoms: N_29  and  C_15 
REMARK   16  A    between atoms: O_40  and  C_15 
REMARK   17  A    between atoms: S_65  and  C_17 
REMARK   18  A    between atoms: C_19  and  O_45 
REMARK   19  A    between atoms: C_20  and  O_60 
REMARK   20  A    between atoms: C_24  and  C_21 
REMARK   21  A    between atoms: C_26  and  C_21 
REMARK   22  A    between atoms: C_21  and  O_46 
REMARK   23  A    between atoms: N_28  and  C_22 
REMARK   24  A    between atoms: N_31  and  C_24 
REMARK   25  A    between atoms: O_47  and  C_24 
REMARK   26  A    between atoms: C_25  and  N_39 
REMARK   27  A    between atoms: C_27  and  O_49 
REMARK   28  A    between atoms: P_63  and  O_53 
REMARK   29  A    between atoms: P_64  and  O_55 
REMARK   30  A    between atoms: P_63  and  O_57 
REMARK   31  A    between atoms: P_64  and  O_58 
REMARK   32  A    between atoms: P_62  and  O_60 
REMARK   33  A    between atoms: P_63  and  O_61 
REMARK   34  A    between atoms: P_64  and  O_61 
ROOT
HETATM    1  O   UNK N   1      20.326  13.676   7.959  0.00  0.00    -0.631 OA
HETATM    2  P   UNK N   1      20.391  14.432   9.313  0.00  0.00     0.401 P 
ENDROOT
BRANCH   2   3
HETATM    3  O   UNK N   1      18.739  14.771   9.724  0.00  0.00    -0.307 OA
HETATM    4  H   UNK N   1      18.044  14.690   9.051  0.00  0.00     0.222 HD
ENDBRANCH   2   3
BRANCH   2   5
HETATM    5  O   UNK N   1      21.128  13.329  10.446  0.00  0.00    -0.296 OA
BRANCH   5   6
HETATM    6  C   UNK N   1      21.693  12.267   9.720  0.00  0.00     0.192 C 
BRANCH   6   7
HETATM    7  C   UNK N   1      23.200  12.104   9.955  0.00  0.00     0.008 C 
HETATM    8  C   UNK N   1      23.402  11.905  11.452  0.00  0.00     0.020 C 
HETATM    9  C   UNK N   1      23.718  10.847   9.255  0.00  0.00     0.020 C 
BRANCH   7  10
HETATM   10  C   UNK N   1      23.955  13.371   9.465  0.00  0.00     0.202 C 
BRANCH  10  11
HETATM   11  C   UNK N   1      24.045  13.433   7.962  0.00  0.00     0.141 C 
BRANCH  11  12
HETATM   12  N   UNK N   1      24.816  12.624   7.320  0.00  0.00    -0.372 N 
ATOM     13  HN  UNK N   1      24.959  11.681   7.680  1.00  0.00     0.161 HD
BRANCH  12  14
HETATM   14  C   UNK N   1      25.481  13.022   6.106  0.00  0.00     0.129 C 
BRANCH  14  15
HETATM   15  C   UNK N   1      24.793  12.433   4.893  0.00  0.00     0.103 C 
BRANCH  15  16
HETATM   16  C   UNK N   1      24.471  13.543   3.953  0.00  0.00     0.112 C 
BRANCH  16  17
HETATM   17  N   UNK N   1      25.225  13.747   2.929  0.00  0.00    -0.374 N 
ATOM     18  HN  UNK N   1      25.930  13.051   2.687  1.00  0.00     0.161 HD
BRANCH  17  19
HETATM   19  C   UNK N   1      25.101  14.930   2.114  0.00  0.00     0.132 C 
BRANCH  19  20
HETATM   20  C   UNK N   1      26.109  15.976   2.556  0.00  0.00     0.102 C 
BRANCH  20  21
HETATM   21  S   UNK N   1      25.265  17.290   3.485  0.00  0.00    -0.091 SA
BRANCH  21  22
HETATM   22  C   UNK N   1      25.821  16.674   5.081  0.00  0.00     0.188 C 
HETATM   23  O   UNK N   1      24.998  16.356   5.923  0.00  0.00    -0.285 OA
BRANCH  22  24
HETATM   24  C   UNK N   1      27.286  16.560   5.398  0.00  0.00     0.128 C 
BRANCH  24  25
HETATM   25  C   UNK N   1      27.904  17.821   6.008  0.00  0.00     0.071 C 
HETATM   26  C   UNK N   1      28.953  17.374   7.011  0.00  0.00     0.047 C 
BRANCH  25  27
HETATM   27  C   UNK N   1      28.553  18.674   4.910  0.00  0.00     0.150 C 
BRANCH  27  28
HETATM   28  C   UNK N   1      27.840  19.970   4.655  0.00  0.00     0.175 C 
HETATM   29  O   UNK N   1      27.847  20.842   5.506  0.00  0.00    -0.648 OA
HETATM   30  O   UNK N   1      27.207  20.179   3.485  0.00  0.00    -0.648 OA
ENDBRANCH  27  28
ENDBRANCH  25  27
BRANCH  25  31
HETATM   31  O   UNK N   1      26.924  18.555   6.680  0.00  0.00    -0.389 OA
HETATM   32  H   UNK N   1      26.533  18.242   7.511  0.00  0.00     0.210 HD
ENDBRANCH  25  31
ENDBRANCH  24  25
ENDBRANCH  22  24
ENDBRANCH  21  22
ENDBRANCH  20  21
ENDBRANCH  19  20
ENDBRANCH  17  19
ENDBRANCH  16  17
BRANCH  16  33
HETATM   33  O   UNK N   1      23.382  14.310   4.173  0.00  0.00    -0.350 OA
ATOM     34  HO  UNK N   1      22.515  13.930   4.093  1.00  0.00     0.219 HD
ENDBRANCH  16  33
ENDBRANCH  15  16
ENDBRANCH  14  15
ENDBRANCH  12  14
ENDBRANCH  11  12
BRANCH  11  35
HETATM   35  O   UNK N   1      23.274  14.320   7.295  0.00  0.00    -0.348 OA
ATOM     36  HO  UNK N   1      23.475  14.515   6.388  1.00  0.00     0.219 HD
ENDBRANCH  11  35
ENDBRANCH  10  11
BRANCH  10  37
HETATM   37  O   UNK N   1      25.236  13.429  10.024  0.00  0.00    -0.387 OA
HETATM   38  H   UNK N   1      25.924  12.758  10.155  0.00  0.00     0.210 HD
ENDBRANCH  10  37
ENDBRANCH   7  10
ENDBRANCH   6   7
ENDBRANCH   5   6
ENDBRANCH   2   5
BRANCH   2  39
HETATM   39  O   UNK N   1      21.308  15.885   9.016  0.00  0.00    -0.195 OA
BRANCH  39  40
HETATM   40  P   UNK N   1      20.309  16.966   8.077  0.00  0.00     0.401 P 
HETATM   41  O   UNK N   1      19.446  17.842   9.025  0.00  0.00    -0.631 OA
BRANCH  40  42
HETATM   42  O   UNK N   1      19.174  16.007   7.182  0.00  0.00    -0.307 OA
HETATM   43  H   UNK N   1      18.287  16.013   6.788  0.00  0.00     0.222 HD
ENDBRANCH  40  42
BRANCH  40  44
HETATM   44  O   UNK N   1      21.180  17.964   6.942  0.00  0.00    -0.294 OA
BRANCH  44  45
HETATM   45  C   UNK N   1      20.462  18.017   5.736  0.00  0.00     0.215 C 
BRANCH  45  46
HETATM   46  C   UNK N   1      21.197  17.240   4.641  0.00  0.00     0.180 C 
HETATM   47  C   UNK N   1      21.013  17.889   3.255  0.00  0.00     0.199 C 
HETATM   48  C   UNK N   1      21.019  16.642   2.408  0.00  0.00     0.199 C 
HETATM   49  C   UNK N   1      20.155  15.759   3.295  0.00  0.00     0.262 C 
HETATM   50  O   UNK N   1      20.700  15.912   4.583  0.00  0.00    -0.353 OA
BRANCH  47  51
HETATM   51  O   UNK N   1      22.054  18.760   2.855  0.00  0.00    -0.272 OA
BRANCH  51  52
HETATM   52  P   UNK N   1      21.446  20.380   2.563  0.00  0.00     0.422 P 
HETATM   53  O   UNK N   1      20.811  20.570   0.958  0.00  0.00    -0.617 OA
HETATM   54  O   UNK N   1      20.236  20.799   3.734  0.00  0.00    -0.617 OA
HETATM   55  O   UNK N   1      22.599  21.401   2.751  0.00  0.00    -0.617 OA
ENDBRANCH  51  52
ENDBRANCH  47  51
BRANCH  48  56
HETATM   56  O   UNK N   1      20.476  16.861   1.140  0.00  0.00    -0.388 OA
HETATM   57  H   UNK N   1      20.277  16.357   0.335  0.00  0.00     0.210 HD
ENDBRANCH  48  56
BRANCH  49  58
HETATM   58  N   UNK N   1      20.094  14.336   2.942  0.00  0.00    -0.297 N 
HETATM   59  C   UNK N   1      19.181  13.475   3.467  0.00  0.00     0.188 A 
HETATM   60  N   UNK N   1      19.321  12.222   2.955  0.00  0.00    -0.346 N 
HETATM   61  C   UNK N   1      20.340  12.330   2.087  0.00  0.00     0.122 A 
ATOM     62  HN  UNK N   1      18.776  11.390   3.179  1.00  0.00     0.167 HD
HETATM   63  C   UNK N   1      20.895  11.373   1.257  0.00  0.00     0.131 A 
HETATM   64  C   UNK N   1      20.810  13.595   2.081  0.00  0.00     0.142 A 
HETATM   65  N   UNK N   1      21.921  11.753   0.439  0.00  0.00    -0.337 N 
HETATM   66  C   UNK N   1      22.386  13.047   0.445  0.00  0.00     0.183 A 
ATOM     67  HN  UNK N   1      22.347  11.068  -0.186  1.00  0.00     0.168 HD
HETATM   68  N   UNK N   1      21.827  13.983   1.275  0.00  0.00    -0.336 N 
ATOM     69  HN  UNK N   1      22.166  14.945   1.284  1.00  0.00     0.168 HD
BRANCH  63  70
HETATM   70  N   UNK N   1      20.413  10.048   1.240  0.00  0.00    -0.383 N 
HETATM   71  H   UNK N   1      21.044   9.295   1.178  0.00  0.00     0.157 HD
HETATM   72  H   UNK N   1      19.445   9.877   1.290  0.00  0.00     0.157 HD
ENDBRANCH  63  70
ENDBRANCH  49  58
ENDBRANCH  45  46
ENDBRANCH  44  45
ENDBRANCH  40  44
ENDBRANCH  39  40
ENDBRANCH   2  39
TORSDOF 34
ENDMDL
MODEL 5
REMARK VINA RESULT:      -7.1      2.743      4.535
REMARK WARNING: 32 MAX_TORS EXCEEDED!!!
REMARK  34 active torsions:
REMARK  status: ('A' for Active; 'I' for Inactive)
REMARK    1  A    between atoms: C_5  and  C_4 
REMARK    2  A    between atoms: C_15  and  C_4 
REMARK    3  A    between atoms: N_31  and  C_5 
REMARK    4  A    between atoms: C_7  and  C_6 
REMARK    5  A    between atoms: N_29  and  C_6 
REMARK    6  A    between atoms: S_65  and  C_7 
REMARK    7  A    between atoms: C_16  and  C_8 
REMARK    8  A    between atoms: C_27  and  C_8 
REMARK    9  A    between atoms: C_17  and  C_9 
REMARK   10  A    between atoms: C_27  and  C_9 
REMARK   11  A    between atoms: C_14  and  C_10 
REMARK   12  A    between atoms: O_57  and  C_10 
REMARK   13  A    between atoms: C_26  and  C_11 
REMARK   14  A    between atoms: O_58  and  C_11 
REMARK   15  A    between atoms: N_29  and  C_15 
REMARK   16  A    between atoms: O_40  and  C_15 
REMARK   17  A    between atoms: S_65  and  C_17 
REMARK   18  A    between atoms: C_19  and  O_45 
REMARK   19  A    between atoms: C_20  and  O_60 
REMARK   20  A    between atoms: C_24  and  C_21 
REMARK   21  A    between atoms: C_26  and  C_21 
REMARK   22  A    between atoms: C_21  and  O_46 
REMARK   23  A    between atoms: N_28  and  C_22 
REMARK   24  A    between atoms: N_31  and  C_24 
REMARK   25  A    between atoms: O_47  and  C_24 
REMARK   26  A    between atoms: C_25  and  N_39 
REMARK   27  A    between atoms: C_27  and  O_49 
REMARK   28  A    between atoms: P_63  and  O_53 
REMARK   29  A    between atoms: P_64  and  O_55 
REMARK   30  A    between atoms: P_63  and  O_57 
REMARK   31  A    between atoms: P_64  and  O_58 
REMARK   32  A    between atoms: P_62  and  O_60 
REMARK   33  A    between atoms: P_63  and  O_61 
REMARK   34  A    between atoms: P_64  and  O_61 
ROOT
HETATM    1  O   UNK N   1      28.488  17.212   8.606  0.00  0.00    -0.631 OA
HETATM    2  P   UNK N   1      28.184  17.698   7.164  0.00  0.00     0.401 P 
ENDROOT
BRANCH   2   3
HETATM    3  O   UNK N   1      27.590  19.319   7.346  0.00  0.00    -0.307 OA
HETATM    4  H   UNK N   1      26.635  19.491   7.321  0.00  0.00     0.222 HD
ENDBRANCH   2   3
BRANCH   2   5
HETATM    5  O   UNK N   1      29.706  17.657   6.312  0.00  0.00    -0.296 OA
BRANCH   5   6
HETATM    6  C   UNK N   1      30.411  16.514   6.727  0.00  0.00     0.192 C 
BRANCH   6   7
HETATM    7  C   UNK N   1      31.923  16.743   6.845  0.00  0.00     0.008 C 
HETATM    8  C   UNK N   1      32.550  15.411   7.235  0.00  0.00     0.020 C 
HETATM    9  C   UNK N   1      32.510  17.142   5.490  0.00  0.00     0.020 C 
BRANCH   7  10
HETATM   10  C   UNK N   1      32.215  17.823   7.922  0.00  0.00     0.202 C 
BRANCH  10  11
HETATM   11  C   UNK N   1      33.667  17.847   8.326  0.00  0.00     0.141 C 
BRANCH  11  12
HETATM   12  N   UNK N   1      34.028  17.424   9.489  0.00  0.00    -0.372 N 
ATOM     13  HN  UNK N   1      33.520  17.743  10.314  1.00  0.00     0.161 HD
BRANCH  12  14
HETATM   14  C   UNK N   1      35.131  16.513   9.649  0.00  0.00     0.129 C 
BRANCH  14  15
HETATM   15  C   UNK N   1      35.188  15.973  11.062  0.00  0.00     0.103 C 
BRANCH  15  16
HETATM   16  C   UNK N   1      34.238  14.829  11.164  0.00  0.00     0.112 C 
BRANCH  16  17
HETATM   17  N   UNK N   1      34.689  13.654  11.436  0.00  0.00    -0.374 N 
ATOM     18  HN  UNK N   1      34.197  13.080  12.121  1.00  0.00     0.161 HD
BRANCH  17  19
HETATM   19  C   UNK N   1      35.870  13.124  10.800  0.00  0.00     0.132 C 
BRANCH  19  20
HETATM   20  C   UNK N   1      36.917  12.781  11.845  0.00  0.00     0.102 C 
BRANCH  20  21
HETATM   21  S   UNK N   1      37.602  11.132  11.511  0.00  0.00    -0.091 SA
BRANCH  21  22
HETATM   22  C   UNK N   1      36.886  10.410  12.995  0.00  0.00     0.188 C 
HETATM   23  O   UNK N   1      37.601   9.797  13.770  0.00  0.00    -0.285 OA
BRANCH  22  24
HETATM   24  C   UNK N   1      35.417  10.537  13.285  0.00  0.00     0.128 C 
BRANCH  24  25
HETATM   25  C   UNK N   1      35.085  11.362  14.531  0.00  0.00     0.071 C 
HETATM   26  C   UNK N   1      34.346  10.453  15.497  0.00  0.00     0.047 C 
BRANCH  25  27
HETATM   27  C   UNK N   1      36.375  11.882  15.178  0.00  0.00     0.150 C 
BRANCH  27  28
HETATM   28  C   UNK N   1      36.274  13.295  15.674  0.00  0.00     0.175 C 
HETATM   29  O   UNK N   1      35.553  13.553  16.623  0.00  0.00    -0.648 OA
HETATM   30  O   UNK N   1      36.986  14.275  15.087  0.00  0.00    -0.648 OA
ENDBRANCH  27  28
ENDBRANCH  25  27
BRANCH  25  31
HETATM   31  O   UNK N   1      34.249  12.428  14.189  0.00  0.00    -0.389 OA
HETATM   32  H   UNK N   1      33.322  12.288  13.941  0.00  0.00     0.210 HD
ENDBRANCH  25  31
ENDBRANCH  24  25
ENDBRANCH  22  24
ENDBRANCH  21  22
ENDBRANCH  20  21
ENDBRANCH  19  20
ENDBRANCH  17  19
ENDBRANCH  16  17
BRANCH  16  33
HETATM   33  O   UNK N   1      32.917  15.039  10.990  0.00  0.00    -0.350 OA
ATOM     34  HO  UNK N   1      32.293  14.384  11.281  1.00  0.00     0.219 HD
ENDBRANCH  16  33
ENDBRANCH  15  16
ENDBRANCH  14  15
ENDBRANCH  12  14
ENDBRANCH  11  12
BRANCH  11  35
HETATM   35  O   UNK N   1      34.588  18.277   7.436  0.00  0.00    -0.348 OA
ATOM     36  HO  UNK N   1      34.415  19.069   6.941  1.00  0.00     0.219 HD
ENDBRANCH  11  35
ENDBRANCH  10  11
BRANCH  10  37
HETATM   37  O   UNK N   1      31.408  17.627   9.049  0.00  0.00    -0.387 OA
HETATM   38  H   UNK N   1      31.533  17.113   9.861  0.00  0.00     0.210 HD
ENDBRANCH  10  37
ENDBRANCH   7  10
ENDBRANCH   6   7
ENDBRANCH   5   6
ENDBRANCH   2   5
BRANCH   2  39
HETATM   39  O   UNK N   1      26.971  16.618   6.531  0.00  0.00    -0.195 OA
BRANCH  39  40
HETATM   40  P   UNK N   1      26.240  17.388   5.145  0.00  0.00     0.401 P 
HETATM   41  O   UNK N   1      27.340  17.802   4.131  0.00  0.00    -0.631 OA
BRANCH  40  42
HETATM   42  O   UNK N   1      25.523  18.877   5.674  0.00  0.00    -0.307 OA
HETATM   43  H   UNK N   1      24.694  19.278   5.979  0.00  0.00     0.222 HD
ENDBRANCH  40  42
BRANCH  40  44
HETATM   44  O   UNK N   1      25.001  16.447   4.356  0.00  0.00    -0.294 OA
BRANCH  44  45
HETATM   45  C   UNK N   1      23.824  16.510   5.121  0.00  0.00     0.215 C 
BRANCH  45  46
HETATM   46  C   UNK N   1      23.343  15.101   5.479  0.00  0.00     0.180 C 
HETATM   47  C   UNK N   1      21.934  14.818   4.923  0.00  0.00     0.199 C 
HETATM   48  C   UNK N   1      21.422  13.923   6.023  0.00  0.00     0.199 C 
HETATM   49  C   UNK N   1      21.962  14.697   7.216  0.00  0.00     0.262 C 
HETATM   50  O   UNK N   1      23.305  14.956   6.891  0.00  0.00    -0.353 OA
BRANCH  47  51
HETATM   51  O   UNK N   1      21.902  14.138   3.682  0.00  0.00    -0.272 OA
BRANCH  51  52
HETATM   52  P   UNK N   1      21.048  15.075   2.470  0.00  0.00     0.422 P 
HETATM   53  O   UNK N   1      21.778  14.952   0.899  0.00  0.00    -0.617 OA
HETATM   54  O   UNK N   1      19.382  14.597   2.389  0.00  0.00    -0.617 OA
HETATM   55  O   UNK N   1      21.047  16.570   2.886  0.00  0.00    -0.617 OA
ENDBRANCH  51  52
ENDBRANCH  47  51
BRANCH  48  56
HETATM   56  O   UNK N   1      20.030  13.814   6.011  0.00  0.00    -0.388 OA
HETATM   57  H   UNK N   1      19.304  13.679   6.640  0.00  0.00     0.210 HD
ENDBRANCH  48  56
BRANCH  49  58
HETATM   58  N   UNK N   1      21.882  14.028   8.520  0.00  0.00    -0.297 N 
HETATM   59  C   UNK N   1      20.713  13.834   9.189  0.00  0.00     0.188 A 
HETATM   60  N   UNK N   1      20.909  13.167  10.359  0.00  0.00    -0.346 N 
HETATM   61  C   UNK N   1      22.232  12.940  10.393  0.00  0.00     0.122 A 
ATOM     62  HN  UNK N   1      20.210  12.900  11.051  1.00  0.00     0.167 HD
HETATM   63  C   UNK N   1      22.987  12.270  11.340  0.00  0.00     0.131 A 
HETATM   64  C   UNK N   1      22.819  13.460   9.296  0.00  0.00     0.142 A 
HETATM   65  N   UNK N   1      24.330  12.154  11.122  0.00  0.00    -0.337 N 
HETATM   66  C   UNK N   1      24.911  12.689   9.996  0.00  0.00     0.183 A 
ATOM     67  HN  UNK N   1      24.909  11.662  11.802  1.00  0.00     0.168 HD
HETATM   68  N   UNK N   1      24.150  13.351   9.069  0.00  0.00    -0.336 N 
ATOM     69  HN  UNK N   1      24.575  13.749   8.231  1.00  0.00     0.168 HD
BRANCH  63  70
HETATM   70  N   UNK N   1      22.391  11.711  12.489  0.00  0.00    -0.383 N 
HETATM   71  H   UNK N   1      21.999  12.298  13.175  0.00  0.00     0.157 HD
HETATM   72  H   UNK N   1      22.369  10.734  12.605  0.00  0.00     0.157 HD
ENDBRANCH  63  70
ENDBRANCH  49  58
ENDBRANCH  45  46
ENDBRANCH  44  45
ENDBRANCH  40  44
ENDBRANCH  39  40
ENDBRANCH   2  39
TORSDOF 34
ENDMDL
MODEL 6
REMARK VINA RESULT:      -7.0      5.040      8.798
REMARK WARNING: 32 MAX_TORS EXCEEDED!!!
REMARK  34 active torsions:
REMARK  status: ('A' for Active; 'I' for Inactive)
REMARK    1  A    between atoms: C_5  and  C_4 
REMARK    2  A    between atoms: C_15  and  C_4 
REMARK    3  A    between atoms: N_31  and  C_5 
REMARK    4  A    between atoms: C_7  and  C_6 
REMARK    5  A    between atoms: N_29  and  C_6 
REMARK    6  A    between atoms: S_65  and  C_7 
REMARK    7  A    between atoms: C_16  and  C_8 
REMARK    8  A    between atoms: C_27  and  C_8 
REMARK    9  A    between atoms: C_17  and  C_9 
REMARK   10  A    between atoms: C_27  and  C_9 
REMARK   11  A    between atoms: C_14  and  C_10 
REMARK   12  A    between atoms: O_57  and  C_10 
REMARK   13  A    between atoms: C_26  and  C_11 
REMARK   14  A    between atoms: O_58  and  C_11 
REMARK   15  A    between atoms: N_29  and  C_15 
REMARK   16  A    between atoms: O_40  and  C_15 
REMARK   17  A    between atoms: S_65  and  C_17 
REMARK   18  A    between atoms: C_19  and  O_45 
REMARK   19  A    between atoms: C_20  and  O_60 
REMARK   20  A    between atoms: C_24  and  C_21 
REMARK   21  A    between atoms: C_26  and  C_21 
REMARK   22  A    between atoms: C_21  and  O_46 
REMARK   23  A    between atoms: N_28  and  C_22 
REMARK   24  A    between atoms: N_31  and  C_24 
REMARK   25  A    between atoms: O_47  and  C_24 
REMARK   26  A    between atoms: C_25  and  N_39 
REMARK   27  A    between atoms: C_27  and  O_49 
REMARK   28  A    between atoms: P_63  and  O_53 
REMARK   29  A    between atoms: P_64  and  O_55 
REMARK   30  A    between atoms: P_63  and  O_57 
REMARK   31  A    between atoms: P_64  and  O_58 
REMARK   32  A    between atoms: P_62  and  O_60 
REMARK   33  A    between atoms: P_63  and  O_61 
REMARK   34  A    between atoms: P_64  and  O_61 
ROOT
HETATM    1  O   UNK N   1      28.948  15.028   4.514  0.00  0.00    -0.631 OA
HETATM    2  P   UNK N   1      29.518  15.503   3.151  0.00  0.00     0.401 P 
ENDROOT
BRANCH   2   3
HETATM    3  O   UNK N   1      29.487  17.237   3.223  0.00  0.00    -0.307 OA
HETATM    4  H   UNK N   1      30.309  17.731   3.369  0.00  0.00     0.222 HD
ENDBRANCH   2   3
BRANCH   2   5
HETATM    5  O   UNK N   1      31.148  14.885   3.070  0.00  0.00    -0.296 OA
BRANCH   5   6
HETATM    6  C   UNK N   1      31.732  15.021   4.341  0.00  0.00     0.192 C 
BRANCH   6   7
HETATM    7  C   UNK N   1      32.944  15.961   4.354  0.00  0.00     0.008 C 
HETATM    8  C   UNK N   1      33.271  16.293   2.904  0.00  0.00     0.020 C 
HETATM    9  C   UNK N   1      32.594  17.275   5.054  0.00  0.00     0.020 C 
BRANCH   7  10
HETATM   10  C   UNK N   1      34.151  15.264   5.041  0.00  0.00     0.202 C 
BRANCH  10  11
HETATM   11  C   UNK N   1      33.717  14.156   5.966  0.00  0.00     0.141 C 
BRANCH  11  12
HETATM   12  N   UNK N   1      33.621  14.365   7.234  0.00  0.00    -0.372 N 
ATOM     13  HN  UNK N   1      34.470  14.400   7.799  1.00  0.00     0.161 HD
BRANCH  12  14
HETATM   14  C   UNK N   1      32.343  14.549   7.872  0.00  0.00     0.129 C 
BRANCH  14  15
HETATM   15  C   UNK N   1      32.478  15.392   9.123  0.00  0.00     0.103 C 
BRANCH  15  16
HETATM   16  C   UNK N   1      33.029  16.721   8.735  0.00  0.00     0.112 C 
BRANCH  16  17
HETATM   17  N   UNK N   1      32.228  17.717   8.578  0.00  0.00    -0.374 N 
ATOM     18  HN  UNK N   1      32.578  18.570   8.143  1.00  0.00     0.161 HD
BRANCH  17  19
HETATM   19  C   UNK N   1      30.850  17.662   9.001  0.00  0.00     0.132 C 
BRANCH  19  20
HETATM   20  C   UNK N   1      29.936  17.588   7.791  0.00  0.00     0.102 C 
BRANCH  20  21
HETATM   21  S   UNK N   1      28.366  18.428   8.154  0.00  0.00    -0.091 SA
BRANCH  21  22
HETATM   22  C   UNK N   1      27.758  18.264   6.470  0.00  0.00     0.188 C 
HETATM   23  O   UNK N   1      27.209  17.230   6.126  0.00  0.00    -0.285 OA
BRANCH  22  24
HETATM   24  C   UNK N   1      27.929  19.377   5.474  0.00  0.00     0.128 C 
BRANCH  24  25
HETATM   25  C   UNK N   1      26.717  20.304   5.343  0.00  0.00     0.071 C 
HETATM   26  C   UNK N   1      27.078  21.621   6.006  0.00  0.00     0.047 C 
BRANCH  25  27
HETATM   27  C   UNK N   1      26.386  20.531   3.863  0.00  0.00     0.150 C 
BRANCH  27  28
HETATM   28  C   UNK N   1      25.076  19.932   3.440  0.00  0.00     0.175 C 
HETATM   29  O   UNK N   1      24.210  20.646   2.964  0.00  0.00    -0.648 OA
HETATM   30  O   UNK N   1      24.859  18.610   3.569  0.00  0.00    -0.648 OA
ENDBRANCH  27  28
ENDBRANCH  25  27
BRANCH  25  31
HETATM   31  O   UNK N   1      25.620  19.751   6.008  0.00  0.00    -0.389 OA
HETATM   32  H   UNK N   1      25.057  19.079   5.591  0.00  0.00     0.210 HD
ENDBRANCH  25  31
ENDBRANCH  24  25
ENDBRANCH  22  24
ENDBRANCH  21  22
ENDBRANCH  20  21
ENDBRANCH  19  20
ENDBRANCH  17  19
ENDBRANCH  16  17
BRANCH  16  33
HETATM   33  O   UNK N   1      34.360  16.871   8.571  0.00  0.00    -0.350 OA
ATOM     34  HO  UNK N   1      34.950  16.185   8.862  1.00  0.00     0.219 HD
ENDBRANCH  16  33
ENDBRANCH  15  16
ENDBRANCH  14  15
ENDBRANCH  12  14
ENDBRANCH  11  12
BRANCH  11  35
HETATM   35  O   UNK N   1      33.389  12.955   5.442  0.00  0.00    -0.348 OA
ATOM     36  HO  UNK N   1      32.939  12.925   4.606  1.00  0.00     0.219 HD
ENDBRANCH  11  35
ENDBRANCH  10  11
BRANCH  10  37
HETATM   37  O   UNK N   1      34.925  16.196   5.741  0.00  0.00    -0.387 OA
HETATM   38  H   UNK N   1      34.798  16.646   6.591  0.00  0.00     0.210 HD
ENDBRANCH  10  37
ENDBRANCH   7  10
ENDBRANCH   6   7
ENDBRANCH   5   6
ENDBRANCH   2   5
BRANCH   2  39
HETATM   39  O   UNK N   1      28.445  14.874   1.928  0.00  0.00    -0.195 OA
BRANCH  39  40
HETATM   40  P   UNK N   1      26.807  15.228   2.421  0.00  0.00     0.401 P 
HETATM   41  O   UNK N   1      25.944  15.568   1.176  0.00  0.00    -0.631 OA
BRANCH  40  42
HETATM   42  O   UNK N   1      26.833  16.679   3.370  0.00  0.00    -0.307 OA
HETATM   43  H   UNK N   1      27.387  17.433   3.627  0.00  0.00     0.222 HD
ENDBRANCH  40  42
BRANCH  40  44
HETATM   44  O   UNK N   1      26.046  13.979   3.372  0.00  0.00    -0.294 OA
BRANCH  44  45
HETATM   45  C   UNK N   1      25.371  14.574   4.451  0.00  0.00     0.215 C 
BRANCH  45  46
HETATM   46  C   UNK N   1      24.144  13.745   4.837  0.00  0.00     0.180 C 
HETATM   47  C   UNK N   1      22.832  14.419   4.388  0.00  0.00     0.199 C 
HETATM   48  C   UNK N   1      21.940  13.975   5.519  0.00  0.00     0.199 C 
HETATM   49  C   UNK N   1      22.908  14.189   6.671  0.00  0.00     0.262 C 
HETATM   50  O   UNK N   1      24.104  13.582   6.246  0.00  0.00    -0.353 OA
BRANCH  47  51
HETATM   51  O   UNK N   1      22.317  13.969   3.149  0.00  0.00    -0.272 OA
BRANCH  51  52
HETATM   52  P   UNK N   1      21.261  15.171   2.429  0.00  0.00     0.422 P 
HETATM   53  O   UNK N   1      21.467  15.290   0.709  0.00  0.00    -0.617 OA
HETATM   54  O   UNK N   1      19.601  14.831   2.806  0.00  0.00    -0.617 OA
HETATM   55  O   UNK N   1      21.568  16.559   3.050  0.00  0.00    -0.617 OA
ENDBRANCH  51  52
ENDBRANCH  47  51
BRANCH  48  56
HETATM   56  O   UNK N   1      20.780  14.748   5.612  0.00  0.00    -0.388 OA
HETATM   57  H   UNK N   1      20.103  15.119   5.026  0.00  0.00     0.210 HD
ENDBRANCH  48  56
BRANCH  49  58
HETATM   58  N   UNK N   1      22.506  13.646   7.974  0.00  0.00    -0.297 N 
HETATM   59  C   UNK N   1      21.211  13.413   8.318  0.00  0.00     0.188 A 
HETATM   60  N   UNK N   1      21.109  12.884   9.567  0.00  0.00    -0.346 N 
HETATM   61  C   UNK N   1      22.381  12.782   9.987  0.00  0.00     0.122 A 
ATOM     62  HN  UNK N   1      20.261  12.623  10.070  1.00  0.00     0.167 HD
HETATM   63  C   UNK N   1      22.878  12.278  11.176  0.00  0.00     0.131 A 
HETATM   64  C   UNK N   1      23.220  13.243   9.037  0.00  0.00     0.142 A 
HETATM   65  N   UNK N   1      24.233  12.263  11.347  0.00  0.00    -0.337 N 
HETATM   66  C   UNK N   1      25.074  12.736  10.367  0.00  0.00     0.183 A 
ATOM     67  HN  UNK N   1      24.627  11.894  12.213  1.00  0.00     0.168 HD
HETATM   68  N   UNK N   1      24.566  13.233   9.196  0.00  0.00    -0.336 N 
ATOM     69  HN  UNK N   1      25.183  13.585   8.464  1.00  0.00     0.168 HD
BRANCH  63  70
HETATM   70  N   UNK N   1      22.019  11.781  12.178  0.00  0.00    -0.383 N 
HETATM   71  H   UNK N   1      22.356  11.648  13.093  0.00  0.00     0.157 HD
HETATM   72  H   UNK N   1      21.083  11.568  11.961  0.00  0.00     0.157 HD
ENDBRANCH  63  70
ENDBRANCH  49  58
ENDBRANCH  45  46
ENDBRANCH  44  45
ENDBRANCH  40  44
ENDBRANCH  39  40
ENDBRANCH   2  39
TORSDOF 34
ENDMDL
MODEL 7
REMARK VINA RESULT:      -7.0      5.334      7.656
REMARK WARNING: 32 MAX_TORS EXCEEDED!!!
REMARK  34 active torsions:
REMARK  status: ('A' for Active; 'I' for Inactive)
REMARK    1  A    between atoms: C_5  and  C_4 
REMARK    2  A    between atoms: C_15  and  C_4 
REMARK    3  A    between atoms: N_31  and  C_5 
REMARK    4  A    between atoms: C_7  and  C_6 
REMARK    5  A    between atoms: N_29  and  C_6 
REMARK    6  A    between atoms: S_65  and  C_7 
REMARK    7  A    between atoms: C_16  and  C_8 
REMARK    8  A    between atoms: C_27  and  C_8 
REMARK    9  A    between atoms: C_17  and  C_9 
REMARK   10  A    between atoms: C_27  and  C_9 
REMARK   11  A    between atoms: C_14  and  C_10 
REMARK   12  A    between atoms: O_57  and  C_10 
REMARK   13  A    between atoms: C_26  and  C_11 
REMARK   14  A    between atoms: O_58  and  C_11 
REMARK   15  A    between atoms: N_29  and  C_15 
REMARK   16  A    between atoms: O_40  and  C_15 
REMARK   17  A    between atoms: S_65  and  C_17 
REMARK   18  A    between atoms: C_19  and  O_45 
REMARK   19  A    between atoms: C_20  and  O_60 
REMARK   20  A    between atoms: C_24  and  C_21 
REMARK   21  A    between atoms: C_26  and  C_21 
REMARK   22  A    between atoms: C_21  and  O_46 
REMARK   23  A    between atoms: N_28  and  C_22 
REMARK   24  A    between atoms: N_31  and  C_24 
REMARK   25  A    between atoms: O_47  and  C_24 
REMARK   26  A    between atoms: C_25  and  N_39 
REMARK   27  A    between atoms: C_27  and  O_49 
REMARK   28  A    between atoms: P_63  and  O_53 
REMARK   29  A    between atoms: P_64  and  O_55 
REMARK   30  A    between atoms: P_63  and  O_57 
REMARK   31  A    between atoms: P_64  and  O_58 
REMARK   32  A    between atoms: P_62  and  O_60 
REMARK   33  A    between atoms: P_63  and  O_61 
REMARK   34  A    between atoms: P_64  and  O_61 
ROOT
HETATM    1  O   UNK N   1      24.321  16.034   6.407  0.00  0.00    -0.631 OA
HETATM    2  P   UNK N   1      23.031  15.369   5.858  0.00  0.00     0.401 P 
ENDROOT
BRANCH   2   3
HETATM    3  O   UNK N   1      21.788  16.568   6.041  0.00  0.00    -0.307 OA
HETATM    4  H   UNK N   1      20.912  16.423   5.649  0.00  0.00     0.222 HD
ENDBRANCH   2   3
BRANCH   2   5
HETATM    5  O   UNK N   1      23.349  15.015   4.179  0.00  0.00    -0.296 OA
BRANCH   5   6
HETATM    6  C   UNK N   1      24.392  15.851   3.744  0.00  0.00     0.192 C 
BRANCH   6   7
HETATM    7  C   UNK N   1      25.616  15.078   3.237  0.00  0.00     0.008 C 
HETATM    8  C   UNK N   1      25.162  13.653   2.951  0.00  0.00     0.020 C 
HETATM    9  C   UNK N   1      26.113  15.671   1.917  0.00  0.00     0.020 C 
BRANCH   7  10
HETATM   10  C   UNK N   1      26.736  15.091   4.314  0.00  0.00     0.202 C 
BRANCH  10  11
HETATM   11  C   UNK N   1      27.452  16.415   4.375  0.00  0.00     0.141 C 
BRANCH  11  12
HETATM   12  N   UNK N   1      26.980  17.380   5.088  0.00  0.00    -0.372 N 
ATOM     13  HN  UNK N   1      26.081  17.260   5.555  1.00  0.00     0.161 HD
BRANCH  12  14
HETATM   14  C   UNK N   1      27.693  18.622   5.239  0.00  0.00     0.129 C 
BRANCH  14  15
HETATM   15  C   UNK N   1      27.892  18.958   6.702  0.00  0.00     0.103 C 
BRANCH  15  16
HETATM   16  C   UNK N   1      28.420  17.748   7.392  0.00  0.00     0.112 C 
BRANCH  16  17
HETATM   17  N   UNK N   1      29.681  17.490   7.344  0.00  0.00    -0.374 N 
ATOM     18  HN  UNK N   1      30.126  17.357   6.436  1.00  0.00     0.161 HD
BRANCH  17  19
HETATM   19  C   UNK N   1      30.483  17.384   8.538  0.00  0.00     0.132 C 
BRANCH  19  20
HETATM   20  C   UNK N   1      31.918  17.784   8.240  0.00  0.00     0.102 C 
BRANCH  20  21
HETATM   21  S   UNK N   1      32.935  16.296   8.008  0.00  0.00    -0.091 SA
BRANCH  21  22
HETATM   22  C   UNK N   1      33.569  16.839   6.415  0.00  0.00     0.188 C 
HETATM   23  O   UNK N   1      34.044  17.958   6.306  0.00  0.00    -0.285 OA
BRANCH  22  24
HETATM   24  C   UNK N   1      33.509  15.941   5.212  0.00  0.00     0.128 C 
BRANCH  24  25
HETATM   25  C   UNK N   1      32.317  16.198   4.286  0.00  0.00     0.071 C 
HETATM   26  C   UNK N   1      32.860  16.797   3.000  0.00  0.00     0.047 C 
BRANCH  25  27
HETATM   27  C   UNK N   1      31.588  14.882   3.988  0.00  0.00     0.150 C 
BRANCH  27  28
HETATM   28  C   UNK N   1      30.925  14.275   5.190  0.00  0.00     0.175 C 
HETATM   29  O   UNK N   1      30.121  14.928   5.832  0.00  0.00    -0.648 OA
HETATM   30  O   UNK N   1      31.203  13.008   5.553  0.00  0.00    -0.648 OA
ENDBRANCH  27  28
ENDBRANCH  25  27
BRANCH  25  31
HETATM   31  O   UNK N   1      31.444  17.115   4.876  0.00  0.00    -0.389 OA
HETATM   32  H   UNK N   1      31.641  17.527   5.732  0.00  0.00     0.210 HD
ENDBRANCH  25  31
ENDBRANCH  24  25
ENDBRANCH  22  24
ENDBRANCH  21  22
ENDBRANCH  20  21
ENDBRANCH  19  20
ENDBRANCH  17  19
ENDBRANCH  16  17
BRANCH  16  33
HETATM   33  O   UNK N   1      27.576  16.947   8.075  0.00  0.00    -0.350 OA
ATOM     34  HO  UNK N   1      26.788  16.625   7.653  1.00  0.00     0.219 HD
ENDBRANCH  16  33
ENDBRANCH  15  16
ENDBRANCH  14  15
ENDBRANCH  12  14
ENDBRANCH  11  12
BRANCH  11  35
HETATM   35  O   UNK N   1      28.618  16.562   3.708  0.00  0.00    -0.348 OA
ATOM     36  HO  UNK N   1      29.328  15.957   3.882  1.00  0.00     0.219 HD
ENDBRANCH  11  35
ENDBRANCH  10  11
BRANCH  10  37
HETATM   37  O   UNK N   1      27.655  14.061   4.082  0.00  0.00    -0.387 OA
HETATM   38  H   UNK N   1      27.782  13.192   4.494  0.00  0.00     0.210 HD
ENDBRANCH  10  37
ENDBRANCH   7  10
ENDBRANCH   6   7
ENDBRANCH   5   6
ENDBRANCH   2   5
BRANCH   2  39
HETATM   39  O   UNK N   1      22.745  13.966   6.852  0.00  0.00    -0.195 OA
BRANCH  39  40
HETATM   40  P   UNK N   1      21.208  14.182   7.653  0.00  0.00     0.401 P 
HETATM   41  O   UNK N   1      21.331  15.285   8.739  0.00  0.00    -0.631 OA
BRANCH  40  42
HETATM   42  O   UNK N   1      20.846  12.724   8.521  0.00  0.00    -0.307 OA
HETATM   43  H   UNK N   1      21.112  11.799   8.637  0.00  0.00     0.222 HD
ENDBRANCH  40  42
BRANCH  40  44
HETATM   44  O   UNK N   1      19.870  14.517   6.585  0.00  0.00    -0.294 OA
BRANCH  44  45
HETATM   45  C   UNK N   1      19.874  13.579   5.540  0.00  0.00     0.215 C 
BRANCH  45  46
HETATM   46  C   UNK N   1      19.105  14.121   4.332  0.00  0.00     0.180 C 
HETATM   47  C   UNK N   1      19.187  13.166   3.125  0.00  0.00     0.199 C 
HETATM   48  C   UNK N   1      19.177  14.188   2.016  0.00  0.00     0.199 C 
HETATM   49  C   UNK N   1      20.120  15.207   2.635  0.00  0.00     0.262 C 
HETATM   50  O   UNK N   1      19.644  15.376   3.948  0.00  0.00    -0.353 OA
BRANCH  47  51
HETATM   51  O   UNK N   1      18.095  12.277   2.984  0.00  0.00    -0.272 OA
BRANCH  51  52
HETATM   52  P   UNK N   1      18.582  10.622   3.307  0.00  0.00     0.422 P 
HETATM   53  O   UNK N   1      20.307  10.421   3.274  0.00  0.00    -0.617 OA
HETATM   54  O   UNK N   1      17.950  10.085   4.831  0.00  0.00    -0.617 OA
HETATM   55  O   UNK N   1      17.966   9.689   2.232  0.00  0.00    -0.617 OA
ENDBRANCH  51  52
ENDBRANCH  47  51
BRANCH  48  56
HETATM   56  O   UNK N   1      19.639  13.661   0.807  0.00  0.00    -0.388 OA
HETATM   57  H   UNK N   1      20.242  12.967   0.498  0.00  0.00     0.210 HD
ENDBRANCH  48  56
BRANCH  49  58
HETATM   58  N   UNK N   1      20.210  16.508   1.963  0.00  0.00    -0.297 N 
HETATM   59  C   UNK N   1      19.949  16.684   0.640  0.00  0.00     0.188 A 
HETATM   60  N   UNK N   1      20.078  17.988   0.271  0.00  0.00    -0.346 N 
HETATM   61  C   UNK N   1      20.415  18.621   1.407  0.00  0.00     0.122 A 
ATOM     62  HN  UNK N   1      19.948  18.392  -0.656  1.00  0.00     0.167 HD
HETATM   63  C   UNK N   1      20.642  19.968   1.631  0.00  0.00     0.131 A 
HETATM   64  C   UNK N   1      20.501  17.737   2.422  0.00  0.00     0.142 A 
HETATM   65  N   UNK N   1      20.948  20.362   2.902  0.00  0.00    -0.337 N 
HETATM   66  C   UNK N   1      21.030  19.446   3.925  0.00  0.00     0.183 A 
ATOM     67  HN  UNK N   1      21.117  21.349   3.096  1.00  0.00     0.168 HD
HETATM   68  N   UNK N   1      20.804  18.116   3.686  0.00  0.00    -0.336 N 
ATOM     69  HN  UNK N   1      20.862  17.431   4.440  1.00  0.00     0.168 HD
BRANCH  63  70
HETATM   70  N   UNK N   1      20.547  20.910   0.586  0.00  0.00    -0.383 N 
HETATM   71  H   UNK N   1      19.663  21.215   0.278  0.00  0.00     0.157 HD
HETATM   72  H   UNK N   1      21.364  21.262   0.167  0.00  0.00     0.157 HD
ENDBRANCH  63  70
ENDBRANCH  49  58
ENDBRANCH  45  46
ENDBRANCH  44  45
ENDBRANCH  40  44
ENDBRANCH  39  40
ENDBRANCH   2  39
TORSDOF 34
ENDMDL
MODEL 8
REMARK VINA RESULT:      -7.0      2.920      5.083
REMARK WARNING: 32 MAX_TORS EXCEEDED!!!
REMARK  34 active torsions:
REMARK  status: ('A' for Active; 'I' for Inactive)
REMARK    1  A    between atoms: C_5  and  C_4 
REMARK    2  A    between atoms: C_15  and  C_4 
REMARK    3  A    between atoms: N_31  and  C_5 
REMARK    4  A    between atoms: C_7  and  C_6 
REMARK    5  A    between atoms: N_29  and  C_6 
REMARK    6  A    between atoms: S_65  and  C_7 
REMARK    7  A    between atoms: C_16  and  C_8 
REMARK    8  A    between atoms: C_27  and  C_8 
REMARK    9  A    between atoms: C_17  and  C_9 
REMARK   10  A    between atoms: C_27  and  C_9 
REMARK   11  A    between atoms: C_14  and  C_10 
REMARK   12  A    between atoms: O_57  and  C_10 
REMARK   13  A    between atoms: C_26  and  C_11 
REMARK   14  A    between atoms: O_58  and  C_11 
REMARK   15  A    between atoms: N_29  and  C_15 
REMARK   16  A    between atoms: O_40  and  C_15 
REMARK   17  A    between atoms: S_65  and  C_17 
REMARK   18  A    between atoms: C_19  and  O_45 
REMARK   19  A    between atoms: C_20  and  O_60 
REMARK   20  A    between atoms: C_24  and  C_21 
REMARK   21  A    between atoms: C_26  and  C_21 
REMARK   22  A    between atoms: C_21  and  O_46 
REMARK   23  A    between atoms: N_28  and  C_22 
REMARK   24  A    between atoms: N_31  and  C_24 
REMARK   25  A    between atoms: O_47  and  C_24 
REMARK   26  A    between atoms: C_25  and  N_39 
REMARK   27  A    between atoms: C_27  and  O_49 
REMARK   28  A    between atoms: P_63  and  O_53 
REMARK   29  A    between atoms: P_64  and  O_55 
REMARK   30  A    between atoms: P_63  and  O_57 
REMARK   31  A    between atoms: P_64  and  O_58 
REMARK   32  A    between atoms: P_62  and  O_60 
REMARK   33  A    between atoms: P_63  and  O_61 
REMARK   34  A    between atoms: P_64  and  O_61 
ROOT
HETATM    1  O   UNK N   1      28.264  15.839   4.973  0.00  0.00    -0.631 OA
HETATM    2  P   UNK N   1      28.136  17.079   5.897  0.00  0.00     0.401 P 
ENDROOT
BRANCH   2   3
HETATM    3  O   UNK N   1      26.653  16.846   6.769  0.00  0.00    -0.307 OA
HETATM    4  H   UNK N   1      25.830  17.240   6.439  0.00  0.00     0.222 HD
ENDBRANCH   2   3
BRANCH   2   5
HETATM    5  O   UNK N   1      29.524  17.036   6.954  0.00  0.00    -0.296 OA
BRANCH   5   6
HETATM    6  C   UNK N   1      30.681  17.150   6.165  0.00  0.00     0.192 C 
BRANCH   6   7
HETATM    7  C   UNK N   1      31.972  16.837   6.932  0.00  0.00     0.008 C 
HETATM    8  C   UNK N   1      31.805  15.454   7.549  0.00  0.00     0.020 C 
HETATM    9  C   UNK N   1      33.161  16.766   5.972  0.00  0.00     0.020 C 
BRANCH   7  10
HETATM   10  C   UNK N   1      32.207  17.904   8.037  0.00  0.00     0.202 C 
BRANCH  10  11
HETATM   11  C   UNK N   1      33.623  17.890   8.550  0.00  0.00     0.141 C 
BRANCH  11  12
HETATM   12  N   UNK N   1      33.928  17.215   9.605  0.00  0.00    -0.372 N 
ATOM     13  HN  UNK N   1      33.251  17.143  10.363  1.00  0.00     0.161 HD
BRANCH  12  14
HETATM   14  C   UNK N   1      35.204  16.559   9.735  0.00  0.00     0.129 C 
BRANCH  14  15
HETATM   15  C   UNK N   1      35.040  15.054   9.760  0.00  0.00     0.103 C 
BRANCH  15  16
HETATM   16  C   UNK N   1      34.271  14.688  10.983  0.00  0.00     0.112 C 
BRANCH  16  17
HETATM   17  N   UNK N   1      34.880  14.134  11.973  0.00  0.00    -0.374 N 
ATOM     18  HN  UNK N   1      34.330  13.749  12.740  1.00  0.00     0.161 HD
BRANCH  17  19
HETATM   19  C   UNK N   1      36.319  14.044  12.029  0.00  0.00     0.132 C 
BRANCH  19  20
HETATM   20  C   UNK N   1      36.738  13.040  13.088  0.00  0.00     0.102 C 
BRANCH  20  21
HETATM   21  S   UNK N   1      35.368  12.764  14.250  0.00  0.00    -0.091 SA
BRANCH  21  22
HETATM   22  C   UNK N   1      35.184  11.033  13.798  0.00  0.00     0.188 C 
HETATM   23  O   UNK N   1      35.948  10.204  14.266  0.00  0.00    -0.285 OA
BRANCH  22  24
HETATM   24  C   UNK N   1      34.113  10.593  12.839  0.00  0.00     0.128 C 
BRANCH  24  25
HETATM   25  C   UNK N   1      34.636  10.053  11.506  0.00  0.00     0.071 C 
HETATM   26  C   UNK N   1      34.139   8.626  11.366  0.00  0.00     0.047 C 
BRANCH  25  27
HETATM   27  C   UNK N   1      34.111  10.911  10.347  0.00  0.00     0.150 C 
BRANCH  27  28
HETATM   28  C   UNK N   1      35.149  11.219   9.308  0.00  0.00     0.175 C 
HETATM   29  O   UNK N   1      36.213  11.712   9.641  0.00  0.00    -0.648 OA
HETATM   30  O   UNK N   1      34.917  10.941   8.011  0.00  0.00    -0.648 OA
ENDBRANCH  27  28
ENDBRANCH  25  27
BRANCH  25  31
HETATM   31  O   UNK N   1      36.033  10.044  11.510  0.00  0.00    -0.389 OA
HETATM   32  H   UNK N   1      36.547  10.407  10.771  0.00  0.00     0.210 HD
ENDBRANCH  25  31
ENDBRANCH  24  25
ENDBRANCH  22  24
ENDBRANCH  21  22
ENDBRANCH  20  21
ENDBRANCH  19  20
ENDBRANCH  17  19
ENDBRANCH  16  17
BRANCH  16  33
HETATM   33  O   UNK N   1      32.950  14.957  11.046  0.00  0.00    -0.350 OA
ATOM     34  HO  UNK N   1      32.439  14.635  11.780  1.00  0.00     0.219 HD
ENDBRANCH  16  33
ENDBRANCH  15  16
ENDBRANCH  14  15
ENDBRANCH  12  14
ENDBRANCH  11  12
BRANCH  11  35
HETATM   35  O   UNK N   1      34.576  18.560   7.865  0.00  0.00    -0.348 OA
ATOM     36  HO  UNK N   1      34.792  19.448   8.125  1.00  0.00     0.219 HD
ENDBRANCH  11  35
ENDBRANCH  10  11
BRANCH  10  37
HETATM   37  O   UNK N   1      31.311  17.723   9.096  0.00  0.00    -0.387 OA
HETATM   38  H   UNK N   1      30.555  17.128   9.220  0.00  0.00     0.210 HD
ENDBRANCH  10  37
ENDBRANCH   7  10
ENDBRANCH   6   7
ENDBRANCH   5   6
ENDBRANCH   2   5
BRANCH   2  39
HETATM   39  O   UNK N   1      28.072  18.468   4.845  0.00  0.00    -0.195 OA
BRANCH  39  40
HETATM   40  P   UNK N   1      26.950  19.612   5.537  0.00  0.00     0.401 P 
HETATM   41  O   UNK N   1      27.280  21.044   5.035  0.00  0.00    -0.631 OA
BRANCH  40  42
HETATM   42  O   UNK N   1      27.217  19.657   7.251  0.00  0.00    -0.307 OA
HETATM   43  H   UNK N   1      27.275  20.250   8.016  0.00  0.00     0.222 HD
ENDBRANCH  40  42
BRANCH  40  44
HETATM   44  O   UNK N   1      25.267  19.239   5.267  0.00  0.00    -0.294 OA
BRANCH  44  45
HETATM   45  C   UNK N   1      25.118  18.715   3.972  0.00  0.00     0.215 C 
BRANCH  45  46
HETATM   46  C   UNK N   1      24.018  17.650   3.949  0.00  0.00     0.180 C 
HETATM   47  C   UNK N   1      22.615  18.273   4.088  0.00  0.00     0.199 C 
HETATM   48  C   UNK N   1      21.942  17.165   4.860  0.00  0.00     0.199 C 
HETATM   49  C   UNK N   1      23.068  16.847   5.830  0.00  0.00     0.262 C 
HETATM   50  O   UNK N   1      24.214  16.741   5.021  0.00  0.00    -0.353 OA
BRANCH  47  51
HETATM   51  O   UNK N   1      21.936  18.505   2.869  0.00  0.00    -0.272 OA
BRANCH  51  52
HETATM   52  P   UNK N   1      21.480  20.192   2.711  0.00  0.00     0.422 P 
HETATM   53  O   UNK N   1      20.266  20.661   3.862  0.00  0.00    -0.617 OA
HETATM   54  O   UNK N   1      22.870  21.219   2.864  0.00  0.00    -0.617 OA
HETATM   55  O   UNK N   1      20.916  20.439   1.287  0.00  0.00    -0.617 OA
ENDBRANCH  51  52
ENDBRANCH  47  51
BRANCH  48  56
HETATM   56  O   UNK N   1      20.769  17.594   5.485  0.00  0.00    -0.388 OA
HETATM   57  H   UNK N   1      20.237  18.401   5.561  0.00  0.00     0.210 HD
ENDBRANCH  48  56
BRANCH  49  58
HETATM   58  N   UNK N   1      22.911  15.632   6.638  0.00  0.00    -0.297 N 
HETATM   59  C   UNK N   1      23.777  14.584   6.587  0.00  0.00     0.188 A 
HETATM   60  N   UNK N   1      23.422  13.596   7.452  0.00  0.00    -0.346 N 
HETATM   61  C   UNK N   1      22.316  14.064   8.053  0.00  0.00     0.122 A 
ATOM     62  HN  UNK N   1      23.890  12.703   7.610  1.00  0.00     0.167 HD
HETATM   63  C   UNK N   1      21.544  13.490   9.048  0.00  0.00     0.131 A 
HETATM   64  C   UNK N   1      22.003  15.281   7.564  0.00  0.00     0.142 A 
HETATM   65  N   UNK N   1      20.471  14.195   9.511  0.00  0.00    -0.337 N 
HETATM   66  C   UNK N   1      20.168  15.436   9.001  0.00  0.00     0.183 A 
ATOM     67  HN  UNK N   1      19.886  13.797  10.247  1.00  0.00     0.168 HD
HETATM   68  N   UNK N   1      20.941  15.990   8.015  0.00  0.00    -0.336 N 
ATOM     69  HN  UNK N   1      20.723  16.910   7.633  1.00  0.00     0.168 HD
BRANCH  63  70
HETATM   70  N   UNK N   1      21.859  12.223   9.581  0.00  0.00    -0.383 N 
HETATM   71  H   UNK N   1      22.196  11.511   8.990  0.00  0.00     0.157 HD
HETATM   72  H   UNK N   1      21.742  12.051  10.543  0.00  0.00     0.157 HD
ENDBRANCH  63  70
ENDBRANCH  49  58
ENDBRANCH  45  46
ENDBRANCH  44  45
ENDBRANCH  40  44
ENDBRANCH  39  40
ENDBRANCH   2  39
TORSDOF 34
ENDMDL
MODEL 9
REMARK VINA RESULT:      -7.0      5.407      9.776
REMARK WARNING: 32 MAX_TORS EXCEEDED!!!
REMARK  34 active torsions:
REMARK  status: ('A' for Active; 'I' for Inactive)
REMARK    1  A    between atoms: C_5  and  C_4 
REMARK    2  A    between atoms: C_15  and  C_4 
REMARK    3  A    between atoms: N_31  and  C_5 
REMARK    4  A    between atoms: C_7  and  C_6 
REMARK    5  A    between atoms: N_29  and  C_6 
REMARK    6  A    between atoms: S_65  and  C_7 
REMARK    7  A    between atoms: C_16  and  C_8 
REMARK    8  A    between atoms: C_27  and  C_8 
REMARK    9  A    between atoms: C_17  and  C_9 
REMARK   10  A    between atoms: C_27  and  C_9 
REMARK   11  A    between atoms: C_14  and  C_10 
REMARK   12  A    between atoms: O_57  and  C_10 
REMARK   13  A    between atoms: C_26  and  C_11 
REMARK   14  A    between atoms: O_58  and  C_11 
REMARK   15  A    between atoms: N_29  and  C_15 
REMARK   16  A    between atoms: O_40  and  C_15 
REMARK   17  A    between atoms: S_65  and  C_17 
REMARK   18  A    between atoms: C_19  and  O_45 
REMARK   19  A    between atoms: C_20  and  O_60 
REMARK   20  A    between atoms: C_24  and  C_21 
REMARK   21  A    between atoms: C_26  and  C_21 
REMARK   22  A    between atoms: C_21  and  O_46 
REMARK   23  A    between atoms: N_28  and  C_22 
REMARK   24  A    between atoms: N_31  and  C_24 
REMARK   25  A    between atoms: O_47  and  C_24 
REMARK   26  A    between atoms: C_25  and  N_39 
REMARK   27  A    between atoms: C_27  and  O_49 
REMARK   28  A    between atoms: P_63  and  O_53 
REMARK   29  A    between atoms: P_64  and  O_55 
REMARK   30  A    between atoms: P_63  and  O_57 
REMARK   31  A    between atoms: P_64  and  O_58 
REMARK   32  A    between atoms: P_62  and  O_60 
REMARK   33  A    between atoms: P_63  and  O_61 
REMARK   34  A    between atoms: P_64  and  O_61 
ROOT
HETATM    1  O   UNK N   1      20.603  13.985   0.807  0.00  0.00    -0.631 OA
HETATM    2  P   UNK N   1      21.230  14.733   2.013  0.00  0.00     0.401 P 
ENDROOT
BRANCH   2   3
HETATM    3  O   UNK N   1      22.831  15.165   1.498  0.00  0.00    -0.307 OA
HETATM    4  H   UNK N   1      23.137  14.923   0.609  0.00  0.00     0.222 HD
ENDBRANCH   2   3
BRANCH   2   5
HETATM    5  O   UNK N   1      20.232  16.140   2.279  0.00  0.00    -0.296 OA
BRANCH   5   6
HETATM    6  C   UNK N   1      21.067  17.205   2.656  0.00  0.00     0.192 C 
BRANCH   6   7
HETATM    7  C   UNK N   1      20.396  18.578   2.521  0.00  0.00     0.008 C 
HETATM    8  C   UNK N   1      20.698  19.090   1.118  0.00  0.00     0.020 C 
HETATM    9  C   UNK N   1      18.877  18.445   2.639  0.00  0.00     0.020 C 
BRANCH   7  10
HETATM   10  C   UNK N   1      20.958  19.553   3.592  0.00  0.00     0.202 C 
BRANCH  10  11
HETATM   11  C   UNK N   1      22.027  20.458   3.034  0.00  0.00     0.141 C 
BRANCH  11  12
HETATM   12  N   UNK N   1      23.254  20.067   2.987  0.00  0.00    -0.372 N 
ATOM     13  HN  UNK N   1      23.456  19.083   2.812  1.00  0.00     0.161 HD
BRANCH  12  14
HETATM   14  C   UNK N   1      24.345  20.988   3.175  0.00  0.00     0.129 C 
BRANCH  14  15
HETATM   15  C   UNK N   1      25.651  20.385   2.704  0.00  0.00     0.103 C 
BRANCH  15  16
HETATM   16  C   UNK N   1      26.320  19.746   3.872  0.00  0.00     0.112 C 
BRANCH  16  17
HETATM   17  N   UNK N   1      27.553  19.388   3.778  0.00  0.00    -0.374 N 
ATOM     18  HN  UNK N   1      28.268  20.101   3.639  1.00  0.00     0.161 HD
BRANCH  17  19
HETATM   19  C   UNK N   1      27.953  18.005   3.864  0.00  0.00     0.132 C 
BRANCH  19  20
HETATM   20  C   UNK N   1      28.973  17.824   4.975  0.00  0.00     0.102 C 
BRANCH  20  21
HETATM   21  S   UNK N   1      29.714  16.169   4.867  0.00  0.00    -0.091 SA
BRANCH  21  22
HETATM   22  C   UNK N   1      31.146  16.621   5.856  0.00  0.00     0.188 C 
HETATM   23  O   UNK N   1      31.934  17.449   5.429  0.00  0.00    -0.285 OA
BRANCH  22  24
HETATM   24  C   UNK N   1      31.395  15.984   7.194  0.00  0.00     0.128 C 
BRANCH  24  25
HETATM   25  C   UNK N   1      31.284  16.940   8.384  0.00  0.00     0.071 C 
HETATM   26  C   UNK N   1      32.530  17.807   8.390  0.00  0.00     0.047 C 
BRANCH  25  27
HETATM   27  C   UNK N   1      30.033  17.815   8.242  0.00  0.00     0.150 C 
BRANCH  27  28
HETATM   28  C   UNK N   1      29.277  18.000   9.525  0.00  0.00     0.175 C 
HETATM   29  O   UNK N   1      29.612  18.876  10.304  0.00  0.00    -0.648 OA
HETATM   30  O   UNK N   1      28.223  17.214   9.814  0.00  0.00    -0.648 OA
ENDBRANCH  27  28
ENDBRANCH  25  27
BRANCH  25  31
HETATM   31  O   UNK N   1      31.236  16.214   9.577  0.00  0.00    -0.389 OA
HETATM   32  H   UNK N   1      30.776  15.362   9.636  0.00  0.00     0.210 HD
ENDBRANCH  25  31
ENDBRANCH  24  25
ENDBRANCH  22  24
ENDBRANCH  21  22
ENDBRANCH  20  21
ENDBRANCH  19  20
ENDBRANCH  17  19
ENDBRANCH  16  17
BRANCH  16  33
HETATM   33  O   UNK N   1      25.634  19.569   5.020  0.00  0.00    -0.350 OA
ATOM     34  HO  UNK N   1      24.942  20.177   5.254  1.00  0.00     0.219 HD
ENDBRANCH  16  33
ENDBRANCH  15  16
ENDBRANCH  14  15
ENDBRANCH  12  14
ENDBRANCH  11  12
BRANCH  11  35
HETATM   35  O   UNK N   1      21.672  21.667   2.546  0.00  0.00    -0.348 OA
ATOM     36  HO  UNK N   1      21.909  21.891   1.655  1.00  0.00     0.219 HD
ENDBRANCH  11  35
ENDBRANCH  10  11
BRANCH  10  37
HETATM   37  O   UNK N   1      21.457  18.844   4.691  0.00  0.00    -0.387 OA
HETATM   38  H   UNK N   1      21.912  19.126   5.500  0.00  0.00     0.210 HD
ENDBRANCH  10  37
ENDBRANCH   7  10
ENDBRANCH   6   7
ENDBRANCH   5   6
ENDBRANCH   2   5
BRANCH   2  39
HETATM   39  O   UNK N   1      21.247  13.598   3.336  0.00  0.00    -0.195 OA
BRANCH  39  40
HETATM   40  P   UNK N   1      19.595  13.331   3.832  0.00  0.00     0.401 P 
HETATM   41  O   UNK N   1      19.269  11.813   3.786  0.00  0.00    -0.631 OA
BRANCH  40  42
HETATM   42  O   UNK N   1      18.554  14.057   2.649  0.00  0.00    -0.307 OA
HETATM   43  H   UNK N   1      18.201  14.905   2.337  0.00  0.00     0.222 HD
ENDBRANCH  40  42
BRANCH  40  44
HETATM   44  O   UNK N   1      19.184  14.000   5.390  0.00  0.00    -0.294 OA
BRANCH  44  45
HETATM   45  C   UNK N   1      19.550  15.356   5.416  0.00  0.00     0.215 C 
BRANCH  45  46
HETATM   46  C   UNK N   1      20.562  15.615   6.534  0.00  0.00     0.180 C 
HETATM   47  C   UNK N   1      22.013  15.423   6.050  0.00  0.00     0.199 C 
HETATM   48  C   UNK N   1      22.618  14.892   7.326  0.00  0.00     0.199 C 
HETATM   49  C   UNK N   1      21.497  13.951   7.736  0.00  0.00     0.262 C 
HETATM   50  O   UNK N   1      20.325  14.719   7.609  0.00  0.00    -0.353 OA
BRANCH  47  51
HETATM   51  O   UNK N   1      22.676  16.607   5.647  0.00  0.00    -0.272 OA
BRANCH  51  52
HETATM   52  P   UNK N   1      24.136  16.238   4.747  0.00  0.00     0.422 P 
HETATM   53  O   UNK N   1      24.207  14.575   4.253  0.00  0.00    -0.617 OA
HETATM   54  O   UNK N   1      24.280  17.275   3.363  0.00  0.00    -0.617 OA
HETATM   55  O   UNK N   1      25.373  16.531   5.636  0.00  0.00    -0.617 OA
ENDBRANCH  51  52
ENDBRANCH  47  51
BRANCH  48  56
HETATM   56  O   UNK N   1      23.837  14.247   7.104  0.00  0.00    -0.388 OA
HETATM   57  H   UNK N   1      24.235  13.644   6.458  0.00  0.00     0.210 HD
ENDBRANCH  48  56
BRANCH  49  58
HETATM   58  N   UNK N   1      21.580  13.383   9.086  0.00  0.00    -0.297 N 
HETATM   59  C   UNK N   1      20.489  13.115   9.852  0.00  0.00     0.188 A 
HETATM   60  N   UNK N   1      20.837  12.569  11.049  0.00  0.00    -0.346 N 
HETATM   61  C   UNK N   1      22.177  12.493  11.001  0.00  0.00     0.122 A 
ATOM     62  HN  UNK N   1      20.220  12.281  11.809  1.00  0.00     0.167 HD
HETATM   63  C   UNK N   1      23.064  11.988  11.935  0.00  0.00     0.131 A 
HETATM   64  C   UNK N   1      22.626  12.986   9.829  0.00  0.00     0.142 A 
HETATM   65  N   UNK N   1      24.394  12.004  11.627  0.00  0.00    -0.337 N 
HETATM   66  C   UNK N   1      24.835  12.509  10.426  0.00  0.00     0.183 A 
ATOM     67  HN  UNK N   1      25.070  11.636  12.296  1.00  0.00     0.168 HD
HETATM   68  N   UNK N   1      23.943  13.007   9.513  0.00  0.00    -0.336 N 
ATOM     69  HN  UNK N   1      24.263  13.382   8.619  1.00  0.00     0.168 HD
BRANCH  63  70
HETATM   70  N   UNK N   1      22.614  11.459  13.162  0.00  0.00    -0.383 N 
HETATM   71  H   UNK N   1      22.194  10.569  13.190  0.00  0.00     0.157 HD
HETATM   72  H   UNK N   1      22.720  11.980  13.990  0.00  0.00     0.157 HD
ENDBRANCH  63  70
ENDBRANCH  49  58
ENDBRANCH  45  46
ENDBRANCH  44  45
ENDBRANCH  40  44
ENDBRANCH  39  40
ENDBRANCH   2  39
TORSDOF 34
ENDMDL
