MODEL 1
REMARK VINA RESULT:      -5.6      0.000      0.000
REMARK  7 active torsions:
REMARK  status: ('A' for Active; 'I' for Inactive)
REMARK    1  A    between atoms: C_5  and  C_4 
REMARK    2  A    between atoms: C_6  and  C_4 
REMARK    3  A    between atoms: C_9  and  C_6 
REMARK    4  A    between atoms: C_6  and  N_11 
REMARK    5  A    between atoms: C_10  and  C_7 
REMARK    6  A    between atoms: O_14  and  C_8 
REMARK    7  A    between atoms: O_17  and  C_9 
ROOT
HETATM    1  C   UNK N   1      35.266  12.955  17.275  0.00  0.00     0.029 A 
HETATM    2  C   UNK N   1      35.251  11.671  17.806  0.00  0.00     0.094 A 
HETATM    3  C   UNK N   1      35.291  13.774  18.379  0.00  0.00     0.169 A 
HETATM    4  N   UNK N   1      35.303  13.027  19.494  0.00  0.00    -0.239 N 
ATOM      5  HN  UNK N   1      35.324  13.372  20.454  1.00  0.00     0.197 HD
HETATM    6  O   UNK N   1      35.284  11.776  19.120  0.00  0.00    -0.239 OA
ENDROOT
BRANCH   1   7
HETATM    7  C   UNK N   1      35.306  13.364  15.832  0.00  0.00     0.081 C 
BRANCH   7   8
HETATM    8  C   UNK N   1      36.753  13.439  15.331  0.00  0.00     0.177 C 
BRANCH   8   9
HETATM    9  C   UNK N   1      36.833  13.049  13.883  0.00  0.00     0.163 C 
HETATM   10  O   UNK N   1      36.858  11.869  13.572  0.00  0.00    -0.648 OA
BRANCH   9  11
HETATM   11  O   UNK N   1      36.916  13.992  12.923  0.00  0.00    -0.775 OA
HETATM   12  H   UNK N   1      37.720  14.166  12.474  0.00  0.00     0.167 HD
ENDBRANCH   9  11
ENDBRANCH   8   9
BRANCH   8  13
HETATM   13  N   UNK N   1      37.273  14.783  15.521  0.00  0.00    -0.417 N 
HETATM   14  H   UNK N   1      38.178  15.041  15.125  0.00  0.00     0.150 HD
HETATM   15  H   UNK N   1      36.735  15.469  16.050  0.00  0.00     0.150 HD
ENDBRANCH   8  13
ENDBRANCH   7   8
ENDBRANCH   1   7
BRANCH   2  16
HETATM   16  C   UNK N   1      35.216  10.337  17.095  0.00  0.00     0.001 C 
HETATM   17  C   UNK N   1      36.630   9.927  16.736  0.00  0.00     0.021 C 
HETATM   18  C   UNK N   1      34.631   9.294  18.027  0.00  0.00     0.021 C 
HETATM   19  C   UNK N   1      34.384  10.343  15.825  0.00  0.00     0.021 C 
ENDBRANCH   2  16
BRANCH   3  20
HETATM   20  O   UNK N   1      35.309  15.118  18.378  0.00  0.00    -0.344 OA
ATOM     21  HO  UNK N   1      34.694  15.691  17.935  1.00  0.00     0.219 HD
ENDBRANCH   3  20
TORSDOF 7
ENDMDL
MODEL 2
REMARK VINA RESULT:      -5.5      8.191     10.413
REMARK  7 active torsions:
REMARK  status: ('A' for Active; 'I' for Inactive)
REMARK    1  A    between atoms: C_5  and  C_4 
REMARK    2  A    between atoms: C_6  and  C_4 
REMARK    3  A    between atoms: C_9  and  C_6 
REMARK    4  A    between atoms: C_6  and  N_11 
REMARK    5  A    between atoms: C_10  and  C_7 
REMARK    6  A    between atoms: O_14  and  C_8 
REMARK    7  A    between atoms: O_17  and  C_9 
ROOT
HETATM    1  C   UNK N   1      32.660  15.156   8.350  0.00  0.00     0.029 A 
HETATM    2  C   UNK N   1      32.151  14.614   7.177  0.00  0.00     0.094 A 
HETATM    3  C   UNK N   1      33.013  14.059   9.100  0.00  0.00     0.169 A 
HETATM    4  N   UNK N   1      32.743  12.938   8.414  0.00  0.00    -0.239 N 
ATOM      5  HN  UNK N   1      32.907  11.981   8.728  1.00  0.00     0.197 HD
HETATM    6  O   UNK N   1      32.235  13.301   7.267  0.00  0.00    -0.239 OA
ENDROOT
BRANCH   1   7
HETATM    7  C   UNK N   1      32.843  16.602   8.703  0.00  0.00     0.081 C 
BRANCH   7   8
HETATM    8  C   UNK N   1      34.332  16.949   8.810  0.00  0.00     0.177 C 
BRANCH   8   9
HETATM    9  C   UNK N   1      34.646  18.185   8.016  0.00  0.00     0.163 C 
HETATM   10  O   UNK N   1      34.350  18.239   6.833  0.00  0.00    -0.648 OA
BRANCH   9  11
HETATM   11  O   UNK N   1      35.288  19.223   8.589  0.00  0.00    -0.775 OA
HETATM   12  H   UNK N   1      35.177  20.099   8.279  0.00  0.00     0.167 HD
ENDBRANCH   9  11
ENDBRANCH   8   9
BRANCH   8  13
HETATM   13  N   UNK N   1      34.698  17.139  10.204  0.00  0.00    -0.417 N 
HETATM   14  H   UNK N   1      35.039  16.351  10.754  0.00  0.00     0.150 HD
HETATM   15  H   UNK N   1      34.613  18.061  10.632  0.00  0.00     0.150 HD
ENDBRANCH   8  13
ENDBRANCH   7   8
ENDBRANCH   1   7
BRANCH   2  16
HETATM   16  C   UNK N   1      31.592  15.313   5.957  0.00  0.00     0.001 C 
HETATM   17  C   UNK N   1      32.736  15.754   5.068  0.00  0.00     0.021 C 
HETATM   18  C   UNK N   1      30.723  14.340   5.184  0.00  0.00     0.021 C 
HETATM   19  C   UNK N   1      30.745  16.531   6.287  0.00  0.00     0.021 C 
ENDBRANCH   2  16
BRANCH   3  20
HETATM   20  O   UNK N   1      33.554  14.071  10.330  0.00  0.00    -0.344 OA
ATOM     21  HO  UNK N   1      33.102  14.263  11.144  1.00  0.00     0.219 HD
ENDBRANCH   3  20
TORSDOF 7
ENDMDL
MODEL 3
REMARK VINA RESULT:      -5.4      7.826     10.561
REMARK  7 active torsions:
REMARK  status: ('A' for Active; 'I' for Inactive)
REMARK    1  A    between atoms: C_5  and  C_4 
REMARK    2  A    between atoms: C_6  and  C_4 
REMARK    3  A    between atoms: C_9  and  C_6 
REMARK    4  A    between atoms: C_6  and  N_11 
REMARK    5  A    between atoms: C_10  and  C_7 
REMARK    6  A    between atoms: O_14  and  C_8 
REMARK    7  A    between atoms: O_17  and  C_9 
ROOT
HETATM    1  C   UNK N   1      33.425  16.685   8.231  0.00  0.00     0.029 A 
HETATM    2  C   UNK N   1      33.414  17.216   6.948  0.00  0.00     0.094 A 
HETATM    3  C   UNK N   1      34.326  17.470   8.912  0.00  0.00     0.169 A 
HETATM    4  N   UNK N   1      34.810  18.415   8.091  0.00  0.00    -0.239 N 
ATOM      5  HN  UNK N   1      35.492  19.135   8.332  1.00  0.00     0.197 HD
HETATM    6  O   UNK N   1      34.244  18.242   6.928  0.00  0.00    -0.239 OA
ENDROOT
BRANCH   1   7
HETATM    7  C   UNK N   1      32.604  15.554   8.776  0.00  0.00     0.081 C 
BRANCH   7   8
HETATM    8  C   UNK N   1      33.437  14.270   8.859  0.00  0.00     0.177 C 
BRANCH   8   9
HETATM    9  C   UNK N   1      33.958  14.065  10.253  0.00  0.00     0.163 C 
HETATM   10  O   UNK N   1      34.759  13.172  10.477  0.00  0.00    -0.648 OA
BRANCH   9  11
HETATM   11  O   UNK N   1      33.519  14.836  11.268  0.00  0.00    -0.775 OA
HETATM   12  H   UNK N   1      32.985  14.487  11.953  0.00  0.00     0.167 HD
ENDBRANCH   9  11
ENDBRANCH   8   9
BRANCH   8  13
HETATM   13  N   UNK N   1      32.634  13.131   8.447  0.00  0.00    -0.417 N 
HETATM   14  H   UNK N   1      33.081  12.234   8.255  0.00  0.00     0.150 HD
HETATM   15  H   UNK N   1      31.623  13.227   8.351  0.00  0.00     0.150 HD
ENDBRANCH   8  13
ENDBRANCH   7   8
ENDBRANCH   1   7
BRANCH   2  16
HETATM   16  C   UNK N   1      32.624  16.782   5.733  0.00  0.00     0.001 C 
HETATM   17  C   UNK N   1      31.147  16.973   6.006  0.00  0.00     0.021 C 
HETATM   18  C   UNK N   1      33.016  17.648   4.552  0.00  0.00     0.021 C 
HETATM   19  C   UNK N   1      32.855  15.332   5.342  0.00  0.00     0.021 C 
ENDBRANCH   2  16
BRANCH   3  20
HETATM   20  O   UNK N   1      34.684  17.343  10.201  0.00  0.00    -0.344 OA
ATOM     21  HO  UNK N   1      35.435  16.866  10.534  1.00  0.00     0.219 HD
ENDBRANCH   3  20
TORSDOF 7
ENDMDL
MODEL 4
REMARK VINA RESULT:      -5.4     10.466     12.455
REMARK  7 active torsions:
REMARK  status: ('A' for Active; 'I' for Inactive)
REMARK    1  A    between atoms: C_5  and  C_4 
REMARK    2  A    between atoms: C_6  and  C_4 
REMARK    3  A    between atoms: C_9  and  C_6 
REMARK    4  A    between atoms: C_6  and  N_11 
REMARK    5  A    between atoms: C_10  and  C_7 
REMARK    6  A    between atoms: O_14  and  C_8 
REMARK    7  A    between atoms: O_17  and  C_9 
ROOT
HETATM    1  C   UNK N   1      31.992  17.186   7.373  0.00  0.00     0.029 A 
HETATM    2  C   UNK N   1      32.327  17.292   6.029  0.00  0.00     0.094 A 
HETATM    3  C   UNK N   1      33.120  17.612   8.034  0.00  0.00     0.169 A 
HETATM    4  N   UNK N   1      34.061  17.961   7.143  0.00  0.00    -0.239 N 
ATOM      5  HN  UNK N   1      34.994  18.314   7.354  1.00  0.00     0.197 HD
HETATM    6  O   UNK N   1      33.557  17.764   5.955  0.00  0.00    -0.239 OA
ENDROOT
BRANCH   1   7
HETATM    7  C   UNK N   1      30.685  16.763   7.974  0.00  0.00     0.081 C 
BRANCH   7   8
HETATM    8  C   UNK N   1      29.863  17.985   8.398  0.00  0.00     0.177 C 
BRANCH   8   9
HETATM    9  C   UNK N   1      28.394  17.678   8.353  0.00  0.00     0.163 C 
HETATM   10  O   UNK N   1      27.938  17.018   7.432  0.00  0.00    -0.648 OA
BRANCH   9  11
HETATM   11  O   UNK N   1      27.564  18.155   9.303  0.00  0.00    -0.775 OA
HETATM   12  H   UNK N   1      27.748  18.953   9.758  0.00  0.00     0.167 HD
ENDBRANCH   9  11
ENDBRANCH   8   9
BRANCH   8  13
HETATM   13  N   UNK N   1      30.250  18.403   9.735  0.00  0.00    -0.417 N 
HETATM   14  H   UNK N   1      29.764  19.176  10.190  0.00  0.00     0.150 HD
HETATM   15  H   UNK N   1      31.008  17.922  10.221  0.00  0.00     0.150 HD
ENDBRANCH   8  13
ENDBRANCH   7   8
ENDBRANCH   1   7
BRANCH   2  16
HETATM   16  C   UNK N   1      31.503  16.966   4.803  0.00  0.00     0.001 C 
HETATM   17  C   UNK N   1      32.292  17.329   3.562  0.00  0.00     0.021 C 
HETATM   18  C   UNK N   1      31.218  15.477   4.780  0.00  0.00     0.021 C 
HETATM   19  C   UNK N   1      30.171  17.694   4.752  0.00  0.00     0.021 C 
ENDBRANCH   2  16
BRANCH   3  20
HETATM   20  O   UNK N   1      33.286  17.686   9.366  0.00  0.00    -0.344 OA
ATOM     21  HO  UNK N   1      34.033  18.056   9.822  1.00  0.00     0.219 HD
ENDBRANCH   3  20
TORSDOF 7
ENDMDL
MODEL 5
REMARK VINA RESULT:      -5.3     10.974     12.981
REMARK  7 active torsions:
REMARK  status: ('A' for Active; 'I' for Inactive)
REMARK    1  A    between atoms: C_5  and  C_4 
REMARK    2  A    between atoms: C_6  and  C_4 
REMARK    3  A    between atoms: C_9  and  C_6 
REMARK    4  A    between atoms: C_6  and  N_11 
REMARK    5  A    between atoms: C_10  and  C_7 
REMARK    6  A    between atoms: O_14  and  C_8 
REMARK    7  A    between atoms: O_17  and  C_9 
ROOT
HETATM    1  C   UNK N   1      30.476  17.278   6.338  0.00  0.00     0.029 A 
HETATM    2  C   UNK N   1      31.815  17.232   5.971  0.00  0.00     0.094 A 
HETATM    3  C   UNK N   1      29.820  17.602   5.174  0.00  0.00     0.169 A 
HETATM    4  N   UNK N   1      30.709  17.728   4.176  0.00  0.00    -0.239 N 
ATOM      5  HN  UNK N   1      30.500  17.960   3.205  1.00  0.00     0.197 HD
HETATM    6  O   UNK N   1      31.890  17.496   4.681  0.00  0.00    -0.239 OA
ENDROOT
BRANCH   1   7
HETATM    7  C   UNK N   1      29.869  16.986   7.678  0.00  0.00     0.081 C 
BRANCH   7   8
HETATM    8  C   UNK N   1      29.664  18.279   8.474  0.00  0.00     0.177 C 
BRANCH   8   9
HETATM    9  C   UNK N   1      28.228  18.714   8.419  0.00  0.00     0.163 C 
HETATM   10  O   UNK N   1      27.850  19.454   7.524  0.00  0.00    -0.648 OA
BRANCH   9  11
HETATM   11  O   UNK N   1      27.356  18.325   9.371  0.00  0.00    -0.775 OA
HETATM   12  H   UNK N   1      26.600  17.813   9.164  0.00  0.00     0.167 HD
ENDBRANCH   9  11
ENDBRANCH   8   9
BRANCH   8  13
HETATM   13  N   UNK N   1      30.079  18.083   9.853  0.00  0.00    -0.417 N 
HETATM   14  H   UNK N   1      29.384  18.086  10.601  0.00  0.00     0.150 HD
HETATM   15  H   UNK N   1      31.065  17.943  10.075  0.00  0.00     0.150 HD
ENDBRANCH   8  13
ENDBRANCH   7   8
ENDBRANCH   1   7
BRANCH   2  16
HETATM   16  C   UNK N   1      33.034  16.931   6.815  0.00  0.00     0.001 C 
HETATM   17  C   UNK N   1      32.805  15.642   7.578  0.00  0.00     0.021 C 
HETATM   18  C   UNK N   1      34.233  16.750   5.905  0.00  0.00     0.021 C 
HETATM   19  C   UNK N   1      33.370  18.025   7.813  0.00  0.00     0.021 C 
ENDBRANCH   2  16
BRANCH   3  20
HETATM   20  O   UNK N   1      28.495  17.768   5.021  0.00  0.00    -0.344 OA
ATOM     21  HO  UNK N   1      27.989  17.584   4.239  1.00  0.00     0.219 HD
ENDBRANCH   3  20
TORSDOF 7
ENDMDL
MODEL 6
REMARK VINA RESULT:      -5.2     20.693     21.900
REMARK  7 active torsions:
REMARK  status: ('A' for Active; 'I' for Inactive)
REMARK    1  A    between atoms: C_5  and  C_4 
REMARK    2  A    between atoms: C_6  and  C_4 
REMARK    3  A    between atoms: C_9  and  C_6 
REMARK    4  A    between atoms: C_6  and  N_11 
REMARK    5  A    between atoms: C_10  and  C_7 
REMARK    6  A    between atoms: O_14  and  C_8 
REMARK    7  A    between atoms: O_17  and  C_9 
ROOT
HETATM    1  C   UNK N   1      20.348  16.792   2.112  0.00  0.00     0.029 A 
HETATM    2  C   UNK N   1      19.816  15.639   2.675  0.00  0.00     0.094 A 
HETATM    3  C   UNK N   1      20.026  16.694   0.779  0.00  0.00     0.169 A 
HETATM    4  N   UNK N   1      19.337  15.563   0.564  0.00  0.00    -0.239 N 
ATOM      5  HN  UNK N   1      18.970  15.238  -0.331  1.00  0.00     0.197 HD
HETATM    6  O   UNK N   1      19.223  14.957   1.715  0.00  0.00    -0.239 OA
ENDROOT
BRANCH   1   7
HETATM    7  C   UNK N   1      21.058  17.920   2.801  0.00  0.00     0.081 C 
BRANCH   7   8
HETATM    8  C   UNK N   1      20.176  19.172   2.840  0.00  0.00     0.177 C 
BRANCH   8   9
HETATM    9  C   UNK N   1      20.792  20.280   2.036  0.00  0.00     0.163 C 
HETATM   10  O   UNK N   1      20.948  20.144   0.833  0.00  0.00    -0.648 OA
BRANCH   9  11
HETATM   11  O   UNK N   1      21.209  21.413   2.636  0.00  0.00    -0.775 OA
HETATM   12  H   UNK N   1      22.117  21.581   2.790  0.00  0.00     0.167 HD
ENDBRANCH   9  11
ENDBRANCH   8   9
BRANCH   8  13
HETATM   13  N   UNK N   1      18.849  18.859   2.335  0.00  0.00    -0.417 N 
HETATM   14  H   UNK N   1      18.389  17.990   2.609  0.00  0.00     0.150 HD
HETATM   15  H   UNK N   1      18.377  19.509   1.706  0.00  0.00     0.150 HD
ENDBRANCH   8  13
ENDBRANCH   7   8
ENDBRANCH   1   7
BRANCH   2  16
HETATM   16  C   UNK N   1      19.846  15.167   4.112  0.00  0.00     0.001 C 
HETATM   17  C   UNK N   1      19.152  13.824   4.210  0.00  0.00     0.021 C 
HETATM   18  C   UNK N   1      21.289  15.001   4.548  0.00  0.00     0.021 C 
HETATM   19  C   UNK N   1      19.175  16.124   5.082  0.00  0.00     0.021 C 
ENDBRANCH   2  16
BRANCH   3  20
HETATM   20  O   UNK N   1      20.332  17.579  -0.185  0.00  0.00    -0.344 OA
ATOM     21  HO  UNK N   1      20.959  18.290  -0.121  1.00  0.00     0.219 HD
ENDBRANCH   3  20
TORSDOF 7
ENDMDL
MODEL 7
REMARK VINA RESULT:      -5.1      7.590     10.106
REMARK  7 active torsions:
REMARK  status: ('A' for Active; 'I' for Inactive)
REMARK    1  A    between atoms: C_5  and  C_4 
REMARK    2  A    between atoms: C_6  and  C_4 
REMARK    3  A    between atoms: C_9  and  C_6 
REMARK    4  A    between atoms: C_6  and  N_11 
REMARK    5  A    between atoms: C_10  and  C_7 
REMARK    6  A    between atoms: O_14  and  C_8 
REMARK    7  A    between atoms: O_17  and  C_9 
ROOT
HETATM    1  C   UNK N   1      34.540  16.468   8.370  0.00  0.00     0.029 A 
HETATM    2  C   UNK N   1      34.088  17.019   7.178  0.00  0.00     0.094 A 
HETATM    3  C   UNK N   1      34.933  17.555   9.114  0.00  0.00     0.169 A 
HETATM    4  N   UNK N   1      34.719  18.681   8.416  0.00  0.00    -0.239 N 
ATOM      5  HN  UNK N   1      34.916  19.632   8.726  1.00  0.00     0.197 HD
HETATM    6  O   UNK N   1      34.208  18.329   7.267  0.00  0.00    -0.239 OA
ENDROOT
BRANCH   1   7
HETATM    7  C   UNK N   1      34.546  15.026   8.784  0.00  0.00     0.081 C 
BRANCH   7   8
HETATM    8  C   UNK N   1      35.943  14.420   8.617  0.00  0.00     0.177 C 
BRANCH   8   9
HETATM    9  C   UNK N   1      36.630  14.296   9.947  0.00  0.00     0.163 C 
HETATM   10  O   UNK N   1      36.502  13.275  10.604  0.00  0.00    -0.648 OA
BRANCH   9  11
HETATM   11  O   UNK N   1      37.359  15.317  10.440  0.00  0.00    -0.775 OA
HETATM   12  H   UNK N   1      37.959  15.194  11.148  0.00  0.00     0.167 HD
ENDBRANCH   9  11
ENDBRANCH   8   9
BRANCH   8  13
HETATM   13  N   UNK N   1      35.846  13.119   7.976  0.00  0.00    -0.417 N 
HETATM   14  H   UNK N   1      35.185  12.425   8.326  0.00  0.00     0.150 HD
HETATM   15  H   UNK N   1      36.440  12.898   7.176  0.00  0.00     0.150 HD
ENDBRANCH   8  13
ENDBRANCH   7   8
ENDBRANCH   1   7
BRANCH   2  16
HETATM   16  C   UNK N   1      33.530  16.332   5.951  0.00  0.00     0.001 C 
HETATM   17  C   UNK N   1      33.116  17.381   4.939  0.00  0.00     0.021 C 
HETATM   18  C   UNK N   1      34.610  15.464   5.336  0.00  0.00     0.021 C 
HETATM   19  C   UNK N   1      32.331  15.446   6.240  0.00  0.00     0.021 C 
ENDBRANCH   2  16
BRANCH   3  20
HETATM   20  O   UNK N   1      35.451  17.531  10.355  0.00  0.00    -0.344 OA
ATOM     21  HO  UNK N   1      36.191  17.012  10.648  1.00  0.00     0.219 HD
ENDBRANCH   3  20
TORSDOF 7
ENDMDL
MODEL 8
REMARK VINA RESULT:      -5.1     11.574     13.207
REMARK  7 active torsions:
REMARK  status: ('A' for Active; 'I' for Inactive)
REMARK    1  A    between atoms: C_5  and  C_4 
REMARK    2  A    between atoms: C_6  and  C_4 
REMARK    3  A    between atoms: C_9  and  C_6 
REMARK    4  A    between atoms: C_6  and  N_11 
REMARK    5  A    between atoms: C_10  and  C_7 
REMARK    6  A    between atoms: O_14  and  C_8 
REMARK    7  A    between atoms: O_17  and  C_9 
ROOT
HETATM    1  C   UNK N   1      28.996  17.467   7.609  0.00  0.00     0.029 A 
HETATM    2  C   UNK N   1      30.315  17.036   7.671  0.00  0.00     0.094 A 
HETATM    3  C   UNK N   1      28.691  17.799   8.908  0.00  0.00     0.169 A 
HETATM    4  N   UNK N   1      29.761  17.591   9.690  0.00  0.00    -0.239 N 
ATOM      5  HN  UNK N   1      29.819  17.755  10.696  1.00  0.00     0.197 HD
HETATM    6  O   UNK N   1      30.717  17.141   8.923  0.00  0.00    -0.239 OA
ENDROOT
BRANCH   1   7
HETATM    7  C   UNK N   1      28.117  17.601   6.401  0.00  0.00     0.081 C 
BRANCH   7   8
HETATM    8  C   UNK N   1      27.984  19.071   5.988  0.00  0.00     0.177 C 
BRANCH   8   9
HETATM    9  C   UNK N   1      27.852  19.193   4.497  0.00  0.00     0.163 C 
HETATM   10  O   UNK N   1      27.278  20.156   4.015  0.00  0.00    -0.648 OA
BRANCH   9  11
HETATM   11  O   UNK N   1      28.330  18.229   3.685  0.00  0.00    -0.775 OA
HETATM   12  H   UNK N   1      28.936  17.584   3.994  0.00  0.00     0.167 HD
ENDBRANCH   9  11
ENDBRANCH   8   9
BRANCH   8  13
HETATM   13  N   UNK N   1      26.835  19.669   6.647  0.00  0.00    -0.417 N 
HETATM   14  H   UNK N   1      26.486  20.578   6.341  0.00  0.00     0.150 HD
HETATM   15  H   UNK N   1      26.376  19.181   7.417  0.00  0.00     0.150 HD
ENDBRANCH   8  13
ENDBRANCH   7   8
ENDBRANCH   1   7
BRANCH   2  16
HETATM   16  C   UNK N   1      31.215  16.534   6.564  0.00  0.00     0.001 C 
HETATM   17  C   UNK N   1      32.634  16.429   7.086  0.00  0.00     0.021 C 
HETATM   18  C   UNK N   1      30.752  15.155   6.136  0.00  0.00     0.021 C 
HETATM   19  C   UNK N   1      31.223  17.423   5.333  0.00  0.00     0.021 C 
ENDBRANCH   2  16
BRANCH   3  20
HETATM   20  O   UNK N   1      27.515  18.269   9.359  0.00  0.00    -0.344 OA
ATOM     21  HO  UNK N   1      27.389  18.904  10.055  1.00  0.00     0.219 HD
ENDBRANCH   3  20
TORSDOF 7
ENDMDL
MODEL 9
REMARK VINA RESULT:      -5.0      7.951     10.335
REMARK  7 active torsions:
REMARK  status: ('A' for Active; 'I' for Inactive)
REMARK    1  A    between atoms: C_5  and  C_4 
REMARK    2  A    between atoms: C_6  and  C_4 
REMARK    3  A    between atoms: C_9  and  C_6 
REMARK    4  A    between atoms: C_6  and  N_11 
REMARK    5  A    between atoms: C_10  and  C_7 
REMARK    6  A    between atoms: O_14  and  C_8 
REMARK    7  A    between atoms: O_17  and  C_9 
ROOT
HETATM    1  C   UNK N   1      34.553  16.495   8.220  0.00  0.00     0.029 A 
HETATM    2  C   UNK N   1      34.048  17.111   7.082  0.00  0.00     0.094 A 
HETATM    3  C   UNK N   1      34.910  17.542   9.037  0.00  0.00     0.169 A 
HETATM    4  N   UNK N   1      34.626  18.704   8.430  0.00  0.00    -0.239 N 
ATOM      5  HN  UNK N   1      34.784  19.639   8.808  1.00  0.00     0.197 HD
HETATM    6  O   UNK N   1      34.107  18.415   7.267  0.00  0.00    -0.239 OA
ENDROOT
BRANCH   1   7
HETATM    7  C   UNK N   1      34.638  15.028   8.523  0.00  0.00     0.081 C 
BRANCH   7   8
HETATM    8  C   UNK N   1      33.380  14.554   9.258  0.00  0.00     0.177 C 
BRANCH   8   9
HETATM    9  C   UNK N   1      33.153  13.087   9.030  0.00  0.00     0.163 C 
HETATM   10  O   UNK N   1      32.634  12.706   7.993  0.00  0.00    -0.648 OA
BRANCH   9  11
HETATM   11  O   UNK N   1      33.485  12.186   9.977  0.00  0.00    -0.775 OA
HETATM   12  H   UNK N   1      34.301  12.234  10.434  0.00  0.00     0.167 HD
ENDBRANCH   9  11
ENDBRANCH   8   9
BRANCH   8  13
HETATM   13  N   UNK N   1      33.503  14.829  10.680  0.00  0.00    -0.417 N 
HETATM   14  H   UNK N   1      32.843  15.459  11.138  0.00  0.00     0.150 HD
HETATM   15  H   UNK N   1      34.250  14.393  11.222  0.00  0.00     0.150 HD
ENDBRANCH   8  13
ENDBRANCH   7   8
ENDBRANCH   1   7
BRANCH   2  16
HETATM   16  C   UNK N   1      33.497  16.491   5.817  0.00  0.00     0.001 C 
HETATM   17  C   UNK N   1      34.493  15.484   5.280  0.00  0.00     0.021 C 
HETATM   18  C   UNK N   1      32.204  15.769   6.142  0.00  0.00     0.021 C 
HETATM   19  C   UNK N   1      33.201  17.501   4.722  0.00  0.00     0.021 C 
ENDBRANCH   2  16
BRANCH   3  20
HETATM   20  O   UNK N   1      35.456  17.450  10.262  0.00  0.00    -0.344 OA
ATOM     21  HO  UNK N   1      36.068  16.787  10.560  1.00  0.00     0.219 HD
ENDBRANCH   3  20
TORSDOF 7
ENDMDL
