MODEL 1
REMARK VINA RESULT:      -6.0      0.000      0.000
REMARK WARNING: 32 MAX_TORS EXCEEDED!!!
REMARK  35 active torsions:
REMARK  status: ('A' for Active; 'I' for Inactive)
REMARK    1  A    between atoms: C_4  and  C_3 
REMARK    2  A    between atoms: C_8  and  C_3 
REMARK    3  A    between atoms: C_16  and  C_4 
REMARK    4  A    between atoms: C_6  and  C_5 
REMARK    5  A    between atoms: C_15  and  C_5 
REMARK    6  A    between atoms: N_29  and  C_6 
REMARK    7  A    between atoms: C_9  and  C_7 
REMARK    8  A    between atoms: N_27  and  C_7 
REMARK    9  A    between atoms: N_38  and  C_8 
REMARK   10  A    between atoms: S_61  and  C_9 
REMARK   11  A    between atoms: C_14  and  C_10 
REMARK   12  A    between atoms: O_53  and  C_10 
REMARK   13  A    between atoms: C_25  and  C_11 
REMARK   14  A    between atoms: O_54  and  C_11 
REMARK   15  A    between atoms: N_27  and  C_15 
REMARK   16  A    between atoms: O_39  and  C_15 
REMARK   17  A    between atoms: S_61  and  C_16 
REMARK   18  A    between atoms: C_18  and  O_41 
REMARK   19  A    between atoms: C_19  and  O_56 
REMARK   20  A    between atoms: C_23  and  C_20 
REMARK   21  A    between atoms: C_25  and  C_20 
REMARK   22  A    between atoms: C_20  and  O_42 
REMARK   23  A    between atoms: N_26  and  C_21 
REMARK   24  A    between atoms: N_29  and  C_23 
REMARK   25  A    between atoms: O_43  and  C_23 
REMARK   26  A    between atoms: C_24  and  N_37 
REMARK   27  A    between atoms: P_58  and  O_46 
REMARK   28  A    between atoms: P_58  and  O_47 
REMARK   29  A    between atoms: P_59  and  O_49 
REMARK   30  A    between atoms: P_60  and  O_51 
REMARK   31  A    between atoms: P_59  and  O_53 
REMARK   32  A    between atoms: P_60  and  O_54 
REMARK   33  A    between atoms: P_58  and  O_56 
REMARK   34  A    between atoms: P_59  and  O_57 
REMARK   35  A    between atoms: P_60  and  O_57 
ROOT
HETATM    1  O   UNK N   1      28.147  19.589   6.942  0.00  0.00    -0.195 OA
ENDROOT
BRANCH   1   2
HETATM    2  P   UNK N   1      26.742  19.683   5.840  0.00  0.00     0.401 P 
HETATM    3  O   UNK N   1      27.911  20.011   4.873  0.00  0.00    -0.631 OA
BRANCH   2   4
HETATM    4  O   UNK N   1      26.629  17.951   5.985  0.00  0.00    -0.307 OA
HETATM    5  H   UNK N   1      27.356  17.390   6.297  0.00  0.00     0.222 HD
ENDBRANCH   2   4
BRANCH   2   6
HETATM    6  O   UNK N   1      26.234  19.190   4.242  0.00  0.00    -0.294 OA
BRANCH   6   7
HETATM    7  C   UNK N   1      24.880  19.568   4.092  0.00  0.00     0.215 C 
BRANCH   7   8
HETATM    8  C   UNK N   1      23.926  18.380   4.030  0.00  0.00     0.180 C 
HETATM    9  C   UNK N   1      22.443  18.754   3.840  0.00  0.00     0.197 C 
HETATM   10  C   UNK N   1      21.861  17.447   4.260  0.00  0.00     0.199 C 
HETATM   11  C   UNK N   1      22.683  17.276   5.547  0.00  0.00     0.262 C 
HETATM   12  O   UNK N   1      24.020  17.581   5.200  0.00  0.00    -0.353 OA
BRANCH   9  13
HETATM   13  O   UNK N   1      22.099  19.139   2.522  0.00  0.00    -0.286 OA
BRANCH  13  14
HETATM   14  P   UNK N   1      21.150  20.627   2.566  0.00  0.00     0.391 P 
HETATM   15  O   UNK N   1      20.227  20.539   3.807  0.00  0.00    -0.632 OA
BRANCH  14  16
HETATM   16  O   UNK N   1      22.108  22.059   2.813  0.00  0.00    -0.307 OA
HETATM   17  H   UNK N   1      22.755  22.761   2.645  0.00  0.00     0.222 HD
ENDBRANCH  14  16
BRANCH  14  18
HETATM   18  O   UNK N   1      20.093  20.793   1.196  0.00  0.00    -0.307 OA
HETATM   19  H   UNK N   1      20.189  21.252   0.347  0.00  0.00     0.222 HD
ENDBRANCH  14  18
ENDBRANCH  13  14
ENDBRANCH   9  13
BRANCH  10  20
HETATM   20  O   UNK N   1      20.485  17.526   4.494  0.00  0.00    -0.388 OA
HETATM   21  H   UNK N   1      19.666  17.211   4.904  0.00  0.00     0.210 HD
ENDBRANCH  10  20
BRANCH  11  22
HETATM   22  N   UNK N   1      22.580  15.967   6.195  0.00  0.00    -0.297 N 
HETATM   23  C   UNK N   1      21.428  15.251   6.295  0.00  0.00     0.188 A 
HETATM   24  N   UNK N   1      21.644  14.038   6.875  0.00  0.00    -0.346 N 
HETATM   25  C   UNK N   1      22.965  14.023   7.130  0.00  0.00     0.122 A 
ATOM     26  HN  UNK N   1      20.960  13.308   7.071  1.00  0.00     0.167 HD
HETATM   27  C   UNK N   1      23.749  13.025   7.682  0.00  0.00     0.131 A 
HETATM   28  C   UNK N   1      23.523  15.182   6.733  0.00  0.00     0.142 A 
HETATM   29  N   UNK N   1      25.087  13.265   7.819  0.00  0.00    -0.337 N 
HETATM   30  C   UNK N   1      25.636  14.458   7.418  0.00  0.00     0.183 A 
ATOM     31  HN  UNK N   1      25.688  12.547   8.224  1.00  0.00     0.168 HD
HETATM   32  N   UNK N   1      24.849  15.429   6.860  0.00  0.00    -0.336 N 
ATOM     33  HN  UNK N   1      25.250  16.313   6.549  1.00  0.00     0.168 HD
BRANCH  27  34
HETATM   34  N   UNK N   1      23.195  11.791   8.073  0.00  0.00    -0.383 N 
HETATM   35  H   UNK N   1      22.901  11.140   7.396  0.00  0.00     0.157 HD
HETATM   36  H   UNK N   1      23.102  11.578   9.030  0.00  0.00     0.157 HD
ENDBRANCH  27  34
ENDBRANCH  11  22
ENDBRANCH   7   8
ENDBRANCH   6   7
ENDBRANCH   2   6
ENDBRANCH   1   2
BRANCH   1  37
HETATM   37  P   UNK N   1      28.605  17.955   7.384  0.00  0.00     0.401 P 
HETATM   38  O   UNK N   1      27.929  17.318   8.625  0.00  0.00    -0.631 OA
BRANCH  37  39
HETATM   39  O   UNK N   1      29.527  18.754   8.614  0.00  0.00    -0.307 OA
HETATM   40  H   UNK N   1      29.949  19.627   8.653  0.00  0.00     0.222 HD
ENDBRANCH  37  39
BRANCH  37  41
HETATM   41  O   UNK N   1      30.183  17.451   6.939  0.00  0.00    -0.296 OA
BRANCH  41  42
HETATM   42  C   UNK N   1      30.031  16.282   6.209  0.00  0.00     0.192 C 
BRANCH  42  43
HETATM   43  C   UNK N   1      31.223  16.173   5.276  0.00  0.00     0.008 C 
HETATM   44  C   UNK N   1      32.420  16.832   5.949  0.00  0.00     0.020 C 
HETATM   45  C   UNK N   1      31.558  14.702   5.062  0.00  0.00     0.020 C 
BRANCH  43  46
HETATM   46  C   UNK N   1      30.951  16.841   3.920  0.00  0.00     0.202 C 
BRANCH  46  47
HETATM   47  C   UNK N   1      29.566  16.566   3.346  0.00  0.00     0.141 C 
BRANCH  47  48
HETATM   48  N   UNK N   1      29.344  15.548   2.589  0.00  0.00    -0.372 N 
ATOM     49  HN  UNK N   1      29.738  15.556   1.648  1.00  0.00     0.161 HD
BRANCH  48  50
HETATM   50  C   UNK N   1      28.570  14.397   2.994  0.00  0.00     0.129 C 
BRANCH  50  51
HETATM   51  C   UNK N   1      27.139  14.441   2.416  0.00  0.00     0.103 C 
BRANCH  51  52
HETATM   52  C   UNK N   1      26.049  14.735   3.427  0.00  0.00     0.112 C 
BRANCH  52  53
HETATM   53  N   UNK N   1      25.170  13.852   3.756  0.00  0.00    -0.374 N 
ATOM     54  HN  UNK N   1      25.473  13.046   4.304  1.00  0.00     0.161 HD
BRANCH  53  55
HETATM   55  C   UNK N   1      23.776  13.952   3.385  0.00  0.00     0.132 C 
BRANCH  55  56
HETATM   56  C   UNK N   1      23.134  12.579   3.272  0.00  0.00     0.102 C 
BRANCH  56  57
HETATM   57  S   UNK N   1      21.310  12.687   3.301  0.00  0.00    -0.091 SA
BRANCH  57  58
HETATM   58  C   UNK N   1      21.033  12.407   1.534  0.00  0.00     0.186 C 
HETATM   59  O   UNK N   1      21.487  11.428   0.964  0.00  0.00    -0.286 OA
BRANCH  58  60
HETATM   60  C   UNK N   1      20.232  13.395   0.756  0.00  0.00     0.092 C 
BRANCH  60  61
HETATM   61  C   UNK N   1      19.937  14.651   1.572  0.00  0.00     0.034 C 
BRANCH  61  62
HETATM   62  C   UNK N   1      20.922  15.782   1.292  0.00  0.00     0.202 C 
BRANCH  62  63
HETATM   63  N   UNK N   1      20.236  16.951   0.811  0.00  0.00    -0.156 N 
HETATM   64  O   UNK N   1      20.296  17.249  -0.338  0.00  0.00    -0.537 OA
HETATM   65  O   UNK N   1      19.539  17.577   1.555  0.00  0.00    -0.537 OA
ENDBRANCH  62  63
ENDBRANCH  61  62
ENDBRANCH  60  61
ENDBRANCH  58  60
ENDBRANCH  57  58
ENDBRANCH  56  57
ENDBRANCH  55  56
ENDBRANCH  53  55
ENDBRANCH  52  53
BRANCH  52  66
HETATM   66  O   UNK N   1      26.000  15.950   4.001  0.00  0.00    -0.350 OA
HETATM   67  H   UNK N   1      26.395  16.771   3.787  0.00  0.00     0.219 HD
ENDBRANCH  52  66
ENDBRANCH  51  52
ENDBRANCH  50  51
ENDBRANCH  48  50
ENDBRANCH  47  48
BRANCH  47  68
HETATM   68  O   UNK N   1      28.551  17.420   3.583  0.00  0.00    -0.348 OA
HETATM   69  H   UNK N   1      27.819  17.828   3.162  0.00  0.00     0.219 HD
ENDBRANCH  47  68
ENDBRANCH  46  47
BRANCH  46  70
HETATM   70  O   UNK N   1      31.118  18.224   4.003  0.00  0.00    -0.387 OA
HETATM   71  H   UNK N   1      30.746  18.832   3.343  0.00  0.00     0.210 HD
ENDBRANCH  46  70
ENDBRANCH  43  46
ENDBRANCH  42  43
ENDBRANCH  41  42
ENDBRANCH  37  41
ENDBRANCH   1  37
TORSDOF 35
ENDMDL
MODEL 2
REMARK VINA RESULT:      -6.0      5.987     10.296
REMARK WARNING: 32 MAX_TORS EXCEEDED!!!
REMARK  35 active torsions:
REMARK  status: ('A' for Active; 'I' for Inactive)
REMARK    1  A    between atoms: C_4  and  C_3 
REMARK    2  A    between atoms: C_8  and  C_3 
REMARK    3  A    between atoms: C_16  and  C_4 
REMARK    4  A    between atoms: C_6  and  C_5 
REMARK    5  A    between atoms: C_15  and  C_5 
REMARK    6  A    between atoms: N_29  and  C_6 
REMARK    7  A    between atoms: C_9  and  C_7 
REMARK    8  A    between atoms: N_27  and  C_7 
REMARK    9  A    between atoms: N_38  and  C_8 
REMARK   10  A    between atoms: S_61  and  C_9 
REMARK   11  A    between atoms: C_14  and  C_10 
REMARK   12  A    between atoms: O_53  and  C_10 
REMARK   13  A    between atoms: C_25  and  C_11 
REMARK   14  A    between atoms: O_54  and  C_11 
REMARK   15  A    between atoms: N_27  and  C_15 
REMARK   16  A    between atoms: O_39  and  C_15 
REMARK   17  A    between atoms: S_61  and  C_16 
REMARK   18  A    between atoms: C_18  and  O_41 
REMARK   19  A    between atoms: C_19  and  O_56 
REMARK   20  A    between atoms: C_23  and  C_20 
REMARK   21  A    between atoms: C_25  and  C_20 
REMARK   22  A    between atoms: C_20  and  O_42 
REMARK   23  A    between atoms: N_26  and  C_21 
REMARK   24  A    between atoms: N_29  and  C_23 
REMARK   25  A    between atoms: O_43  and  C_23 
REMARK   26  A    between atoms: C_24  and  N_37 
REMARK   27  A    between atoms: P_58  and  O_46 
REMARK   28  A    between atoms: P_58  and  O_47 
REMARK   29  A    between atoms: P_59  and  O_49 
REMARK   30  A    between atoms: P_60  and  O_51 
REMARK   31  A    between atoms: P_59  and  O_53 
REMARK   32  A    between atoms: P_60  and  O_54 
REMARK   33  A    between atoms: P_58  and  O_56 
REMARK   34  A    between atoms: P_59  and  O_57 
REMARK   35  A    between atoms: P_60  and  O_57 
ROOT
HETATM    1  O   UNK N   1      32.956  15.271   5.416  0.00  0.00    -0.195 OA
ENDROOT
BRANCH   1   2
HETATM    2  P   UNK N   1      32.467  14.064   6.640  0.00  0.00     0.401 P 
HETATM    3  O   UNK N   1      34.014  13.992   6.741  0.00  0.00    -0.631 OA
BRANCH   2   4
HETATM    4  O   UNK N   1      31.923  15.404   7.611  0.00  0.00    -0.307 OA
HETATM    5  H   UNK N   1      31.766  15.346   8.566  0.00  0.00     0.222 HD
ENDBRANCH   2   4
BRANCH   2   6
HETATM    6  O   UNK N   1      32.849  13.548   8.266  0.00  0.00    -0.294 OA
BRANCH   6   7
HETATM    7  C   UNK N   1      32.631  14.651   9.123  0.00  0.00     0.215 C 
BRANCH   7   8
HETATM    8  C   UNK N   1      33.686  14.782  10.216  0.00  0.00     0.180 C 
HETATM    9  C   UNK N   1      34.827  15.768   9.894  0.00  0.00     0.197 C 
HETATM   10  C   UNK N   1      35.790  15.288  10.927  0.00  0.00     0.199 C 
HETATM   11  C   UNK N   1      35.662  13.787  10.627  0.00  0.00     0.262 C 
HETATM   12  O   UNK N   1      34.276  13.526  10.518  0.00  0.00    -0.353 OA
BRANCH   9  13
HETATM   13  O   UNK N   1      34.478  17.133  10.023  0.00  0.00    -0.286 OA
BRANCH  13  14
HETATM   14  P   UNK N   1      34.398  17.880   8.426  0.00  0.00     0.391 P 
HETATM   15  O   UNK N   1      32.923  18.291   8.191  0.00  0.00    -0.632 OA
BRANCH  14  16
HETATM   16  O   UNK N   1      35.307  19.360   8.302  0.00  0.00    -0.307 OA
HETATM   17  H   UNK N   1      35.946  20.010   7.972  0.00  0.00     0.222 HD
ENDBRANCH  14  16
BRANCH  14  18
HETATM   18  O   UNK N   1      34.796  16.776   7.145  0.00  0.00    -0.307 OA
HETATM   19  H   UNK N   1      34.362  16.566   6.303  0.00  0.00     0.222 HD
ENDBRANCH  14  18
ENDBRANCH  13  14
ENDBRANCH   9  13
BRANCH  10  20
HETATM   20  O   UNK N   1      37.082  15.781  10.722  0.00  0.00    -0.388 OA
HETATM   21  H   UNK N   1      37.909  15.836  10.219  0.00  0.00     0.210 HD
ENDBRANCH  10  20
BRANCH  11  22
HETATM   22  N   UNK N   1      36.304  12.891  11.591  0.00  0.00    -0.297 N 
HETATM   23  C   UNK N   1      37.631  12.595  11.595  0.00  0.00     0.188 A 
HETATM   24  N   UNK N   1      37.961  11.801  12.650  0.00  0.00    -0.346 N 
HETATM   25  C   UNK N   1      36.800  11.616  13.302  0.00  0.00     0.122 A 
ATOM     26  HN  UNK N   1      38.881  11.431  12.891  1.00  0.00     0.167 HD
HETATM   27  C   UNK N   1      36.541  10.920  14.470  0.00  0.00     0.131 A 
HETATM   28  C   UNK N   1      35.805  12.259  12.662  0.00  0.00     0.142 A 
HETATM   29  N   UNK N   1      35.255  10.901  14.932  0.00  0.00    -0.337 N 
HETATM   30  C   UNK N   1      34.252  11.555  14.259  0.00  0.00     0.183 A 
ATOM     31  HN  UNK N   1      35.036  10.395  15.790  1.00  0.00     0.168 HD
HETATM   32  N   UNK N   1      34.528  12.250  13.114  0.00  0.00    -0.336 N 
ATOM     33  HN  UNK N   1      33.792  12.748  12.613  1.00  0.00     0.168 HD
BRANCH  27  34
HETATM   34  N   UNK N   1      37.569  10.267  15.177  0.00  0.00    -0.383 N 
HETATM   35  H   UNK N   1      38.496  10.299  14.849  0.00  0.00     0.157 HD
HETATM   36  H   UNK N   1      37.358   9.776  16.004  0.00  0.00     0.157 HD
ENDBRANCH  27  34
ENDBRANCH  11  22
ENDBRANCH   7   8
ENDBRANCH   6   7
ENDBRANCH   2   6
ENDBRANCH   1   2
BRANCH   1  37
HETATM   37  P   UNK N   1      31.618  16.159   4.709  0.00  0.00     0.401 P 
HETATM   38  O   UNK N   1      31.878  16.952   3.403  0.00  0.00    -0.631 OA
BRANCH  37  39
HETATM   39  O   UNK N   1      32.419  17.531   5.400  0.00  0.00    -0.307 OA
HETATM   40  H   UNK N   1      32.439  18.470   5.155  0.00  0.00     0.222 HD
ENDBRANCH  37  39
BRANCH  37  41
HETATM   41  O   UNK N   1      30.397  16.698   5.787  0.00  0.00    -0.296 OA
BRANCH  41  42
HETATM   42  C   UNK N   1      29.232  16.042   5.421  0.00  0.00     0.192 C 
BRANCH  42  43
HETATM   43  C   UNK N   1      28.094  17.038   5.543  0.00  0.00     0.008 C 
HETATM   44  C   UNK N   1      26.899  16.327   6.163  0.00  0.00     0.020 C 
HETATM   45  C   UNK N   1      28.511  18.161   6.487  0.00  0.00     0.020 C 
BRANCH  43  46
HETATM   46  C   UNK N   1      27.703  17.630   4.181  0.00  0.00     0.202 C 
BRANCH  46  47
HETATM   47  C   UNK N   1      27.233  19.080   4.233  0.00  0.00     0.141 C 
BRANCH  47  48
HETATM   48  N   UNK N   1      26.003  19.377   4.472  0.00  0.00    -0.372 N 
ATOM     49  HN  UNK N   1      25.784  19.840   5.354  1.00  0.00     0.161 HD
BRANCH  48  50
HETATM   50  C   UNK N   1      24.916  19.093   3.563  0.00  0.00     0.129 C 
BRANCH  50  51
HETATM   51  C   UNK N   1      24.312  20.387   2.977  0.00  0.00     0.103 C 
BRANCH  51  52
HETATM   52  C   UNK N   1      22.798  20.453   2.996  0.00  0.00     0.112 C 
BRANCH  52  53
HETATM   53  N   UNK N   1      22.076  19.427   3.289  0.00  0.00    -0.374 N 
ATOM     54  HN  UNK N   1      22.372  18.829   4.061  1.00  0.00     0.161 HD
BRANCH  53  55
HETATM   55  C   UNK N   1      20.866  19.085   2.574  0.00  0.00     0.132 C 
BRANCH  55  56
HETATM   56  C   UNK N   1      20.336  17.726   3.001  0.00  0.00     0.102 C 
BRANCH  56  57
HETATM   57  S   UNK N   1      21.537  16.838   4.053  0.00  0.00    -0.091 SA
BRANCH  57  58
HETATM   58  C   UNK N   1      20.521  16.758   5.550  0.00  0.00     0.186 C 
HETATM   59  O   UNK N   1      19.440  16.192   5.558  0.00  0.00    -0.286 OA
BRANCH  58  60
HETATM   60  C   UNK N   1      21.016  17.400   6.801  0.00  0.00     0.092 C 
BRANCH  60  61
HETATM   61  C   UNK N   1      20.251  16.910   8.028  0.00  0.00     0.034 C 
BRANCH  61  62
HETATM   62  C   UNK N   1      20.975  15.787   8.766  0.00  0.00     0.202 C 
BRANCH  62  63
HETATM   63  N   UNK N   1      20.178  14.590   8.786  0.00  0.00    -0.156 N 
HETATM   64  O   UNK N   1      19.281  14.482   9.559  0.00  0.00    -0.537 OA
HETATM   65  O   UNK N   1      20.370  13.737   7.970  0.00  0.00    -0.537 OA
ENDBRANCH  62  63
ENDBRANCH  61  62
ENDBRANCH  60  61
ENDBRANCH  58  60
ENDBRANCH  57  58
ENDBRANCH  56  57
ENDBRANCH  55  56
ENDBRANCH  53  55
ENDBRANCH  52  53
BRANCH  52  66
HETATM   66  O   UNK N   1      22.190  21.616   2.704  0.00  0.00    -0.350 OA
HETATM   67  H   UNK N   1      21.959  22.361   3.223  0.00  0.00     0.219 HD
ENDBRANCH  52  66
ENDBRANCH  51  52
ENDBRANCH  50  51
ENDBRANCH  48  50
ENDBRANCH  47  48
BRANCH  47  68
HETATM   68  O   UNK N   1      28.096  20.083   3.977  0.00  0.00    -0.348 OA
HETATM   69  H   UNK N   1      28.121  21.000   3.780  0.00  0.00     0.219 HD
ENDBRANCH  47  68
ENDBRANCH  46  47
BRANCH  46  70
HETATM   70  O   UNK N   1      28.766  17.553   3.280  0.00  0.00    -0.387 OA
HETATM   71  H   UNK N   1      28.881  18.191   2.558  0.00  0.00     0.210 HD
ENDBRANCH  46  70
ENDBRANCH  43  46
ENDBRANCH  42  43
ENDBRANCH  41  42
ENDBRANCH  37  41
ENDBRANCH   1  37
TORSDOF 35
ENDMDL
MODEL 3
REMARK VINA RESULT:      -5.6      3.936      7.800
REMARK WARNING: 32 MAX_TORS EXCEEDED!!!
REMARK  35 active torsions:
REMARK  status: ('A' for Active; 'I' for Inactive)
REMARK    1  A    between atoms: C_4  and  C_3 
REMARK    2  A    between atoms: C_8  and  C_3 
REMARK    3  A    between atoms: C_16  and  C_4 
REMARK    4  A    between atoms: C_6  and  C_5 
REMARK    5  A    between atoms: C_15  and  C_5 
REMARK    6  A    between atoms: N_29  and  C_6 
REMARK    7  A    between atoms: C_9  and  C_7 
REMARK    8  A    between atoms: N_27  and  C_7 
REMARK    9  A    between atoms: N_38  and  C_8 
REMARK   10  A    between atoms: S_61  and  C_9 
REMARK   11  A    between atoms: C_14  and  C_10 
REMARK   12  A    between atoms: O_53  and  C_10 
REMARK   13  A    between atoms: C_25  and  C_11 
REMARK   14  A    between atoms: O_54  and  C_11 
REMARK   15  A    between atoms: N_27  and  C_15 
REMARK   16  A    between atoms: O_39  and  C_15 
REMARK   17  A    between atoms: S_61  and  C_16 
REMARK   18  A    between atoms: C_18  and  O_41 
REMARK   19  A    between atoms: C_19  and  O_56 
REMARK   20  A    between atoms: C_23  and  C_20 
REMARK   21  A    between atoms: C_25  and  C_20 
REMARK   22  A    between atoms: C_20  and  O_42 
REMARK   23  A    between atoms: N_26  and  C_21 
REMARK   24  A    between atoms: N_29  and  C_23 
REMARK   25  A    between atoms: O_43  and  C_23 
REMARK   26  A    between atoms: C_24  and  N_37 
REMARK   27  A    between atoms: P_58  and  O_46 
REMARK   28  A    between atoms: P_58  and  O_47 
REMARK   29  A    between atoms: P_59  and  O_49 
REMARK   30  A    between atoms: P_60  and  O_51 
REMARK   31  A    between atoms: P_59  and  O_53 
REMARK   32  A    between atoms: P_60  and  O_54 
REMARK   33  A    between atoms: P_58  and  O_56 
REMARK   34  A    between atoms: P_59  and  O_57 
REMARK   35  A    between atoms: P_60  and  O_57 
ROOT
HETATM    1  O   UNK N   1      24.381  17.529   3.573  0.00  0.00    -0.195 OA
ENDROOT
BRANCH   1   2
HETATM    2  P   UNK N   1      23.366  17.245   5.017  0.00  0.00     0.401 P 
HETATM    3  O   UNK N   1      23.935  18.657   5.318  0.00  0.00    -0.631 OA
BRANCH   2   4
HETATM    4  O   UNK N   1      21.986  17.429   3.970  0.00  0.00    -0.307 OA
HETATM    5  H   UNK N   1      21.838  18.206   3.409  0.00  0.00     0.222 HD
ENDBRANCH   2   4
BRANCH   2   6
HETATM    6  O   UNK N   1      22.204  18.055   6.042  0.00  0.00    -0.294 OA
BRANCH   6   7
HETATM    7  C   UNK N   1      21.115  17.173   6.227  0.00  0.00     0.215 C 
BRANCH   7   8
HETATM    8  C   UNK N   1      21.541  15.764   6.623  0.00  0.00     0.180 C 
HETATM    9  C   UNK N   1      20.781  14.634   5.898  0.00  0.00     0.197 C 
HETATM   10  C   UNK N   1      21.147  13.530   6.831  0.00  0.00     0.199 C 
HETATM   11  C   UNK N   1      20.816  14.265   8.139  0.00  0.00     0.262 C 
HETATM   12  O   UNK N   1      21.391  15.552   8.020  0.00  0.00    -0.353 OA
BRANCH   9  13
HETATM   13  O   UNK N   1      21.191  14.417   4.561  0.00  0.00    -0.286 OA
BRANCH  13  14
HETATM   14  P   UNK N   1      19.801  14.559   3.483  0.00  0.00     0.391 P 
HETATM   15  O   UNK N   1      18.606  13.872   4.190  0.00  0.00    -0.632 OA
BRANCH  14  16
HETATM   16  O   UNK N   1      19.288  16.202   3.219  0.00  0.00    -0.307 OA
HETATM   17  H   UNK N   1      19.187  17.156   3.355  0.00  0.00     0.222 HD
ENDBRANCH  14  16
BRANCH  14  18
HETATM   18  O   UNK N   1      20.021  13.710   1.982  0.00  0.00    -0.307 OA
HETATM   19  H   UNK N   1      20.810  13.368   1.533  0.00  0.00     0.222 HD
ENDBRANCH  14  18
ENDBRANCH  13  14
ENDBRANCH   9  13
BRANCH  10  20
HETATM   20  O   UNK N   1      20.369  12.386   6.633  0.00  0.00    -0.388 OA
HETATM   21  H   UNK N   1      19.626  11.804   6.857  0.00  0.00     0.210 HD
ENDBRANCH  10  20
BRANCH  11  22
HETATM   22  N   UNK N   1      21.244  13.596   9.368  0.00  0.00    -0.297 N 
HETATM   23  C   UNK N   1      20.394  13.093  10.302  0.00  0.00     0.188 A 
HETATM   24  N   UNK N   1      21.068  12.456  11.299  0.00  0.00    -0.346 N 
HETATM   25  C   UNK N   1      22.362  12.577  10.953  0.00  0.00     0.122 A 
ATOM     26  HN  UNK N   1      20.680  11.992  12.120  1.00  0.00     0.167 HD
HETATM   27  C   UNK N   1      23.496  12.090  11.580  0.00  0.00     0.131 A 
HETATM   28  C   UNK N   1      22.469  13.269   9.803  0.00  0.00     0.142 A 
HETATM   29  N   UNK N   1      24.707  12.347  11.002  0.00  0.00    -0.337 N 
HETATM   30  C   UNK N   1      24.796  13.063   9.835  0.00  0.00     0.183 A 
ATOM     31  HN  UNK N   1      25.558  12.000  11.445  1.00  0.00     0.168 HD
HETATM   32  N   UNK N   1      23.664  13.526   9.220  0.00  0.00    -0.336 N 
ATOM     33  HN  UNK N   1      23.720  14.049   8.347  1.00  0.00     0.168 HD
BRANCH  27  34
HETATM   34  N   UNK N   1      23.410  11.334  12.765  0.00  0.00    -0.383 N 
HETATM   35  H   UNK N   1      22.554  11.257  13.246  0.00  0.00     0.157 HD
HETATM   36  H   UNK N   1      24.210  10.881  13.116  0.00  0.00     0.157 HD
ENDBRANCH  27  34
ENDBRANCH  11  22
ENDBRANCH   7   8
ENDBRANCH   6   7
ENDBRANCH   2   6
ENDBRANCH   1   2
BRANCH   1  37
HETATM   37  P   UNK N   1      25.748  16.440   3.430  0.00  0.00     0.401 P 
HETATM   38  O   UNK N   1      25.479  14.916   3.511  0.00  0.00    -0.631 OA
BRANCH  37  39
HETATM   39  O   UNK N   1      25.568  16.304   5.149  0.00  0.00    -0.307 OA
HETATM   40  H   UNK N   1      25.923  15.674   5.797  0.00  0.00     0.222 HD
ENDBRANCH  37  39
BRANCH  37  41
HETATM   41  O   UNK N   1      27.272  17.048   3.933  0.00  0.00    -0.296 OA
BRANCH  41  42
HETATM   42  C   UNK N   1      27.117  17.452   5.251  0.00  0.00     0.192 C 
BRANCH  42  43
HETATM   43  C   UNK N   1      28.092  18.590   5.492  0.00  0.00     0.008 C 
HETATM   44  C   UNK N   1      27.809  19.688   4.475  0.00  0.00     0.020 C 
HETATM   45  C   UNK N   1      27.852  19.168   6.882  0.00  0.00     0.020 C 
BRANCH  43  46
HETATM   46  C   UNK N   1      29.552  18.129   5.373  0.00  0.00     0.202 C 
BRANCH  46  47
HETATM   47  C   UNK N   1      29.862  16.819   6.090  0.00  0.00     0.141 C 
BRANCH  47  48
HETATM   48  N   UNK N   1      30.298  16.806   7.301  0.00  0.00    -0.372 N 
ATOM     49  HN  UNK N   1      29.627  16.957   8.055  1.00  0.00     0.161 HD
BRANCH  48  50
HETATM   50  C   UNK N   1      31.684  16.590   7.655  0.00  0.00     0.129 C 
BRANCH  50  51
HETATM   51  C   UNK N   1      32.381  17.908   8.054  0.00  0.00     0.103 C 
BRANCH  51  52
HETATM   52  C   UNK N   1      33.895  17.868   8.018  0.00  0.00     0.112 C 
BRANCH  52  53
HETATM   53  N   UNK N   1      34.595  17.654   9.078  0.00  0.00    -0.374 N 
ATOM     54  HN  UNK N   1      35.171  18.414   9.442  1.00  0.00     0.161 HD
BRANCH  53  55
HETATM   55  C   UNK N   1      34.603  16.387   9.775  0.00  0.00     0.132 C 
BRANCH  55  56
HETATM   56  C   UNK N   1      35.464  15.363   9.054  0.00  0.00     0.102 C 
BRANCH  56  57
HETATM   57  S   UNK N   1      34.445  14.095   8.223  0.00  0.00    -0.091 SA
BRANCH  57  58
HETATM   58  C   UNK N   1      34.853  14.550   6.518  0.00  0.00     0.186 C 
HETATM   59  O   UNK N   1      35.699  15.394   6.267  0.00  0.00    -0.286 OA
BRANCH  58  60
HETATM   60  C   UNK N   1      34.141  13.879   5.394  0.00  0.00     0.092 C 
BRANCH  60  61
HETATM   61  C   UNK N   1      33.076  14.784   4.779  0.00  0.00     0.034 C 
BRANCH  61  62
HETATM   62  C   UNK N   1      33.619  15.650   3.646  0.00  0.00     0.202 C 
BRANCH  62  63
HETATM   63  N   UNK N   1      32.878  16.878   3.540  0.00  0.00    -0.156 N 
HETATM   64  O   UNK N   1      32.124  17.046   2.636  0.00  0.00    -0.537 OA
HETATM   65  O   UNK N   1      32.963  17.698   4.408  0.00  0.00    -0.537 OA
ENDBRANCH  62  63
ENDBRANCH  61  62
ENDBRANCH  60  61
ENDBRANCH  58  60
ENDBRANCH  57  58
ENDBRANCH  56  57
ENDBRANCH  55  56
ENDBRANCH  53  55
ENDBRANCH  52  53
BRANCH  52  66
HETATM   66  O   UNK N   1      34.527  18.054   6.846  0.00  0.00    -0.350 OA
HETATM   67  H   UNK N   1      34.552  17.559   6.051  0.00  0.00     0.219 HD
ENDBRANCH  52  66
ENDBRANCH  51  52
ENDBRANCH  50  51
ENDBRANCH  48  50
ENDBRANCH  47  48
BRANCH  47  68
HETATM   68  O   UNK N   1      29.731  15.644   5.444  0.00  0.00    -0.348 OA
HETATM   69  H   UNK N   1      29.081  15.066   5.091  0.00  0.00     0.219 HD
ENDBRANCH  47  68
ENDBRANCH  46  47
BRANCH  46  70
HETATM   70  O   UNK N   1      29.922  17.986   4.034  0.00  0.00    -0.387 OA
HETATM   71  H   UNK N   1      29.842  17.142   3.562  0.00  0.00     0.210 HD
ENDBRANCH  46  70
ENDBRANCH  43  46
ENDBRANCH  42  43
ENDBRANCH  41  42
ENDBRANCH  37  41
ENDBRANCH   1  37
TORSDOF 35
ENDMDL
MODEL 4
REMARK VINA RESULT:      -5.6      3.332      5.601
REMARK WARNING: 32 MAX_TORS EXCEEDED!!!
REMARK  35 active torsions:
REMARK  status: ('A' for Active; 'I' for Inactive)
REMARK    1  A    between atoms: C_4  and  C_3 
REMARK    2  A    between atoms: C_8  and  C_3 
REMARK    3  A    between atoms: C_16  and  C_4 
REMARK    4  A    between atoms: C_6  and  C_5 
REMARK    5  A    between atoms: C_15  and  C_5 
REMARK    6  A    between atoms: N_29  and  C_6 
REMARK    7  A    between atoms: C_9  and  C_7 
REMARK    8  A    between atoms: N_27  and  C_7 
REMARK    9  A    between atoms: N_38  and  C_8 
REMARK   10  A    between atoms: S_61  and  C_9 
REMARK   11  A    between atoms: C_14  and  C_10 
REMARK   12  A    between atoms: O_53  and  C_10 
REMARK   13  A    between atoms: C_25  and  C_11 
REMARK   14  A    between atoms: O_54  and  C_11 
REMARK   15  A    between atoms: N_27  and  C_15 
REMARK   16  A    between atoms: O_39  and  C_15 
REMARK   17  A    between atoms: S_61  and  C_16 
REMARK   18  A    between atoms: C_18  and  O_41 
REMARK   19  A    between atoms: C_19  and  O_56 
REMARK   20  A    between atoms: C_23  and  C_20 
REMARK   21  A    between atoms: C_25  and  C_20 
REMARK   22  A    between atoms: C_20  and  O_42 
REMARK   23  A    between atoms: N_26  and  C_21 
REMARK   24  A    between atoms: N_29  and  C_23 
REMARK   25  A    between atoms: O_43  and  C_23 
REMARK   26  A    between atoms: C_24  and  N_37 
REMARK   27  A    between atoms: P_58  and  O_46 
REMARK   28  A    between atoms: P_58  and  O_47 
REMARK   29  A    between atoms: P_59  and  O_49 
REMARK   30  A    between atoms: P_60  and  O_51 
REMARK   31  A    between atoms: P_59  and  O_53 
REMARK   32  A    between atoms: P_60  and  O_54 
REMARK   33  A    between atoms: P_58  and  O_56 
REMARK   34  A    between atoms: P_59  and  O_57 
REMARK   35  A    between atoms: P_60  and  O_57 
ROOT
HETATM    1  O   UNK N   1      29.742  14.641   4.068  0.00  0.00    -0.195 OA
ENDROOT
BRANCH   1   2
HETATM    2  P   UNK N   1      28.058  14.177   4.448  0.00  0.00     0.401 P 
HETATM    3  O   UNK N   1      28.426  15.032   5.690  0.00  0.00    -0.631 OA
BRANCH   2   4
HETATM    4  O   UNK N   1      27.570  15.258   3.172  0.00  0.00    -0.307 OA
HETATM    5  H   UNK N   1      28.057  15.360   2.340  0.00  0.00     0.222 HD
ENDBRANCH   2   4
BRANCH   2   6
HETATM    6  O   UNK N   1      26.568  14.856   5.060  0.00  0.00    -0.294 OA
BRANCH   6   7
HETATM    7  C   UNK N   1      25.712  13.777   5.383  0.00  0.00     0.215 C 
BRANCH   7   8
HETATM    8  C   UNK N   1      24.233  14.135   5.296  0.00  0.00     0.180 C 
HETATM    9  C   UNK N   1      23.751  14.539   3.888  0.00  0.00     0.197 C 
HETATM   10  C   UNK N   1      22.477  15.195   4.304  0.00  0.00     0.199 C 
HETATM   11  C   UNK N   1      23.064  16.054   5.435  0.00  0.00     0.262 C 
HETATM   12  O   UNK N   1      23.904  15.195   6.182  0.00  0.00    -0.353 OA
BRANCH   9  13
HETATM   13  O   UNK N   1      23.574  13.456   2.994  0.00  0.00    -0.286 OA
BRANCH  13  14
HETATM   14  P   UNK N   1      24.366  13.817   1.459  0.00  0.00     0.391 P 
HETATM   15  O   UNK N   1      23.252  14.213   0.457  0.00  0.00    -0.632 OA
BRANCH  14  16
HETATM   16  O   UNK N   1      25.425  15.197   1.527  0.00  0.00    -0.307 OA
HETATM   17  H   UNK N   1      25.915  15.983   1.240  0.00  0.00     0.222 HD
ENDBRANCH  14  16
BRANCH  14  18
HETATM   18  O   UNK N   1      25.161  12.435   0.768  0.00  0.00    -0.307 OA
HETATM   19  H   UNK N   1      25.759  12.333   0.011  0.00  0.00     0.222 HD
ENDBRANCH  14  18
ENDBRANCH  13  14
ENDBRANCH   9  13
BRANCH  10  20
HETATM   20  O   UNK N   1      21.909  15.954   3.277  0.00  0.00    -0.388 OA
HETATM   21  H   UNK N   1      21.519  16.771   2.929  0.00  0.00     0.210 HD
ENDBRANCH  10  20
BRANCH  11  22
HETATM   22  N   UNK N   1      22.086  16.728   6.290  0.00  0.00    -0.297 N 
HETATM   23  C   UNK N   1      21.723  18.032   6.158  0.00  0.00     0.188 A 
HETATM   24  N   UNK N   1      20.738  18.367   7.037  0.00  0.00    -0.346 N 
HETATM   25  C   UNK N   1      20.501  17.231   7.717  0.00  0.00     0.122 A 
ATOM     26  HN  UNK N   1      20.285  19.272   7.153  1.00  0.00     0.167 HD
HETATM   27  C   UNK N   1      19.575  16.972   8.713  0.00  0.00     0.131 A 
HETATM   28  C   UNK N   1      21.315  16.253   7.278  0.00  0.00     0.142 A 
HETATM   29  N   UNK N   1      19.531  15.709   9.233  0.00  0.00    -0.337 N 
HETATM   30  C   UNK N   1      20.377  14.728   8.779  0.00  0.00     0.183 A 
ATOM     31  HN  UNK N   1      18.859  15.492   9.969  1.00  0.00     0.168 HD
HETATM   32  N   UNK N   1      21.277  14.997   7.784  0.00  0.00    -0.336 N 
ATOM     33  HN  UNK N   1      21.902  14.271   7.433  1.00  0.00     0.168 HD
BRANCH  27  34
HETATM   34  N   UNK N   1      18.689  17.968   9.166  0.00  0.00    -0.383 N 
HETATM   35  H   UNK N   1      17.864  17.722   9.644  0.00  0.00     0.157 HD
HETATM   36  H   UNK N   1      18.895  18.917   9.002  0.00  0.00     0.157 HD
ENDBRANCH  27  34
ENDBRANCH  11  22
ENDBRANCH   7   8
ENDBRANCH   6   7
ENDBRANCH   2   6
ENDBRANCH   1   2
BRANCH   1  37
HETATM   37  P   UNK N   1      30.906  13.344   4.269  0.00  0.00     0.401 P 
HETATM   38  O   UNK N   1      30.420  12.019   4.910  0.00  0.00    -0.631 OA
BRANCH  37  39
HETATM   39  O   UNK N   1      30.894  13.853   5.926  0.00  0.00    -0.307 OA
HETATM   40  H   UNK N   1      31.391  14.534   6.406  0.00  0.00     0.222 HD
ENDBRANCH  37  39
BRANCH  37  41
HETATM   41  O   UNK N   1      32.549  13.806   4.446  0.00  0.00    -0.296 OA
BRANCH  41  42
HETATM   42  C   UNK N   1      32.590  14.721   5.487  0.00  0.00     0.192 C 
BRANCH  42  43
HETATM   43  C   UNK N   1      33.504  15.854   5.057  0.00  0.00     0.008 C 
HETATM   44  C   UNK N   1      34.910  15.551   5.557  0.00  0.00     0.020 C 
HETATM   45  C   UNK N   1      33.551  15.909   3.535  0.00  0.00     0.020 C 
BRANCH  43  46
HETATM   46  C   UNK N   1      33.033  17.208   5.606  0.00  0.00     0.202 C 
BRANCH  46  47
HETATM   47  C   UNK N   1      31.760  17.143   6.443  0.00  0.00     0.141 C 
BRANCH  47  48
HETATM   48  N   UNK N   1      31.798  17.219   7.727  0.00  0.00    -0.372 N 
ATOM     49  HN  UNK N   1      32.424  16.588   8.227  1.00  0.00     0.161 HD
BRANCH  48  50
HETATM   50  C   UNK N   1      31.004  18.146   8.503  0.00  0.00     0.129 C 
BRANCH  50  51
HETATM   51  C   UNK N   1      29.840  17.433   9.225  0.00  0.00     0.103 C 
BRANCH  51  52
HETATM   52  C   UNK N   1      28.470  17.674   8.623  0.00  0.00     0.112 C 
BRANCH  52  53
HETATM   53  N   UNK N   1      28.188  17.328   7.414  0.00  0.00    -0.374 N 
ATOM     54  HN  UNK N   1      28.722  16.571   6.988  1.00  0.00     0.161 HD
BRANCH  53  55
HETATM   55  C   UNK N   1      27.149  17.964   6.636  0.00  0.00     0.132 C 
BRANCH  55  56
HETATM   56  C   UNK N   1      27.690  19.153   5.857  0.00  0.00     0.102 C 
BRANCH  56  57
HETATM   57  S   UNK N   1      27.999  18.724   4.108  0.00  0.00    -0.091 SA
BRANCH  57  58
HETATM   58  C   UNK N   1      26.270  18.527   3.607  0.00  0.00     0.186 C 
HETATM   59  O   UNK N   1      25.794  17.428   3.376  0.00  0.00    -0.286 OA
BRANCH  58  60
HETATM   60  C   UNK N   1      25.408  19.736   3.473  0.00  0.00     0.092 C 
BRANCH  60  61
HETATM   61  C   UNK N   1      23.931  19.401   3.664  0.00  0.00     0.034 C 
BRANCH  61  62
HETATM   62  C   UNK N   1      23.005  20.404   2.982  0.00  0.00     0.202 C 
BRANCH  62  63
HETATM   63  N   UNK N   1      21.631  19.996   3.101  0.00  0.00    -0.156 N 
HETATM   64  O   UNK N   1      20.801  20.779   3.435  0.00  0.00    -0.537 OA
HETATM   65  O   UNK N   1      21.314  18.885   2.788  0.00  0.00    -0.537 OA
ENDBRANCH  62  63
ENDBRANCH  61  62
ENDBRANCH  60  61
ENDBRANCH  58  60
ENDBRANCH  57  58
ENDBRANCH  56  57
ENDBRANCH  55  56
ENDBRANCH  53  55
ENDBRANCH  52  53
BRANCH  52  66
HETATM   66  O   UNK N   1      27.521  18.260   9.372  0.00  0.00    -0.350 OA
HETATM   67  H   UNK N   1      27.102  18.015  10.174  0.00  0.00     0.219 HD
ENDBRANCH  52  66
ENDBRANCH  51  52
ENDBRANCH  50  51
ENDBRANCH  48  50
ENDBRANCH  47  48
BRANCH  47  68
HETATM   68  O   UNK N   1      30.566  16.953   5.848  0.00  0.00    -0.348 OA
HETATM   69  H   UNK N   1      29.743  16.519   5.971  0.00  0.00     0.219 HD
ENDBRANCH  47  68
ENDBRANCH  46  47
BRANCH  46  70
HETATM   70  O   UNK N   1      34.029  17.806   6.381  0.00  0.00    -0.387 OA
HETATM   71  H   UNK N   1      34.002  18.745   6.624  0.00  0.00     0.210 HD
ENDBRANCH  46  70
ENDBRANCH  43  46
ENDBRANCH  42  43
ENDBRANCH  41  42
ENDBRANCH  37  41
ENDBRANCH   1  37
TORSDOF 35
ENDMDL
MODEL 5
REMARK VINA RESULT:      -5.6      7.447     11.286
REMARK WARNING: 32 MAX_TORS EXCEEDED!!!
REMARK  35 active torsions:
REMARK  status: ('A' for Active; 'I' for Inactive)
REMARK    1  A    between atoms: C_4  and  C_3 
REMARK    2  A    between atoms: C_8  and  C_3 
REMARK    3  A    between atoms: C_16  and  C_4 
REMARK    4  A    between atoms: C_6  and  C_5 
REMARK    5  A    between atoms: C_15  and  C_5 
REMARK    6  A    between atoms: N_29  and  C_6 
REMARK    7  A    between atoms: C_9  and  C_7 
REMARK    8  A    between atoms: N_27  and  C_7 
REMARK    9  A    between atoms: N_38  and  C_8 
REMARK   10  A    between atoms: S_61  and  C_9 
REMARK   11  A    between atoms: C_14  and  C_10 
REMARK   12  A    between atoms: O_53  and  C_10 
REMARK   13  A    between atoms: C_25  and  C_11 
REMARK   14  A    between atoms: O_54  and  C_11 
REMARK   15  A    between atoms: N_27  and  C_15 
REMARK   16  A    between atoms: O_39  and  C_15 
REMARK   17  A    between atoms: S_61  and  C_16 
REMARK   18  A    between atoms: C_18  and  O_41 
REMARK   19  A    between atoms: C_19  and  O_56 
REMARK   20  A    between atoms: C_23  and  C_20 
REMARK   21  A    between atoms: C_25  and  C_20 
REMARK   22  A    between atoms: C_20  and  O_42 
REMARK   23  A    between atoms: N_26  and  C_21 
REMARK   24  A    between atoms: N_29  and  C_23 
REMARK   25  A    between atoms: O_43  and  C_23 
REMARK   26  A    between atoms: C_24  and  N_37 
REMARK   27  A    between atoms: P_58  and  O_46 
REMARK   28  A    between atoms: P_58  and  O_47 
REMARK   29  A    between atoms: P_59  and  O_49 
REMARK   30  A    between atoms: P_60  and  O_51 
REMARK   31  A    between atoms: P_59  and  O_53 
REMARK   32  A    between atoms: P_60  and  O_54 
REMARK   33  A    between atoms: P_58  and  O_56 
REMARK   34  A    between atoms: P_59  and  O_57 
REMARK   35  A    between atoms: P_60  and  O_57 
ROOT
HETATM    1  O   UNK N   1      35.431  16.713   8.811  0.00  0.00    -0.195 OA
ENDROOT
BRANCH   1   2
HETATM    2  P   UNK N   1      35.047  16.351  10.520  0.00  0.00     0.401 P 
HETATM    3  O   UNK N   1      34.483  15.093   9.806  0.00  0.00    -0.631 OA
BRANCH   2   4
HETATM    4  O   UNK N   1      36.757  16.117  10.758  0.00  0.00    -0.307 OA
HETATM    5  H   UNK N   1      37.438  16.630  10.296  0.00  0.00     0.222 HD
ENDBRANCH   2   4
BRANCH   2   6
HETATM    6  O   UNK N   1      35.104  15.041  11.676  0.00  0.00    -0.294 OA
BRANCH   6   7
HETATM    7  C   UNK N   1      35.968  14.051  11.153  0.00  0.00     0.215 C 
BRANCH   7   8
HETATM    8  C   UNK N   1      35.778  12.684  11.799  0.00  0.00     0.180 C 
HETATM    9  C   UNK N   1      34.573  11.882  11.265  0.00  0.00     0.197 C 
HETATM   10  C   UNK N   1      34.487  10.901  12.385  0.00  0.00     0.199 C 
HETATM   11  C   UNK N   1      34.570  11.915  13.536  0.00  0.00     0.262 C 
HETATM   12  O   UNK N   1      35.629  12.793  13.207  0.00  0.00    -0.353 OA
BRANCH   9  13
HETATM   13  O   UNK N   1      34.778  11.290   9.996  0.00  0.00    -0.286 OA
BRANCH  13  14
HETATM   14  P   UNK N   1      33.348  11.529   8.990  0.00  0.00     0.391 P 
HETATM   15  O   UNK N   1      32.270  10.536   9.491  0.00  0.00    -0.632 OA
BRANCH  14  16
HETATM   16  O   UNK N   1      32.627  13.105   9.165  0.00  0.00    -0.307 OA
HETATM   17  H   UNK N   1      32.545  14.070   9.183  0.00  0.00     0.222 HD
ENDBRANCH  14  16
BRANCH  14  18
HETATM   18  O   UNK N   1      33.623  11.134   7.321  0.00  0.00    -0.307 OA
HETATM   19  H   UNK N   1      33.223  11.455   6.497  0.00  0.00     0.222 HD
ENDBRANCH  14  18
ENDBRANCH  13  14
ENDBRANCH   9  13
BRANCH  10  20
HETATM   20  O   UNK N   1      33.288  10.182  12.373  0.00  0.00    -0.388 OA
HETATM   21  H   UNK N   1      32.494   9.846  11.930  0.00  0.00     0.210 HD
ENDBRANCH  10  20
BRANCH  11  22
HETATM   22  N   UNK N   1      34.741  11.343  14.873  0.00  0.00    -0.297 N 
HETATM   23  C   UNK N   1      34.854  10.012  15.127  0.00  0.00     0.188 A 
HETATM   24  N   UNK N   1      35.083   9.774  16.448  0.00  0.00    -0.346 N 
HETATM   25  C   UNK N   1      35.111  10.998  17.005  0.00  0.00     0.122 A 
ATOM     26  HN  UNK N   1      35.205   8.873  16.910  1.00  0.00     0.167 HD
HETATM   27  C   UNK N   1      35.344  11.369  18.318  0.00  0.00     0.131 A 
HETATM   28  C   UNK N   1      34.896  11.937  16.064  0.00  0.00     0.142 A 
HETATM   29  N   UNK N   1      35.332  12.702  18.618  0.00  0.00    -0.337 N 
HETATM   30  C   UNK N   1      35.100  13.643  17.646  0.00  0.00     0.183 A 
ATOM     31  HN  UNK N   1      35.500  13.002  19.579  1.00  0.00     0.168 HD
HETATM   32  N   UNK N   1      34.887  13.261  16.350  0.00  0.00    -0.336 N 
ATOM     33  HN  UNK N   1      34.725  13.954  15.620  1.00  0.00     0.168 HD
BRANCH  27  34
HETATM   34  N   UNK N   1      35.606  10.409  19.314  0.00  0.00    -0.383 N 
HETATM   35  H   UNK N   1      35.913  10.688  20.207  0.00  0.00     0.157 HD
HETATM   36  H   UNK N   1      35.481   9.452  19.117  0.00  0.00     0.157 HD
ENDBRANCH  27  34
ENDBRANCH  11  22
ENDBRANCH   7   8
ENDBRANCH   6   7
ENDBRANCH   2   6
ENDBRANCH   1   2
BRANCH   1  37
HETATM   37  P   UNK N   1      34.046  17.204   7.853  0.00  0.00     0.401 P 
HETATM   38  O   UNK N   1      34.307  17.797   6.444  0.00  0.00    -0.631 OA
BRANCH  37  39
HETATM   39  O   UNK N   1      34.526  18.798   8.333  0.00  0.00    -0.307 OA
HETATM   40  H   UNK N   1      35.093  19.124   9.050  0.00  0.00     0.222 HD
ENDBRANCH  37  39
BRANCH  37  41
HETATM   41  O   UNK N   1      32.644  17.683   8.716  0.00  0.00    -0.296 OA
BRANCH  41  42
HETATM   42  C   UNK N   1      31.627  16.829   8.319  0.00  0.00     0.192 C 
BRANCH  42  43
HETATM   43  C   UNK N   1      30.314  17.456   8.751  0.00  0.00     0.008 C 
HETATM   44  C   UNK N   1      29.891  16.820  10.069  0.00  0.00     0.020 C 
HETATM   45  C   UNK N   1      30.528  18.945   8.998  0.00  0.00     0.020 C 
BRANCH  43  46
HETATM   46  C   UNK N   1      29.213  17.262   7.699  0.00  0.00     0.202 C 
BRANCH  46  47
HETATM   47  C   UNK N   1      27.976  18.129   7.911  0.00  0.00     0.141 C 
BRANCH  47  48
HETATM   48  N   UNK N   1      27.436  18.776   6.938  0.00  0.00    -0.372 N 
ATOM     49  HN  UNK N   1      26.991  18.239   6.194  1.00  0.00     0.161 HD
BRANCH  48  50
HETATM   50  C   UNK N   1      27.426  20.218   6.838  0.00  0.00     0.129 C 
BRANCH  50  51
HETATM   51  C   UNK N   1      27.359  20.686   5.368  0.00  0.00     0.103 C 
BRANCH  51  52
HETATM   52  C   UNK N   1      27.335  19.571   4.342  0.00  0.00     0.112 C 
BRANCH  52  53
HETATM   53  N   UNK N   1      26.270  19.281   3.678  0.00  0.00    -0.374 N 
ATOM     54  HN  UNK N   1      26.277  18.451   3.085  1.00  0.00     0.161 HD
BRANCH  53  55
HETATM   55  C   UNK N   1      25.065  20.079   3.734  0.00  0.00     0.132 C 
BRANCH  55  56
HETATM   56  C   UNK N   1      23.838  19.213   3.971  0.00  0.00     0.102 C 
BRANCH  56  57
HETATM   57  S   UNK N   1      24.235  17.753   4.995  0.00  0.00    -0.091 SA
BRANCH  57  58
HETATM   58  C   UNK N   1      22.569  17.464   5.642  0.00  0.00     0.186 C 
HETATM   59  O   UNK N   1      21.698  18.315   5.567  0.00  0.00    -0.286 OA
BRANCH  58  60
HETATM   60  C   UNK N   1      22.253  16.155   6.282  0.00  0.00     0.092 C 
BRANCH  60  61
HETATM   61  C   UNK N   1      21.207  16.303   7.385  0.00  0.00     0.034 C 
BRANCH  61  62
HETATM   62  C   UNK N   1      20.381  15.036   7.590  0.00  0.00     0.202 C 
BRANCH  62  63
HETATM   63  N   UNK N   1      20.404  14.629   8.969  0.00  0.00    -0.156 N 
HETATM   64  O   UNK N   1      21.439  14.513   9.542  0.00  0.00    -0.537 OA
HETATM   65  O   UNK N   1      19.374  14.485   9.562  0.00  0.00    -0.537 OA
ENDBRANCH  62  63
ENDBRANCH  61  62
ENDBRANCH  60  61
ENDBRANCH  58  60
ENDBRANCH  57  58
ENDBRANCH  56  57
ENDBRANCH  55  56
ENDBRANCH  53  55
ENDBRANCH  52  53
BRANCH  52  66
HETATM   66  O   UNK N   1      28.457  18.868   4.114  0.00  0.00    -0.350 OA
HETATM   67  H   UNK N   1      28.637  17.948   4.081  0.00  0.00     0.219 HD
ENDBRANCH  52  66
ENDBRANCH  51  52
ENDBRANCH  50  51
ENDBRANCH  48  50
ENDBRANCH  47  48
BRANCH  47  68
HETATM   68  O   UNK N   1      27.452  18.274   9.144  0.00  0.00    -0.348 OA
HETATM   69  H   UNK N   1      27.680  18.216  10.052  0.00  0.00     0.219 HD
ENDBRANCH  47  68
ENDBRANCH  46  47
BRANCH  46  70
HETATM   70  O   UNK N   1      29.700  17.512   6.415  0.00  0.00    -0.387 OA
HETATM   71  H   UNK N   1      30.574  17.905   6.260  0.00  0.00     0.210 HD
ENDBRANCH  46  70
ENDBRANCH  43  46
ENDBRANCH  42  43
ENDBRANCH  41  42
ENDBRANCH  37  41
ENDBRANCH   1  37
TORSDOF 35
ENDMDL
MODEL 6
REMARK VINA RESULT:      -5.6      3.012      7.202
REMARK WARNING: 32 MAX_TORS EXCEEDED!!!
REMARK  35 active torsions:
REMARK  status: ('A' for Active; 'I' for Inactive)
REMARK    1  A    between atoms: C_4  and  C_3 
REMARK    2  A    between atoms: C_8  and  C_3 
REMARK    3  A    between atoms: C_16  and  C_4 
REMARK    4  A    between atoms: C_6  and  C_5 
REMARK    5  A    between atoms: C_15  and  C_5 
REMARK    6  A    between atoms: N_29  and  C_6 
REMARK    7  A    between atoms: C_9  and  C_7 
REMARK    8  A    between atoms: N_27  and  C_7 
REMARK    9  A    between atoms: N_38  and  C_8 
REMARK   10  A    between atoms: S_61  and  C_9 
REMARK   11  A    between atoms: C_14  and  C_10 
REMARK   12  A    between atoms: O_53  and  C_10 
REMARK   13  A    between atoms: C_25  and  C_11 
REMARK   14  A    between atoms: O_54  and  C_11 
REMARK   15  A    between atoms: N_27  and  C_15 
REMARK   16  A    between atoms: O_39  and  C_15 
REMARK   17  A    between atoms: S_61  and  C_16 
REMARK   18  A    between atoms: C_18  and  O_41 
REMARK   19  A    between atoms: C_19  and  O_56 
REMARK   20  A    between atoms: C_23  and  C_20 
REMARK   21  A    between atoms: C_25  and  C_20 
REMARK   22  A    between atoms: C_20  and  O_42 
REMARK   23  A    between atoms: N_26  and  C_21 
REMARK   24  A    between atoms: N_29  and  C_23 
REMARK   25  A    between atoms: O_43  and  C_23 
REMARK   26  A    between atoms: C_24  and  N_37 
REMARK   27  A    between atoms: P_58  and  O_46 
REMARK   28  A    between atoms: P_58  and  O_47 
REMARK   29  A    between atoms: P_59  and  O_49 
REMARK   30  A    between atoms: P_60  and  O_51 
REMARK   31  A    between atoms: P_59  and  O_53 
REMARK   32  A    between atoms: P_60  and  O_54 
REMARK   33  A    between atoms: P_58  and  O_56 
REMARK   34  A    between atoms: P_59  and  O_57 
REMARK   35  A    between atoms: P_60  and  O_57 
ROOT
HETATM    1  O   UNK N   1      19.177  12.558   2.777  0.00  0.00    -0.195 OA
ENDROOT
BRANCH   1   2
HETATM    2  P   UNK N   1      19.477  13.806   4.022  0.00  0.00     0.401 P 
HETATM    3  O   UNK N   1      19.421  14.668   2.732  0.00  0.00    -0.631 OA
BRANCH   2   4
HETATM    4  O   UNK N   1      17.843  13.531   4.560  0.00  0.00    -0.307 OA
HETATM    5  H   UNK N   1      17.116  14.154   4.409  0.00  0.00     0.222 HD
ENDBRANCH   2   4
BRANCH   2   6
HETATM    6  O   UNK N   1      18.949  15.403   4.498  0.00  0.00    -0.294 OA
BRANCH   6   7
HETATM    7  C   UNK N   1      18.831  15.407   5.907  0.00  0.00     0.215 C 
BRANCH   7   8
HETATM    8  C   UNK N   1      20.143  15.709   6.621  0.00  0.00     0.180 C 
HETATM    9  C   UNK N   1      21.156  16.523   5.790  0.00  0.00     0.197 C 
HETATM   10  C   UNK N   1      22.362  16.223   6.614  0.00  0.00     0.199 C 
HETATM   11  C   UNK N   1      22.155  14.704   6.712  0.00  0.00     0.262 C 
HETATM   12  O   UNK N   1      20.792  14.515   7.037  0.00  0.00    -0.353 OA
BRANCH   9  13
HETATM   13  O   UNK N   1      20.857  17.903   5.689  0.00  0.00    -0.286 OA
BRANCH  13  14
HETATM   14  P   UNK N   1      20.859  18.388   3.993  0.00  0.00     0.391 P 
HETATM   15  O   UNK N   1      22.139  17.796   3.353  0.00  0.00    -0.632 OA
BRANCH  14  16
HETATM   16  O   UNK N   1      19.541  17.717   3.073  0.00  0.00    -0.307 OA
HETATM   17  H   UNK N   1      18.834  17.649   2.414  0.00  0.00     0.222 HD
ENDBRANCH  14  16
BRANCH  14  18
HETATM   18  O   UNK N   1      20.972  20.110   3.784  0.00  0.00    -0.307 OA
HETATM   19  H   UNK N   1      20.377  20.761   3.380  0.00  0.00     0.222 HD
ENDBRANCH  14  18
ENDBRANCH  13  14
ENDBRANCH   9  13
BRANCH  10  20
HETATM   20  O   UNK N   1      23.550  16.574   5.966  0.00  0.00    -0.388 OA
HETATM   21  H   UNK N   1      24.148  16.558   5.203  0.00  0.00     0.210 HD
ENDBRANCH  10  20
BRANCH  11  22
HETATM   22  N   UNK N   1      23.034  14.004   7.651  0.00  0.00    -0.297 N 
HETATM   23  C   UNK N   1      24.384  13.914   7.515  0.00  0.00     0.188 A 
HETATM   24  N   UNK N   1      24.950  13.276   8.576  0.00  0.00    -0.346 N 
HETATM   25  C   UNK N   1      23.911  12.974   9.375  0.00  0.00     0.122 A 
ATOM     26  HN  UNK N   1      25.938  13.072   8.729  1.00  0.00     0.167 HD
HETATM   27  C   UNK N   1      23.896  12.352  10.611  0.00  0.00     0.131 A 
HETATM   28  C   UNK N   1      22.763  13.400   8.816  0.00  0.00     0.142 A 
HETATM   29  N   UNK N   1      22.688  12.179  11.225  0.00  0.00    -0.337 N 
HETATM   30  C   UNK N   1      21.526  12.611  10.634  0.00  0.00     0.183 A 
ATOM     31  HN  UNK N   1      22.648  11.723  12.137  1.00  0.00     0.168 HD
HETATM   32  N   UNK N   1      21.560  13.237   9.418  0.00  0.00    -0.336 N 
ATOM     33  HN  UNK N   1      20.704  13.571   8.978  1.00  0.00     0.168 HD
BRANCH  27  34
HETATM   34  N   UNK N   1      25.086  11.928  11.232  0.00  0.00    -0.383 N 
HETATM   35  H   UNK N   1      25.179  11.966  12.211  0.00  0.00     0.157 HD
HETATM   36  H   UNK N   1      25.831  11.592  10.683  0.00  0.00     0.157 HD
ENDBRANCH  27  34
ENDBRANCH  11  22
ENDBRANCH   7   8
ENDBRANCH   6   7
ENDBRANCH   2   6
ENDBRANCH   1   2
BRANCH   1  37
HETATM   37  P   UNK N   1      19.490  13.091   1.136  0.00  0.00     0.401 P 
HETATM   38  O   UNK N   1      18.571  12.557   0.007  0.00  0.00    -0.631 OA
BRANCH  37  39
HETATM   39  O   UNK N   1      20.186  11.513   0.965  0.00  0.00    -0.307 OA
HETATM   40  H   UNK N   1      20.786  11.129   0.306  0.00  0.00     0.222 HD
ENDBRANCH  37  39
BRANCH  37  41
HETATM   41  O   UNK N   1      21.108  13.523   0.763  0.00  0.00    -0.296 OA
BRANCH  41  42
HETATM   42  C   UNK N   1      21.813  12.336   0.640  0.00  0.00     0.192 C 
BRANCH  42  43
HETATM   43  C   UNK N   1      23.249  12.619   1.041  0.00  0.00     0.008 C 
HETATM   44  C   UNK N   1      24.125  11.488   0.518  0.00  0.00     0.020 C 
HETATM   45  C   UNK N   1      23.709  13.912   0.376  0.00  0.00     0.020 C 
BRANCH  43  46
HETATM   46  C   UNK N   1      23.404  12.741   2.564  0.00  0.00     0.202 C 
BRANCH  46  47
HETATM   47  C   UNK N   1      23.513  14.173   3.076  0.00  0.00     0.141 C 
BRANCH  47  48
HETATM   48  N   UNK N   1      24.581  14.598   3.655  0.00  0.00    -0.372 N 
ATOM     49  HN  UNK N   1      24.500  15.398   4.283  1.00  0.00     0.161 HD
BRANCH  48  50
HETATM   50  C   UNK N   1      25.888  14.008   3.467  0.00  0.00     0.129 C 
BRANCH  50  51
HETATM   51  C   UNK N   1      26.684  14.731   2.359  0.00  0.00     0.103 C 
BRANCH  51  52
HETATM   52  C   UNK N   1      28.185  14.533   2.418  0.00  0.00     0.112 C 
BRANCH  52  53
HETATM   53  N   UNK N   1      28.908  15.077   3.335  0.00  0.00    -0.374 N 
ATOM     54  HN  UNK N   1      29.226  14.496   4.111  1.00  0.00     0.161 HD
BRANCH  53  55
HETATM   55  C   UNK N   1      29.288  16.472   3.315  0.00  0.00     0.132 C 
BRANCH  55  56
HETATM   56  C   UNK N   1      29.513  17.005   4.720  0.00  0.00     0.102 C 
BRANCH  56  57
HETATM   57  S   UNK N   1      28.393  18.399   5.096  0.00  0.00    -0.091 SA
BRANCH  57  58
HETATM   58  C   UNK N   1      26.832  17.507   4.878  0.00  0.00     0.186 C 
HETATM   59  O   UNK N   1      26.606  16.461   5.464  0.00  0.00    -0.286 OA
BRANCH  58  60
HETATM   60  C   UNK N   1      25.797  18.063   3.959  0.00  0.00     0.092 C 
BRANCH  60  61
HETATM   61  C   UNK N   1      25.033  19.218   4.601  0.00  0.00     0.034 C 
BRANCH  61  62
HETATM   62  C   UNK N   1      25.353  20.566   3.961  0.00  0.00     0.202 C 
BRANCH  62  63
HETATM   63  N   UNK N   1      24.537  20.787   2.798  0.00  0.00    -0.156 N 
HETATM   64  O   UNK N   1      23.415  21.161   2.917  0.00  0.00    -0.537 OA
HETATM   65  O   UNK N   1      25.016  20.670   1.707  0.00  0.00    -0.537 OA
ENDBRANCH  62  63
ENDBRANCH  61  62
ENDBRANCH  60  61
ENDBRANCH  58  60
ENDBRANCH  57  58
ENDBRANCH  56  57
ENDBRANCH  55  56
ENDBRANCH  53  55
ENDBRANCH  52  53
BRANCH  52  66
HETATM   66  O   UNK N   1      28.780  13.764   1.489  0.00  0.00    -0.350 OA
HETATM   67  H   UNK N   1      28.483  13.036   0.980  0.00  0.00     0.219 HD
ENDBRANCH  52  66
ENDBRANCH  51  52
ENDBRANCH  50  51
ENDBRANCH  48  50
ENDBRANCH  47  48
BRANCH  47  68
HETATM   68  O   UNK N   1      22.462  15.011   2.976  0.00  0.00    -0.348 OA
HETATM   69  H   UNK N   1      21.564  15.036   2.708  0.00  0.00     0.219 HD
ENDBRANCH  47  68
ENDBRANCH  46  47
BRANCH  46  70
HETATM   70  O   UNK N   1      22.340  12.125   3.225  0.00  0.00    -0.387 OA
HETATM   71  H   UNK N   1      21.679  11.590   2.757  0.00  0.00     0.210 HD
ENDBRANCH  46  70
ENDBRANCH  43  46
ENDBRANCH  42  43
ENDBRANCH  41  42
ENDBRANCH  37  41
ENDBRANCH   1  37
TORSDOF 35
ENDMDL
MODEL 7
REMARK VINA RESULT:      -5.5      8.072     12.193
REMARK WARNING: 32 MAX_TORS EXCEEDED!!!
REMARK  35 active torsions:
REMARK  status: ('A' for Active; 'I' for Inactive)
REMARK    1  A    between atoms: C_4  and  C_3 
REMARK    2  A    between atoms: C_8  and  C_3 
REMARK    3  A    between atoms: C_16  and  C_4 
REMARK    4  A    between atoms: C_6  and  C_5 
REMARK    5  A    between atoms: C_15  and  C_5 
REMARK    6  A    between atoms: N_29  and  C_6 
REMARK    7  A    between atoms: C_9  and  C_7 
REMARK    8  A    between atoms: N_27  and  C_7 
REMARK    9  A    between atoms: N_38  and  C_8 
REMARK   10  A    between atoms: S_61  and  C_9 
REMARK   11  A    between atoms: C_14  and  C_10 
REMARK   12  A    between atoms: O_53  and  C_10 
REMARK   13  A    between atoms: C_25  and  C_11 
REMARK   14  A    between atoms: O_54  and  C_11 
REMARK   15  A    between atoms: N_27  and  C_15 
REMARK   16  A    between atoms: O_39  and  C_15 
REMARK   17  A    between atoms: S_61  and  C_16 
REMARK   18  A    between atoms: C_18  and  O_41 
REMARK   19  A    between atoms: C_19  and  O_56 
REMARK   20  A    between atoms: C_23  and  C_20 
REMARK   21  A    between atoms: C_25  and  C_20 
REMARK   22  A    between atoms: C_20  and  O_42 
REMARK   23  A    between atoms: N_26  and  C_21 
REMARK   24  A    between atoms: N_29  and  C_23 
REMARK   25  A    between atoms: O_43  and  C_23 
REMARK   26  A    between atoms: C_24  and  N_37 
REMARK   27  A    between atoms: P_58  and  O_46 
REMARK   28  A    between atoms: P_58  and  O_47 
REMARK   29  A    between atoms: P_59  and  O_49 
REMARK   30  A    between atoms: P_60  and  O_51 
REMARK   31  A    between atoms: P_59  and  O_53 
REMARK   32  A    between atoms: P_60  and  O_54 
REMARK   33  A    between atoms: P_58  and  O_56 
REMARK   34  A    between atoms: P_59  and  O_57 
REMARK   35  A    between atoms: P_60  and  O_57 
ROOT
HETATM    1  O   UNK N   1      34.615  16.243   8.066  0.00  0.00    -0.195 OA
ENDROOT
BRANCH   1   2
HETATM    2  P   UNK N   1      34.499  15.439   9.659  0.00  0.00     0.401 P 
HETATM    3  O   UNK N   1      34.605  14.217   8.707  0.00  0.00    -0.631 OA
BRANCH   2   4
HETATM    4  O   UNK N   1      36.111  16.025   9.968  0.00  0.00    -0.307 OA
HETATM    5  H   UNK N   1      36.881  15.445  10.072  0.00  0.00     0.222 HD
ENDBRANCH   2   4
BRANCH   2   6
HETATM    6  O   UNK N   1      35.217  14.137  10.579  0.00  0.00    -0.294 OA
BRANCH   6   7
HETATM    7  C   UNK N   1      34.622  14.146  11.861  0.00  0.00     0.215 C 
BRANCH   7   8
HETATM    8  C   UNK N   1      35.531  13.592  12.952  0.00  0.00     0.180 C 
HETATM    9  C   UNK N   1      36.534  12.523  12.472  0.00  0.00     0.197 C 
HETATM   10  C   UNK N   1      36.876  11.967  13.813  0.00  0.00     0.199 C 
HETATM   11  C   UNK N   1      35.437  11.815  14.330  0.00  0.00     0.262 C 
HETATM   12  O   UNK N   1      34.778  13.026  14.015  0.00  0.00    -0.353 OA
BRANCH   9  13
HETATM   13  O   UNK N   1      37.645  13.037  11.762  0.00  0.00    -0.286 OA
BRANCH  13  14
HETATM   14  P   UNK N   1      37.966  12.031  10.349  0.00  0.00     0.391 P 
HETATM   15  O   UNK N   1      39.324  12.491   9.763  0.00  0.00    -0.632 OA
BRANCH  14  16
HETATM   16  O   UNK N   1      38.184  10.345  10.727  0.00  0.00    -0.307 OA
HETATM   17  H   UNK N   1      37.979   9.405  10.842  0.00  0.00     0.222 HD
ENDBRANCH  14  16
BRANCH  14  18
HETATM   18  O   UNK N   1      36.798  12.255   9.082  0.00  0.00    -0.307 OA
HETATM   19  H   UNK N   1      36.430  11.653   8.416  0.00  0.00     0.222 HD
ENDBRANCH  14  18
ENDBRANCH  13  14
ENDBRANCH   9  13
BRANCH  10  20
HETATM   20  O   UNK N   1      37.560  10.751  13.728  0.00  0.00    -0.388 OA
HETATM   21  H   UNK N   1      38.009   9.990  14.126  0.00  0.00     0.210 HD
ENDBRANCH  10  20
BRANCH  11  22
HETATM   22  N   UNK N   1      35.307  11.486  15.751  0.00  0.00    -0.297 N 
HETATM   23  C   UNK N   1      35.242  10.219  16.240  0.00  0.00     0.188 A 
HETATM   24  N   UNK N   1      35.204  10.212  17.602  0.00  0.00    -0.346 N 
HETATM   25  C   UNK N   1      35.248  11.512  17.941  0.00  0.00     0.122 A 
ATOM     26  HN  UNK N   1      35.152   9.404  18.222  1.00  0.00     0.167 HD
HETATM   27  C   UNK N   1      35.273  12.100  19.194  0.00  0.00     0.131 A 
HETATM   28  C   UNK N   1      35.299  12.276  16.834  0.00  0.00     0.142 A 
HETATM   29  N   UNK N   1      35.335  13.463  19.260  0.00  0.00    -0.337 N 
HETATM   30  C   UNK N   1      35.375  14.225  18.118  0.00  0.00     0.183 A 
ATOM     31  HN  UNK N   1      35.353  13.922  20.171  1.00  0.00     0.168 HD
HETATM   32  N   UNK N   1      35.365  13.628  16.888  0.00  0.00    -0.336 N 
ATOM     33  HN  UNK N   1      35.406  14.185  16.035  1.00  0.00     0.168 HD
BRANCH  27  34
HETATM   34  N   UNK N   1      35.255  11.323  20.368  0.00  0.00    -0.383 N 
HETATM   35  H   UNK N   1      35.593  10.398  20.358  0.00  0.00     0.157 HD
HETATM   36  H   UNK N   1      34.903  11.706  21.203  0.00  0.00     0.157 HD
ENDBRANCH  27  34
ENDBRANCH  11  22
ENDBRANCH   7   8
ENDBRANCH   6   7
ENDBRANCH   2   6
ENDBRANCH   1   2
BRANCH   1  37
HETATM   37  P   UNK N   1      34.241  17.956   8.097  0.00  0.00     0.401 P 
HETATM   38  O   UNK N   1      35.308  18.926   8.666  0.00  0.00    -0.631 OA
BRANCH  37  39
HETATM   39  O   UNK N   1      33.973  17.667   9.785  0.00  0.00    -0.307 OA
HETATM   40  H   UNK N   1      33.521  16.955  10.264  0.00  0.00     0.222 HD
ENDBRANCH  37  39
BRANCH  37  41
HETATM   41  O   UNK N   1      32.582  18.379   8.207  0.00  0.00    -0.296 OA
BRANCH  41  42
HETATM   42  C   UNK N   1      31.898  17.500   7.380  0.00  0.00     0.192 C 
BRANCH  42  43
HETATM   43  C   UNK N   1      30.540  17.251   8.011  0.00  0.00     0.008 C 
HETATM   44  C   UNK N   1      29.621  16.657   6.951  0.00  0.00     0.020 C 
HETATM   45  C   UNK N   1      30.688  16.225   9.129  0.00  0.00     0.020 C 
BRANCH  43  46
HETATM   46  C   UNK N   1      29.925  18.541   8.574  0.00  0.00     0.202 C 
BRANCH  46  47
HETATM   47  C   UNK N   1      28.442  18.721   8.267  0.00  0.00     0.141 C 
BRANCH  47  48
HETATM   48  N   UNK N   1      28.047  19.298   7.187  0.00  0.00    -0.372 N 
ATOM     49  HN  UNK N   1      28.379  18.928   6.296  1.00  0.00     0.161 HD
BRANCH  48  50
HETATM   50  C   UNK N   1      27.160  20.440   7.162  0.00  0.00     0.129 C 
BRANCH  50  51
HETATM   51  C   UNK N   1      27.101  21.083   5.760  0.00  0.00     0.103 C 
BRANCH  51  52
HETATM   52  C   UNK N   1      27.380  20.137   4.609  0.00  0.00     0.112 C 
BRANCH  52  53
HETATM   53  N   UNK N   1      26.431  19.603   3.922  0.00  0.00    -0.374 N 
ATOM     54  HN  UNK N   1      26.257  19.951   2.979  1.00  0.00     0.161 HD
BRANCH  53  55
HETATM   55  C   UNK N   1      25.600  18.532   4.427  0.00  0.00     0.132 C 
BRANCH  55  56
HETATM   56  C   UNK N   1      26.417  17.281   4.704  0.00  0.00     0.102 C 
BRANCH  56  57
HETATM   57  S   UNK N   1      25.461  15.764   4.356  0.00  0.00    -0.091 SA
BRANCH  57  58
HETATM   58  C   UNK N   1      24.942  15.421   6.056  0.00  0.00     0.186 C 
HETATM   59  O   UNK N   1      25.754  15.273   6.954  0.00  0.00    -0.286 OA
BRANCH  58  60
HETATM   60  C   UNK N   1      23.488  15.315   6.367  0.00  0.00     0.092 C 
BRANCH  60  61
HETATM   61  C   UNK N   1      23.228  14.374   7.542  0.00  0.00     0.034 C 
BRANCH  61  62
HETATM   62  C   UNK N   1      22.392  13.158   7.151  0.00  0.00     0.202 C 
BRANCH  62  63
HETATM   63  N   UNK N   1      21.099  13.204   7.778  0.00  0.00    -0.156 N 
HETATM   64  O   UNK N   1      20.200  13.779   7.255  0.00  0.00    -0.537 OA
HETATM   65  O   UNK N   1      20.909  12.593   8.791  0.00  0.00    -0.537 OA
ENDBRANCH  62  63
ENDBRANCH  61  62
ENDBRANCH  60  61
ENDBRANCH  58  60
ENDBRANCH  57  58
ENDBRANCH  56  57
ENDBRANCH  55  56
ENDBRANCH  53  55
ENDBRANCH  52  53
BRANCH  52  66
HETATM   66  O   UNK N   1      28.655  19.852   4.292  0.00  0.00    -0.350 OA
HETATM   67  H   UNK N   1      29.472  20.253   4.516  0.00  0.00     0.219 HD
ENDBRANCH  52  66
ENDBRANCH  51  52
ENDBRANCH  50  51
ENDBRANCH  48  50
ENDBRANCH  47  48
BRANCH  47  68
HETATM   68  O   UNK N   1      27.511  18.320   9.156  0.00  0.00    -0.348 OA
HETATM   69  H   UNK N   1      27.353  18.256  10.078  0.00  0.00     0.219 HD
ENDBRANCH  47  68
ENDBRANCH  46  47
BRANCH  46  70
HETATM   70  O   UNK N   1      30.091  18.609   9.958  0.00  0.00    -0.387 OA
HETATM   71  H   UNK N   1      30.661  19.272  10.380  0.00  0.00     0.210 HD
ENDBRANCH  46  70
ENDBRANCH  43  46
ENDBRANCH  42  43
ENDBRANCH  41  42
ENDBRANCH  37  41
ENDBRANCH   1  37
TORSDOF 35
ENDMDL
MODEL 8
REMARK VINA RESULT:      -5.5      3.541      8.644
REMARK WARNING: 32 MAX_TORS EXCEEDED!!!
REMARK  35 active torsions:
REMARK  status: ('A' for Active; 'I' for Inactive)
REMARK    1  A    between atoms: C_4  and  C_3 
REMARK    2  A    between atoms: C_8  and  C_3 
REMARK    3  A    between atoms: C_16  and  C_4 
REMARK    4  A    between atoms: C_6  and  C_5 
REMARK    5  A    between atoms: C_15  and  C_5 
REMARK    6  A    between atoms: N_29  and  C_6 
REMARK    7  A    between atoms: C_9  and  C_7 
REMARK    8  A    between atoms: N_27  and  C_7 
REMARK    9  A    between atoms: N_38  and  C_8 
REMARK   10  A    between atoms: S_61  and  C_9 
REMARK   11  A    between atoms: C_14  and  C_10 
REMARK   12  A    between atoms: O_53  and  C_10 
REMARK   13  A    between atoms: C_25  and  C_11 
REMARK   14  A    between atoms: O_54  and  C_11 
REMARK   15  A    between atoms: N_27  and  C_15 
REMARK   16  A    between atoms: O_39  and  C_15 
REMARK   17  A    between atoms: S_61  and  C_16 
REMARK   18  A    between atoms: C_18  and  O_41 
REMARK   19  A    between atoms: C_19  and  O_56 
REMARK   20  A    between atoms: C_23  and  C_20 
REMARK   21  A    between atoms: C_25  and  C_20 
REMARK   22  A    between atoms: C_20  and  O_42 
REMARK   23  A    between atoms: N_26  and  C_21 
REMARK   24  A    between atoms: N_29  and  C_23 
REMARK   25  A    between atoms: O_43  and  C_23 
REMARK   26  A    between atoms: C_24  and  N_37 
REMARK   27  A    between atoms: P_58  and  O_46 
REMARK   28  A    between atoms: P_58  and  O_47 
REMARK   29  A    between atoms: P_59  and  O_49 
REMARK   30  A    between atoms: P_60  and  O_51 
REMARK   31  A    between atoms: P_59  and  O_53 
REMARK   32  A    between atoms: P_60  and  O_54 
REMARK   33  A    between atoms: P_58  and  O_56 
REMARK   34  A    between atoms: P_59  and  O_57 
REMARK   35  A    between atoms: P_60  and  O_57 
ROOT
HETATM    1  O   UNK N   1      19.942  14.427   3.055  0.00  0.00    -0.195 OA
ENDROOT
BRANCH   1   2
HETATM    2  P   UNK N   1      19.777  15.861   4.111  0.00  0.00     0.401 P 
HETATM    3  O   UNK N   1      21.246  15.444   4.390  0.00  0.00    -0.631 OA
BRANCH   2   4
HETATM    4  O   UNK N   1      19.753  16.816   2.654  0.00  0.00    -0.307 OA
HETATM    5  H   UNK N   1      20.367  17.546   2.481  0.00  0.00     0.222 HD
ENDBRANCH   2   4
BRANCH   2   6
HETATM    6  O   UNK N   1      20.637  17.308   4.580  0.00  0.00    -0.294 OA
BRANCH   6   7
HETATM    7  C   UNK N   1      21.504  17.649   3.515  0.00  0.00     0.215 C 
BRANCH   7   8
HETATM    8  C   UNK N   1      22.610  18.615   3.925  0.00  0.00     0.180 C 
HETATM    9  C   UNK N   1      22.818  19.801   2.962  0.00  0.00     0.197 C 
HETATM   10  C   UNK N   1      24.171  20.202   3.444  0.00  0.00     0.199 C 
HETATM   11  C   UNK N   1      24.800  18.800   3.439  0.00  0.00     0.262 C 
HETATM   12  O   UNK N   1      23.856  17.947   4.057  0.00  0.00    -0.353 OA
BRANCH   9  13
HETATM   13  O   UNK N   1      21.844  20.822   3.069  0.00  0.00    -0.286 OA
BRANCH  13  14
HETATM   14  P   UNK N   1      20.716  20.712   1.717  0.00  0.00     0.391 P 
HETATM   15  O   UNK N   1      21.420  19.895   0.604  0.00  0.00    -0.632 OA
BRANCH  14  16
HETATM   16  O   UNK N   1      19.268  19.818   2.086  0.00  0.00    -0.307 OA
HETATM   17  H   UNK N   1      18.654  19.072   2.161  0.00  0.00     0.222 HD
ENDBRANCH  14  16
BRANCH  14  18
HETATM   18  O   UNK N   1      20.350  22.259   1.015  0.00  0.00    -0.307 OA
HETATM   19  H   UNK N   1      20.673  22.710   0.219  0.00  0.00     0.222 HD
ENDBRANCH  14  18
ENDBRANCH  13  14
ENDBRANCH   9  13
BRANCH  10  20
HETATM   20  O   UNK N   1      24.806  21.091   2.571  0.00  0.00    -0.388 OA
HETATM   21  H   UNK N   1      25.566  21.377   2.041  0.00  0.00     0.210 HD
ENDBRANCH  10  20
BRANCH  11  22
HETATM   22  N   UNK N   1      26.116  18.695   4.072  0.00  0.00    -0.297 N 
HETATM   23  C   UNK N   1      27.177  19.489   3.769  0.00  0.00     0.188 A 
HETATM   24  N   UNK N   1      28.246  19.219   4.568  0.00  0.00    -0.346 N 
HETATM   25  C   UNK N   1      27.816  18.235   5.377  0.00  0.00     0.122 A 
ATOM     26  HN  UNK N   1      29.165  19.663   4.555  1.00  0.00     0.167 HD
HETATM   27  C   UNK N   1      28.469  17.591   6.413  0.00  0.00     0.131 A 
HETATM   28  C   UNK N   1      26.544  17.913   5.073  0.00  0.00     0.142 A 
HETATM   29  N   UNK N   1      27.787  16.622   7.095  0.00  0.00    -0.337 N 
HETATM   30  C   UNK N   1      26.494  16.301   6.763  0.00  0.00     0.183 A 
ATOM     31  HN  UNK N   1      28.246  16.131   7.863  1.00  0.00     0.168 HD
HETATM   32  N   UNK N   1      25.859  16.957   5.745  0.00  0.00    -0.336 N 
ATOM     33  HN  UNK N   1      24.895  16.733   5.499  1.00  0.00     0.168 HD
BRANCH  27  34
HETATM   34  N   UNK N   1      29.786  17.933   6.773  0.00  0.00    -0.383 N 
HETATM   35  H   UNK N   1      30.549  17.433   6.403  0.00  0.00     0.157 HD
HETATM   36  H   UNK N   1      29.945  18.676   7.400  0.00  0.00     0.157 HD
ENDBRANCH  27  34
ENDBRANCH  11  22
ENDBRANCH   7   8
ENDBRANCH   6   7
ENDBRANCH   2   6
ENDBRANCH   1   2
BRANCH   1  37
HETATM   37  P   UNK N   1      19.971  14.797   1.341  0.00  0.00     0.401 P 
HETATM   38  O   UNK N   1      18.632  14.754   0.562  0.00  0.00    -0.631 OA
BRANCH  37  39
HETATM   39  O   UNK N   1      19.834  13.078   1.167  0.00  0.00    -0.307 OA
HETATM   40  H   UNK N   1      20.389  12.343   1.469  0.00  0.00     0.222 HD
ENDBRANCH  37  39
BRANCH  37  41
HETATM   41  O   UNK N   1      21.435  14.470   0.508  0.00  0.00    -0.296 OA
BRANCH  41  42
HETATM   42  C   UNK N   1      22.461  14.914   1.328  0.00  0.00     0.192 C 
BRANCH  42  43
HETATM   43  C   UNK N   1      23.561  13.869   1.283  0.00  0.00     0.008 C 
HETATM   44  C   UNK N   1      23.317  12.968   0.079  0.00  0.00     0.020 C 
HETATM   45  C   UNK N   1      24.903  14.563   1.083  0.00  0.00     0.020 C 
BRANCH  43  46
HETATM   46  C   UNK N   1      23.603  13.028   2.567  0.00  0.00     0.202 C 
BRANCH  46  47
HETATM   47  C   UNK N   1      24.569  13.542   3.629  0.00  0.00     0.141 C 
BRANCH  47  48
HETATM   48  N   UNK N   1      25.586  12.847   4.003  0.00  0.00    -0.372 N 
ATOM     49  HN  UNK N   1      25.796  11.991   3.490  1.00  0.00     0.161 HD
BRANCH  48  50
HETATM   50  C   UNK N   1      26.446  13.209   5.107  0.00  0.00     0.129 C 
BRANCH  50  51
HETATM   51  C   UNK N   1      27.920  13.332   4.664  0.00  0.00     0.103 C 
BRANCH  51  52
HETATM   52  C   UNK N   1      28.292  14.662   4.040  0.00  0.00     0.112 C 
BRANCH  52  53
HETATM   53  N   UNK N   1      29.482  15.146   4.130  0.00  0.00    -0.374 N 
ATOM     54  HN  UNK N   1      30.043  14.910   4.949  1.00  0.00     0.161 HD
BRANCH  53  55
HETATM   55  C   UNK N   1      30.060  16.007   3.122  0.00  0.00     0.132 C 
BRANCH  55  56
HETATM   56  C   UNK N   1      31.579  15.948   3.149  0.00  0.00     0.102 C 
BRANCH  56  57
HETATM   57  S   UNK N   1      32.297  17.477   3.845  0.00  0.00    -0.091 SA
BRANCH  57  58
HETATM   58  C   UNK N   1      32.706  16.817   5.481  0.00  0.00     0.186 C 
HETATM   59  O   UNK N   1      32.047  15.926   5.993  0.00  0.00    -0.286 OA
BRANCH  58  60
HETATM   60  C   UNK N   1      33.873  17.375   6.222  0.00  0.00     0.092 C 
BRANCH  60  61
HETATM   61  C   UNK N   1      33.468  17.920   7.589  0.00  0.00     0.034 C 
BRANCH  61  62
HETATM   62  C   UNK N   1      34.393  17.452   8.709  0.00  0.00     0.202 C 
BRANCH  62  63
HETATM   63  N   UNK N   1      33.970  16.177   9.223  0.00  0.00    -0.156 N 
HETATM   64  O   UNK N   1      34.754  15.452   9.746  0.00  0.00    -0.537 OA
HETATM   65  O   UNK N   1      32.810  15.881   9.194  0.00  0.00    -0.537 OA
ENDBRANCH  62  63
ENDBRANCH  61  62
ENDBRANCH  60  61
ENDBRANCH  58  60
ENDBRANCH  57  58
ENDBRANCH  56  57
ENDBRANCH  55  56
ENDBRANCH  53  55
ENDBRANCH  52  53
BRANCH  52  66
HETATM   66  O   UNK N   1      27.355  15.354   3.369  0.00  0.00    -0.350 OA
HETATM   67  H   UNK N   1      26.422  15.283   3.323  0.00  0.00     0.219 HD
ENDBRANCH  52  66
ENDBRANCH  51  52
ENDBRANCH  50  51
ENDBRANCH  48  50
ENDBRANCH  47  48
BRANCH  47  68
HETATM   68  O   UNK N   1      24.343  14.724   4.236  0.00  0.00    -0.348 OA
HETATM   69  H   UNK N   1      23.670  15.361   4.380  0.00  0.00     0.219 HD
ENDBRANCH  47  68
ENDBRANCH  46  47
BRANCH  46  70
HETATM   70  O   UNK N   1      22.336  12.934   3.144  0.00  0.00    -0.387 OA
HETATM   71  H   UNK N   1      22.122  13.349   3.995  0.00  0.00     0.210 HD
ENDBRANCH  46  70
ENDBRANCH  43  46
ENDBRANCH  42  43
ENDBRANCH  41  42
ENDBRANCH  37  41
ENDBRANCH   1  37
TORSDOF 35
ENDMDL
MODEL 9
REMARK VINA RESULT:      -5.5      7.475     11.853
REMARK WARNING: 32 MAX_TORS EXCEEDED!!!
REMARK  35 active torsions:
REMARK  status: ('A' for Active; 'I' for Inactive)
REMARK    1  A    between atoms: C_4  and  C_3 
REMARK    2  A    between atoms: C_8  and  C_3 
REMARK    3  A    between atoms: C_16  and  C_4 
REMARK    4  A    between atoms: C_6  and  C_5 
REMARK    5  A    between atoms: C_15  and  C_5 
REMARK    6  A    between atoms: N_29  and  C_6 
REMARK    7  A    between atoms: C_9  and  C_7 
REMARK    8  A    between atoms: N_27  and  C_7 
REMARK    9  A    between atoms: N_38  and  C_8 
REMARK   10  A    between atoms: S_61  and  C_9 
REMARK   11  A    between atoms: C_14  and  C_10 
REMARK   12  A    between atoms: O_53  and  C_10 
REMARK   13  A    between atoms: C_25  and  C_11 
REMARK   14  A    between atoms: O_54  and  C_11 
REMARK   15  A    between atoms: N_27  and  C_15 
REMARK   16  A    between atoms: O_39  and  C_15 
REMARK   17  A    between atoms: S_61  and  C_16 
REMARK   18  A    between atoms: C_18  and  O_41 
REMARK   19  A    between atoms: C_19  and  O_56 
REMARK   20  A    between atoms: C_23  and  C_20 
REMARK   21  A    between atoms: C_25  and  C_20 
REMARK   22  A    between atoms: C_20  and  O_42 
REMARK   23  A    between atoms: N_26  and  C_21 
REMARK   24  A    between atoms: N_29  and  C_23 
REMARK   25  A    between atoms: O_43  and  C_23 
REMARK   26  A    between atoms: C_24  and  N_37 
REMARK   27  A    between atoms: P_58  and  O_46 
REMARK   28  A    between atoms: P_58  and  O_47 
REMARK   29  A    between atoms: P_59  and  O_49 
REMARK   30  A    between atoms: P_60  and  O_51 
REMARK   31  A    between atoms: P_59  and  O_53 
REMARK   32  A    between atoms: P_60  and  O_54 
REMARK   33  A    between atoms: P_58  and  O_56 
REMARK   34  A    between atoms: P_59  and  O_57 
REMARK   35  A    between atoms: P_60  and  O_57 
ROOT
HETATM    1  O   UNK N   1      35.754  15.710  11.112  0.00  0.00    -0.195 OA
ENDROOT
BRANCH   1   2
HETATM    2  P   UNK N   1      34.624  16.311   9.863  0.00  0.00     0.401 P 
HETATM    3  O   UNK N   1      35.458  17.586  10.159  0.00  0.00    -0.631 OA
BRANCH   2   4
HETATM    4  O   UNK N   1      35.512  15.336   8.723  0.00  0.00    -0.307 OA
HETATM    5  H   UNK N   1      35.484  15.473   7.764  0.00  0.00     0.222 HD
ENDBRANCH   2   4
BRANCH   2   6
HETATM    6  O   UNK N   1      34.597  17.285   8.412  0.00  0.00    -0.294 OA
BRANCH   6   7
HETATM    7  C   UNK N   1      34.214  16.443   7.342  0.00  0.00     0.215 C 
BRANCH   7   8
HETATM    8  C   UNK N   1      32.708  16.226   7.257  0.00  0.00     0.180 C 
HETATM    9  C   UNK N   1      32.286  14.816   6.796  0.00  0.00     0.197 C 
HETATM   10  C   UNK N   1      30.878  15.147   6.436  0.00  0.00     0.199 C 
HETATM   11  C   UNK N   1      31.181  16.408   5.613  0.00  0.00     0.262 C 
HETATM   12  O   UNK N   1      32.100  17.163   6.378  0.00  0.00    -0.353 OA
BRANCH   9  13
HETATM   13  O   UNK N   1      32.406  13.815   7.789  0.00  0.00    -0.286 OA
BRANCH  13  14
HETATM   14  P   UNK N   1      33.437  12.511   7.198  0.00  0.00     0.391 P 
HETATM   15  O   UNK N   1      32.969  11.209   7.896  0.00  0.00    -0.632 OA
BRANCH  14  16
HETATM   16  O   UNK N   1      33.260  12.199   5.494  0.00  0.00    -0.307 OA
HETATM   17  H   UNK N   1      33.425  11.823   4.616  0.00  0.00     0.222 HD
ENDBRANCH  14  16
BRANCH  14  18
HETATM   18  O   UNK N   1      35.105  12.716   7.639  0.00  0.00    -0.307 OA
HETATM   19  H   UNK N   1      35.865  12.114   7.626  0.00  0.00     0.222 HD
ENDBRANCH  14  18
ENDBRANCH  13  14
ENDBRANCH   9  13
BRANCH  10  20
HETATM   20  O   UNK N   1      30.268  14.137   5.687  0.00  0.00    -0.388 OA
HETATM   21  H   UNK N   1      29.592  13.452   5.559  0.00  0.00     0.210 HD
ENDBRANCH  10  20
BRANCH  11  22
HETATM   22  N   UNK N   1      30.017  17.208   5.228  0.00  0.00    -0.297 N 
HETATM   23  C   UNK N   1      29.514  17.271   3.966  0.00  0.00     0.188 A 
HETATM   24  N   UNK N   1      28.383  18.027   3.917  0.00  0.00    -0.346 N 
HETATM   25  C   UNK N   1      28.199  18.431   5.187  0.00  0.00     0.122 A 
ATOM     26  HN  UNK N   1      27.807  18.240   3.103  1.00  0.00     0.167 HD
HETATM   27  C   UNK N   1      27.184  19.197   5.735  0.00  0.00     0.131 A 
HETATM   28  C   UNK N   1      29.183  17.950   5.970  0.00  0.00     0.142 A 
HETATM   29  N   UNK N   1      27.228  19.452   7.076  0.00  0.00    -0.337 N 
HETATM   30  C   UNK N   1      28.246  18.961   7.856  0.00  0.00     0.183 A 
ATOM     31  HN  UNK N   1      26.493  20.014   7.505  1.00  0.00     0.168 HD
HETATM   32  N   UNK N   1      29.233  18.193   7.302  0.00  0.00    -0.336 N 
ATOM     33  HN  UNK N   1      29.987  17.815   7.875  1.00  0.00     0.168 HD
BRANCH  27  34
HETATM   34  N   UNK N   1      26.125  19.683   4.944  0.00  0.00    -0.383 N 
HETATM   35  H   UNK N   1      26.187  20.568   4.518  0.00  0.00     0.157 HD
HETATM   36  H   UNK N   1      25.318  19.134   4.817  0.00  0.00     0.157 HD
ENDBRANCH  27  34
ENDBRANCH  11  22
ENDBRANCH   7   8
ENDBRANCH   6   7
ENDBRANCH   2   6
ENDBRANCH   1   2
BRANCH   1  37
HETATM   37  P   UNK N   1      35.488  14.040  11.577  0.00  0.00     0.401 P 
HETATM   38  O   UNK N   1      35.173  13.013  10.459  0.00  0.00    -0.631 OA
BRANCH  37  39
HETATM   39  O   UNK N   1      33.821  14.440  11.326  0.00  0.00    -0.307 OA
HETATM   40  H   UNK N   1      33.125  14.754  11.925  0.00  0.00     0.222 HD
ENDBRANCH  37  39
BRANCH  37  41
HETATM   41  O   UNK N   1      34.882  13.768  13.158  0.00  0.00    -0.296 OA
BRANCH  41  42
HETATM   42  C   UNK N   1      35.986  13.565  13.972  0.00  0.00     0.192 C 
BRANCH  42  43
HETATM   43  C   UNK N   1      35.821  12.205  14.626  0.00  0.00     0.008 C 
HETATM   44  C   UNK N   1      35.718  12.406  16.132  0.00  0.00     0.020 C 
HETATM   45  C   UNK N   1      34.518  11.575  14.148  0.00  0.00     0.020 C 
BRANCH  43  46
HETATM   46  C   UNK N   1      36.994  11.268  14.301  0.00  0.00     0.202 C 
BRANCH  46  47
HETATM   47  C   UNK N   1      36.896  10.580  12.944  0.00  0.00     0.141 C 
BRANCH  47  48
HETATM   48  N   UNK N   1      37.289  11.166  11.866  0.00  0.00    -0.372 N 
ATOM     49  HN  UNK N   1      37.403  12.179  11.885  1.00  0.00     0.161 HD
BRANCH  48  50
HETATM   50  C   UNK N   1      37.577  10.470  10.631  0.00  0.00     0.129 C 
BRANCH  50  51
HETATM   51  C   UNK N   1      38.667  11.194   9.812  0.00  0.00     0.103 C 
BRANCH  51  52
HETATM   52  C   UNK N   1      38.527  12.701   9.751  0.00  0.00     0.112 C 
BRANCH  52  53
HETATM   53  N   UNK N   1      38.035  13.298   8.721  0.00  0.00    -0.374 N 
ATOM     54  HN  UNK N   1      37.046  13.552   8.733  1.00  0.00     0.161 HD
BRANCH  53  55
HETATM   55  C   UNK N   1      38.818  13.624   7.551  0.00  0.00     0.132 C 
BRANCH  55  56
HETATM   56  C   UNK N   1      37.934  14.080   6.402  0.00  0.00     0.102 C 
BRANCH  56  57
HETATM   57  S   UNK N   1      37.810  12.802   5.103  0.00  0.00    -0.091 SA
BRANCH  57  58
HETATM   58  C   UNK N   1      36.320  13.438   4.293  0.00  0.00     0.186 C 
HETATM   59  O   UNK N   1      35.545  14.180   4.874  0.00  0.00    -0.286 OA
BRANCH  58  60
HETATM   60  C   UNK N   1      36.031  13.043   2.885  0.00  0.00     0.092 C 
BRANCH  60  61
HETATM   61  C   UNK N   1      35.021  13.983   2.231  0.00  0.00     0.034 C 
BRANCH  61  62
HETATM   62  C   UNK N   1      33.636  13.357   2.091  0.00  0.00     0.202 C 
BRANCH  62  63
HETATM   63  N   UNK N   1      32.636  14.185   2.710  0.00  0.00    -0.156 N 
HETATM   64  O   UNK N   1      31.736  13.690   3.309  0.00  0.00    -0.537 OA
HETATM   65  O   UNK N   1      32.755  15.376   2.688  0.00  0.00    -0.537 OA
ENDBRANCH  62  63
ENDBRANCH  61  62
ENDBRANCH  60  61
ENDBRANCH  58  60
ENDBRANCH  57  58
ENDBRANCH  56  57
ENDBRANCH  55  56
ENDBRANCH  53  55
ENDBRANCH  52  53
BRANCH  52  66
HETATM   66  O   UNK N   1      38.923  13.438  10.804  0.00  0.00    -0.350 OA
HETATM   67  H   UNK N   1      38.539  13.609  11.642  0.00  0.00     0.219 HD
ENDBRANCH  52  66
ENDBRANCH  51  52
ENDBRANCH  50  51
ENDBRANCH  48  50
ENDBRANCH  47  48
BRANCH  47  68
HETATM   68  O   UNK N   1      36.345   9.355  12.842  0.00  0.00    -0.348 OA
HETATM   69  H   UNK N   1      35.968   8.672  13.362  0.00  0.00     0.219 HD
ENDBRANCH  47  68
ENDBRANCH  46  47
BRANCH  46  70
HETATM   70  O   UNK N   1      38.209  11.954  14.351  0.00  0.00    -0.387 OA
HETATM   71  H   UNK N   1      38.411  12.600  15.047  0.00  0.00     0.210 HD
ENDBRANCH  46  70
ENDBRANCH  43  46
ENDBRANCH  42  43
ENDBRANCH  41  42
ENDBRANCH  37  41
ENDBRANCH   1  37
TORSDOF 35
ENDMDL
