MODEL 1
REMARK VINA RESULT:      -6.7      0.000      0.000
REMARK  18 active torsions:
REMARK  status: ('A' for Active; 'I' for Inactive)
REMARK    1  A    between atoms: C_4  and  C_1 
REMARK    2  A    between atoms: O_19  and  C_1 
REMARK    3  A    between atoms: C_5  and  C_2 
REMARK    4  A    between atoms: O_20  and  C_2 
REMARK    5  A    between atoms: C_6  and  C_3 
REMARK    6  A    between atoms: O_21  and  C_3 
REMARK    7  A    between atoms: C_7  and  O_22 
REMARK    8  A    between atoms: C_8  and  O_23 
REMARK    9  A    between atoms: C_9  and  O_24 
REMARK   10  A    between atoms: C_10  and  O_25 
REMARK   11  A    between atoms: C_11  and  O_26 
REMARK   12  A    between atoms: C_12  and  O_27 
REMARK   13  A    between atoms: C_13  and  O_28 
REMARK   14  A    between atoms: C_14  and  O_33 
REMARK   15  A    between atoms: C_15  and  O_34 
REMARK   16  A    between atoms: C_16  and  O_29 
REMARK   17  A    between atoms: C_17  and  O_34 
REMARK   18  A    between atoms: C_18  and  O_33 
ROOT
HETATM    1  C   UNK N   1      33.310  15.028   8.680  0.00  0.00     0.180 C 
HETATM    2  C   UNK N   1      34.462  17.094   9.409  0.00  0.00     0.183 C 
HETATM    3  C   UNK N   1      34.255  17.616   7.978  0.00  0.00     0.204 C 
HETATM    4  C   UNK N   1      34.560  15.542   9.432  0.00  0.00     0.187 C 
HETATM    5  C   UNK N   1      33.053  16.926   7.275  0.00  0.00     0.292 C 
HETATM    6  O   UNK N   1      33.219  15.519   7.353  0.00  0.00    -0.348 OA
ENDROOT
BRANCH   4   7
HETATM    7  O   UNK N   1      35.789  15.066   8.871  0.00  0.00    -0.348 OA
BRANCH   7   8
HETATM    8  C   UNK N   1      36.609  14.474   9.885  0.00  0.00     0.292 C 
HETATM    9  C   UNK N   1      37.289  13.189   9.365  0.00  0.00     0.204 C 
HETATM   10  C   UNK N   1      38.104  12.543  10.513  0.00  0.00     0.183 C 
HETATM   11  C   UNK N   1      37.195  12.321  11.733  0.00  0.00     0.180 C 
HETATM   12  C   UNK N   1      36.534  13.664  12.093  0.00  0.00     0.179 C 
HETATM   13  O   UNK N   1      35.794  14.138  10.991  0.00  0.00    -0.348 OA
BRANCH   9  14
HETATM   14  O   UNK N   1      38.128  13.482   8.287  0.00  0.00    -0.388 OA
HETATM   15  H   UNK N   1      38.577  12.769   7.806  0.00  0.00     0.210 HD
ENDBRANCH   9  14
BRANCH  10  16
HETATM   16  O   UNK N   1      39.168  13.379  10.874  0.00  0.00    -0.390 OA
HETATM   17  H   UNK N   1      39.554  14.266  10.940  0.00  0.00     0.210 HD
ENDBRANCH  10  16
BRANCH  11  18
HETATM   18  O   UNK N   1      36.220  11.368  11.418  0.00  0.00    -0.390 OA
HETATM   19  H   UNK N   1      35.331  11.133  11.107  0.00  0.00     0.210 HD
ENDBRANCH  11  18
BRANCH  12  20
HETATM   20  C   UNK N   1      35.599  13.544  13.300  0.00  0.00     0.198 C 
BRANCH  20  21
HETATM   21  O   UNK N   1      34.342  13.060  12.928  0.00  0.00    -0.398 OA
HETATM   22  H   UNK N   1      33.796  12.276  12.759  0.00  0.00     0.209 HD
ENDBRANCH  20  21
ENDBRANCH  12  20
ENDBRANCH   7   8
ENDBRANCH   4   7
BRANCH   1  23
HETATM   23  C   UNK N   1      33.062  13.526   8.629  0.00  0.00     0.198 C 
BRANCH  23  24
HETATM   24  O   UNK N   1      33.527  12.903   9.792  0.00  0.00    -0.398 OA
HETATM   25  H   UNK N   1      33.639  12.837  10.754  0.00  0.00     0.209 HD
ENDBRANCH  23  24
ENDBRANCH   1  23
BRANCH   2  26
HETATM   26  O   UNK N   1      35.603  17.661   9.983  0.00  0.00    -0.390 OA
HETATM   27  H   UNK N   1      36.152  17.141  10.588  0.00  0.00     0.210 HD
ENDBRANCH   2  26
BRANCH   3  28
HETATM   28  O   UNK N   1      34.088  19.007   7.972  0.00  0.00    -0.388 OA
HETATM   29  H   UNK N   1      33.949  19.475   7.134  0.00  0.00     0.210 HD
ENDBRANCH   3  28
BRANCH   5  30
HETATM   30  O   UNK N   1      31.753  17.450   7.603  0.00  0.00    -0.348 OA
BRANCH  30  31
HETATM   31  C   UNK N   1      30.549  16.682   7.416  0.00  0.00     0.187 C 
HETATM   32  C   UNK N   1      29.809  16.833   6.032  0.00  0.00     0.180 C 
HETATM   33  O   UNK N   1      29.283  18.142   5.834  0.00  0.00    -0.349 OA
HETATM   34  C   UNK N   1      28.353  18.524   6.838  0.00  0.00     0.288 C 
HETATM   35  C   UNK N   1      28.982  18.473   8.238  0.00  0.00     0.204 C 
HETATM   36  C   UNK N   1      29.534  17.071   8.508  0.00  0.00     0.183 C 
BRANCH  32  37
HETATM   37  C   UNK N   1      28.739  15.748   5.830  0.00  0.00     0.198 C 
BRANCH  37  38
HETATM   38  O   UNK N   1      28.123  15.882   4.583  0.00  0.00    -0.398 OA
HETATM   39  H   UNK N   1      28.054  15.336   3.784  0.00  0.00     0.209 HD
ENDBRANCH  37  38
ENDBRANCH  32  37
BRANCH  34  40
HETATM   40  O   UNK N   1      27.186  17.751   6.769  0.00  0.00    -0.369 OA
HETATM   41  H   UNK N   1      26.992  16.813   6.921  0.00  0.00     0.212 HD
ENDBRANCH  34  40
BRANCH  35  42
HETATM   42  O   UNK N   1      28.026  18.811   9.200  0.00  0.00    -0.388 OA
HETATM   43  H   UNK N   1      28.109  19.573   9.794  0.00  0.00     0.210 HD
ENDBRANCH  35  42
BRANCH  36  44
HETATM   44  O   UNK N   1      30.134  17.018   9.770  0.00  0.00    -0.390 OA
HETATM   45  H   UNK N   1      29.845  16.460  10.508  0.00  0.00     0.210 HD
ENDBRANCH  36  44
ENDBRANCH  30  31
ENDBRANCH   5  30
TORSDOF 18
ENDMDL
MODEL 2
REMARK VINA RESULT:      -6.5     10.021     13.135
REMARK  18 active torsions:
REMARK  status: ('A' for Active; 'I' for Inactive)
REMARK    1  A    between atoms: C_4  and  C_1 
REMARK    2  A    between atoms: O_19  and  C_1 
REMARK    3  A    between atoms: C_5  and  C_2 
REMARK    4  A    between atoms: O_20  and  C_2 
REMARK    5  A    between atoms: C_6  and  C_3 
REMARK    6  A    between atoms: O_21  and  C_3 
REMARK    7  A    between atoms: C_7  and  O_22 
REMARK    8  A    between atoms: C_8  and  O_23 
REMARK    9  A    between atoms: C_9  and  O_24 
REMARK   10  A    between atoms: C_10  and  O_25 
REMARK   11  A    between atoms: C_11  and  O_26 
REMARK   12  A    between atoms: C_12  and  O_27 
REMARK   13  A    between atoms: C_13  and  O_28 
REMARK   14  A    between atoms: C_14  and  O_33 
REMARK   15  A    between atoms: C_15  and  O_34 
REMARK   16  A    between atoms: C_16  and  O_29 
REMARK   17  A    between atoms: C_17  and  O_34 
REMARK   18  A    between atoms: C_18  and  O_33 
ROOT
HETATM    1  C   UNK N   1      20.065  15.865   7.196  0.00  0.00     0.180 C 
HETATM    2  C   UNK N   1      20.943  14.409   5.397  0.00  0.00     0.183 C 
HETATM    3  C   UNK N   1      19.550  14.501   4.754  0.00  0.00     0.204 C 
HETATM    4  C   UNK N   1      20.860  14.563   6.943  0.00  0.00     0.187 C 
HETATM    5  C   UNK N   1      18.792  15.786   5.192  0.00  0.00     0.292 C 
HETATM    6  O   UNK N   1      18.773  15.850   6.609  0.00  0.00    -0.348 OA
ENDROOT
BRANCH   4   7
HETATM    7  O   UNK N   1      20.278  13.417   7.573  0.00  0.00    -0.348 OA
BRANCH   7   8
HETATM    8  C   UNK N   1      21.259  12.711   8.342  0.00  0.00     0.292 C 
HETATM    9  C   UNK N   1      21.415  13.335   9.745  0.00  0.00     0.204 C 
HETATM   10  C   UNK N   1      22.536  12.591  10.513  0.00  0.00     0.183 C 
HETATM   11  C   UNK N   1      23.827  12.596   9.678  0.00  0.00     0.180 C 
HETATM   12  C   UNK N   1      23.506  12.014   8.289  0.00  0.00     0.179 C 
HETATM   13  O   UNK N   1      22.503  12.789   7.672  0.00  0.00    -0.348 OA
BRANCH   9  14
HETATM   14  O   UNK N   1      20.213  13.252  10.453  0.00  0.00    -0.388 OA
HETATM   15  H   UNK N   1      19.549  13.956  10.378  0.00  0.00     0.210 HD
ENDBRANCH   9  14
BRANCH  10  16
HETATM   16  O   UNK N   1      22.149  11.267  10.760  0.00  0.00    -0.390 OA
HETATM   17  H   UNK N   1      21.767  10.601  11.351  0.00  0.00     0.210 HD
ENDBRANCH  10  16
BRANCH  11  18
HETATM   18  O   UNK N   1      24.298  13.908   9.559  0.00  0.00    -0.390 OA
HETATM   19  H   UNK N   1      24.472  14.703   9.032  0.00  0.00     0.210 HD
ENDBRANCH  11  18
BRANCH  12  20
HETATM   20  C   UNK N   1      24.736  11.983   7.376  0.00  0.00     0.198 C 
BRANCH  20  21
HETATM   21  O   UNK N   1      25.020  13.248   6.856  0.00  0.00    -0.398 OA
HETATM   22  H   UNK N   1      24.748  13.951   6.245  0.00  0.00     0.209 HD
ENDBRANCH  20  21
ENDBRANCH  12  20
ENDBRANCH   7   8
ENDBRANCH   4   7
BRANCH   1  23
HETATM   23  C   UNK N   1      19.909  16.351   8.631  0.00  0.00     0.198 C 
BRANCH  23  24
HETATM   24  O   UNK N   1      18.893  15.649   9.288  0.00  0.00    -0.398 OA
HETATM   25  H   UNK N   1      17.963  15.449   9.481  0.00  0.00     0.209 HD
ENDBRANCH  23  24
ENDBRANCH   1  23
BRANCH   2  26
HETATM   26  O   UNK N   1      21.564  13.203   5.062  0.00  0.00    -0.390 OA
HETATM   27  H   UNK N   1      21.029  12.421   4.858  0.00  0.00     0.210 HD
ENDBRANCH   2  26
BRANCH   3  28
HETATM   28  O   UNK N   1      19.639  14.442   3.357  0.00  0.00    -0.388 OA
HETATM   29  H   UNK N   1      20.005  15.192   2.863  0.00  0.00     0.210 HD
ENDBRANCH   3  28
BRANCH   5  30
HETATM   30  O   UNK N   1      19.144  16.989   4.487  0.00  0.00    -0.348 OA
BRANCH  30  31
HETATM   31  C   UNK N   1      20.484  17.236   4.016  0.00  0.00     0.187 C 
HETATM   32  C   UNK N   1      21.400  18.158   4.909  0.00  0.00     0.180 C 
HETATM   33  O   UNK N   1      20.926  19.499   4.975  0.00  0.00    -0.349 OA
HETATM   34  C   UNK N   1      20.841  20.121   3.700  0.00  0.00     0.288 C 
HETATM   35  C   UNK N   1      19.920  19.339   2.752  0.00  0.00     0.204 C 
HETATM   36  C   UNK N   1      20.411  17.894   2.626  0.00  0.00     0.183 C 
BRANCH  32  37
HETATM   37  C   UNK N   1      22.875  18.090   4.482  0.00  0.00     0.198 C 
BRANCH  37  38
HETATM   38  O   UNK N   1      23.699  18.687   5.440  0.00  0.00    -0.398 OA
HETATM   39  H   UNK N   1      23.562  19.266   6.205  0.00  0.00     0.209 HD
ENDBRANCH  37  38
ENDBRANCH  32  37
BRANCH  34  40
HETATM   40  O   UNK N   1      22.112  20.311   3.143  0.00  0.00    -0.369 OA
HETATM   41  H   UNK N   1      22.580  21.083   2.784  0.00  0.00     0.212 HD
ENDBRANCH  34  40
BRANCH  35  42
HETATM   42  O   UNK N   1      19.897  19.955   1.498  0.00  0.00    -0.388 OA
HETATM   43  H   UNK N   1      19.127  20.426   1.146  0.00  0.00     0.210 HD
ENDBRANCH  35  42
BRANCH  36  44
HETATM   44  O   UNK N   1      19.565  17.164   1.785  0.00  0.00    -0.390 OA
HETATM   45  H   UNK N   1      18.948  16.473   2.069  0.00  0.00     0.210 HD
ENDBRANCH  36  44
ENDBRANCH  30  31
ENDBRANCH   5  30
TORSDOF 18
ENDMDL
MODEL 3
REMARK VINA RESULT:      -6.4      1.991      2.942
REMARK  18 active torsions:
REMARK  status: ('A' for Active; 'I' for Inactive)
REMARK    1  A    between atoms: C_4  and  C_1 
REMARK    2  A    between atoms: O_19  and  C_1 
REMARK    3  A    between atoms: C_5  and  C_2 
REMARK    4  A    between atoms: O_20  and  C_2 
REMARK    5  A    between atoms: C_6  and  C_3 
REMARK    6  A    between atoms: O_21  and  C_3 
REMARK    7  A    between atoms: C_7  and  O_22 
REMARK    8  A    between atoms: C_8  and  O_23 
REMARK    9  A    between atoms: C_9  and  O_24 
REMARK   10  A    between atoms: C_10  and  O_25 
REMARK   11  A    between atoms: C_11  and  O_26 
REMARK   12  A    between atoms: C_12  and  O_27 
REMARK   13  A    between atoms: C_13  and  O_28 
REMARK   14  A    between atoms: C_14  and  O_33 
REMARK   15  A    between atoms: C_15  and  O_34 
REMARK   16  A    between atoms: C_16  and  O_29 
REMARK   17  A    between atoms: C_17  and  O_34 
REMARK   18  A    between atoms: C_18  and  O_33 
ROOT
HETATM    1  C   UNK N   1      31.791  15.880   7.838  0.00  0.00     0.180 C 
HETATM    2  C   UNK N   1      33.296  17.136   6.326  0.00  0.00     0.183 C 
HETATM    3  C   UNK N   1      32.347  16.739   5.184  0.00  0.00     0.204 C 
HETATM    4  C   UNK N   1      33.279  16.076   7.465  0.00  0.00     0.187 C 
HETATM    5  C   UNK N   1      30.913  16.432   5.701  0.00  0.00     0.292 C 
HETATM    6  O   UNK N   1      30.994  15.469   6.740  0.00  0.00    -0.348 OA
ENDROOT
BRANCH   4   7
HETATM    7  O   UNK N   1      33.930  14.859   7.084  0.00  0.00    -0.348 OA
BRANCH   7   8
HETATM    8  C   UNK N   1      34.836  14.431   8.107  0.00  0.00     0.292 C 
HETATM    9  C   UNK N   1      34.392  13.081   8.711  0.00  0.00     0.204 C 
HETATM   10  C   UNK N   1      35.355  12.694   9.861  0.00  0.00     0.183 C 
HETATM   11  C   UNK N   1      35.432  13.842  10.881  0.00  0.00     0.180 C 
HETATM   12  C   UNK N   1      35.815  15.130  10.129  0.00  0.00     0.179 C 
HETATM   13  O   UNK N   1      34.853  15.402   9.135  0.00  0.00    -0.348 OA
BRANCH   9  14
HETATM   14  O   UNK N   1      34.389  12.085   7.732  0.00  0.00    -0.388 OA
HETATM   15  H   UNK N   1      33.800  11.319   7.812  0.00  0.00     0.210 HD
ENDBRANCH   9  14
BRANCH  10  16
HETATM   16  O   UNK N   1      36.635  12.443   9.349  0.00  0.00    -0.390 OA
HETATM   17  H   UNK N   1      37.233  12.354   8.592  0.00  0.00     0.210 HD
ENDBRANCH  10  16
BRANCH  11  18
HETATM   18  O   UNK N   1      34.189  13.994  11.504  0.00  0.00    -0.390 OA
HETATM   19  H   UNK N   1      33.618  14.406  12.172  0.00  0.00     0.210 HD
ENDBRANCH  11  18
BRANCH  12  20
HETATM   20  C   UNK N   1      35.912  16.339  11.065  0.00  0.00     0.198 C 
BRANCH  20  21
HETATM   21  O   UNK N   1      34.701  17.035  11.131  0.00  0.00    -0.398 OA
HETATM   22  H   UNK N   1      33.760  17.043  10.895  0.00  0.00     0.209 HD
ENDBRANCH  20  21
ENDBRANCH  12  20
ENDBRANCH   7   8
ENDBRANCH   4   7
BRANCH   1  23
HETATM   23  C   UNK N   1      31.453  14.972   9.013  0.00  0.00     0.198 C 
BRANCH  23  24
HETATM   24  O   UNK N   1      32.128  15.379  10.169  0.00  0.00    -0.398 OA
HETATM   25  H   UNK N   1      32.800  15.893  10.644  0.00  0.00     0.209 HD
ENDBRANCH  23  24
ENDBRANCH   1  23
BRANCH   2  26
HETATM   26  O   UNK N   1      34.597  17.315   5.848  0.00  0.00    -0.390 OA
HETATM   27  H   UNK N   1      35.187  16.552   5.748  0.00  0.00     0.210 HD
ENDBRANCH   2  26
BRANCH   3  28
HETATM   28  O   UNK N   1      32.305  17.734   4.199  0.00  0.00    -0.388 OA
HETATM   29  H   UNK N   1      32.863  17.658   3.409  0.00  0.00     0.210 HD
ENDBRANCH   3  28
BRANCH   5  30
HETATM   30  O   UNK N   1      30.076  17.579   5.935  0.00  0.00    -0.348 OA
BRANCH  30  31
HETATM   31  C   UNK N   1      28.659  17.558   5.672  0.00  0.00     0.187 C 
HETATM   32  C   UNK N   1      28.093  18.659   4.696  0.00  0.00     0.180 C 
HETATM   33  O   UNK N   1      28.211  19.974   5.230  0.00  0.00    -0.349 OA
HETATM   34  C   UNK N   1      27.529  20.136   6.466  0.00  0.00     0.288 C 
HETATM   35  C   UNK N   1      28.040  19.147   7.525  0.00  0.00     0.204 C 
HETATM   36  C   UNK N   1      27.902  17.713   7.005  0.00  0.00     0.183 C 
BRANCH  32  37
HETATM   37  C   UNK N   1      26.656  18.348   4.249  0.00  0.00     0.198 C 
BRANCH  37  38
HETATM   38  O   UNK N   1      26.170  19.350   3.404  0.00  0.00    -0.398 OA
HETATM   39  H   UNK N   1      25.332  19.524   2.949  0.00  0.00     0.209 HD
ENDBRANCH  37  38
ENDBRANCH  32  37
BRANCH  34  40
HETATM   40  O   UNK N   1      26.142  20.037   6.296  0.00  0.00    -0.369 OA
HETATM   41  H   UNK N   1      25.571  19.819   5.542  0.00  0.00     0.212 HD
ENDBRANCH  34  40
BRANCH  35  42
HETATM   42  O   UNK N   1      27.316  19.305   8.709  0.00  0.00    -0.388 OA
HETATM   43  H   UNK N   1      26.639  18.680   9.011  0.00  0.00     0.210 HD
ENDBRANCH  35  42
BRANCH  36  44
HETATM   44  O   UNK N   1      28.388  16.804   7.950  0.00  0.00    -0.390 OA
HETATM   45  H   UNK N   1      28.594  15.872   7.781  0.00  0.00     0.210 HD
ENDBRANCH  36  44
ENDBRANCH  30  31
ENDBRANCH   5  30
TORSDOF 18
ENDMDL
MODEL 4
REMARK VINA RESULT:      -6.3      2.418      9.518
REMARK  18 active torsions:
REMARK  status: ('A' for Active; 'I' for Inactive)
REMARK    1  A    between atoms: C_4  and  C_1 
REMARK    2  A    between atoms: O_19  and  C_1 
REMARK    3  A    between atoms: C_5  and  C_2 
REMARK    4  A    between atoms: O_20  and  C_2 
REMARK    5  A    between atoms: C_6  and  C_3 
REMARK    6  A    between atoms: O_21  and  C_3 
REMARK    7  A    between atoms: C_7  and  O_22 
REMARK    8  A    between atoms: C_8  and  O_23 
REMARK    9  A    between atoms: C_9  and  O_24 
REMARK   10  A    between atoms: C_10  and  O_25 
REMARK   11  A    between atoms: C_11  and  O_26 
REMARK   12  A    between atoms: C_12  and  O_27 
REMARK   13  A    between atoms: C_13  and  O_28 
REMARK   14  A    between atoms: C_14  and  O_33 
REMARK   15  A    between atoms: C_15  and  O_34 
REMARK   16  A    between atoms: C_16  and  O_29 
REMARK   17  A    between atoms: C_17  and  O_34 
REMARK   18  A    between atoms: C_18  and  O_33 
ROOT
HETATM    1  C   UNK N   1      29.165  16.852   7.156  0.00  0.00     0.180 C 
HETATM    2  C   UNK N   1      30.636  16.509   5.195  0.00  0.00     0.183 C 
HETATM    3  C   UNK N   1      31.769  17.109   6.042  0.00  0.00     0.204 C 
HETATM    4  C   UNK N   1      29.252  17.072   5.627  0.00  0.00     0.187 C 
HETATM    5  C   UNK N   1      31.503  16.949   7.566  0.00  0.00     0.292 C 
HETATM    6  O   UNK N   1      30.221  17.477   7.867  0.00  0.00    -0.348 OA
ENDROOT
BRANCH   4   7
HETATM    7  O   UNK N   1      29.078  18.441   5.244  0.00  0.00    -0.348 OA
BRANCH   7   8
HETATM    8  C   UNK N   1      27.872  18.603   4.488  0.00  0.00     0.292 C 
HETATM    9  C   UNK N   1      26.932  19.626   5.161  0.00  0.00     0.204 C 
HETATM   10  C   UNK N   1      25.613  19.714   4.354  0.00  0.00     0.183 C 
HETATM   11  C   UNK N   1      25.005  18.310   4.198  0.00  0.00     0.180 C 
HETATM   12  C   UNK N   1      26.073  17.388   3.583  0.00  0.00     0.179 C 
HETATM   13  O   UNK N   1      27.209  17.356   4.417  0.00  0.00    -0.348 OA
BRANCH   9  14
HETATM   14  O   UNK N   1      27.540  20.882   5.226  0.00  0.00    -0.388 OA
HETATM   15  H   UNK N   1      27.001  21.688   5.253  0.00  0.00     0.210 HD
ENDBRANCH   9  14
BRANCH  10  16
HETATM   16  O   UNK N   1      25.864  20.253   3.085  0.00  0.00    -0.390 OA
HETATM   17  H   UNK N   1      25.969  20.135   2.129  0.00  0.00     0.210 HD
ENDBRANCH  10  16
BRANCH  11  18
HETATM   18  O   UNK N   1      24.613  17.832   5.453  0.00  0.00    -0.390 OA
HETATM   19  H   UNK N   1      23.939  17.479   6.055  0.00  0.00     0.210 HD
ENDBRANCH  11  18
BRANCH  12  20
HETATM   20  C   UNK N   1      25.561  15.956   3.393  0.00  0.00     0.198 C 
BRANCH  20  21
HETATM   21  O   UNK N   1      25.683  15.208   4.567  0.00  0.00    -0.398 OA
HETATM   22  H   UNK N   1      25.633  14.329   4.974  0.00  0.00     0.209 HD
ENDBRANCH  20  21
ENDBRANCH  12  20
ENDBRANCH   7   8
ENDBRANCH   4   7
BRANCH   1  23
HETATM   23  C   UNK N   1      27.864  17.206   7.865  0.00  0.00     0.198 C 
BRANCH  23  24
HETATM   24  O   UNK N   1      26.765  16.665   7.191  0.00  0.00    -0.398 OA
HETATM   25  H   UNK N   1      25.828  16.423   7.116  0.00  0.00     0.209 HD
ENDBRANCH  23  24
ENDBRANCH   1  23
BRANCH   2  26
HETATM   26  O   UNK N   1      30.854  16.748   3.836  0.00  0.00    -0.390 OA
HETATM   27  H   UNK N   1      30.363  17.448   3.380  0.00  0.00     0.210 HD
ENDBRANCH   2  26
BRANCH   3  28
HETATM   28  O   UNK N   1      33.003  16.539   5.703  0.00  0.00    -0.388 OA
HETATM   29  H   UNK N   1      33.110  15.575   5.710  0.00  0.00     0.210 HD
ENDBRANCH   3  28
BRANCH   5  30
HETATM   30  O   UNK N   1      31.829  15.664   8.125  0.00  0.00    -0.348 OA
BRANCH  30  31
HETATM   31  C   UNK N   1      32.811  15.511   9.169  0.00  0.00     0.187 C 
HETATM   32  C   UNK N   1      34.070  16.458   9.114  0.00  0.00     0.180 C 
HETATM   33  O   UNK N   1      34.895  16.205   7.981  0.00  0.00    -0.349 OA
HETATM   34  C   UNK N   1      35.385  14.872   7.937  0.00  0.00     0.288 C 
HETATM   35  C   UNK N   1      34.238  13.851   7.925  0.00  0.00     0.204 C 
HETATM   36  C   UNK N   1      33.340  14.065   9.147  0.00  0.00     0.183 C 
BRANCH  32  37
HETATM   37  C   UNK N   1      34.871  16.426  10.426  0.00  0.00     0.198 C 
BRANCH  37  38
HETATM   38  O   UNK N   1      35.901  17.370  10.404  0.00  0.00    -0.398 OA
HETATM   39  H   UNK N   1      36.227  18.052  11.011  0.00  0.00     0.209 HD
ENDBRANCH  37  38
ENDBRANCH  32  37
BRANCH  34  40
HETATM   40  O   UNK N   1      36.283  14.627   8.984  0.00  0.00    -0.369 OA
HETATM   41  H   UNK N   1      36.321  14.901   9.914  0.00  0.00     0.212 HD
ENDBRANCH  34  40
BRANCH  35  42
HETATM   42  O   UNK N   1      34.758  12.554   7.928  0.00  0.00    -0.388 OA
HETATM   43  H   UNK N   1      34.464  11.859   8.537  0.00  0.00     0.210 HD
ENDBRANCH  35  42
BRANCH  36  44
HETATM   44  O   UNK N   1      32.277  13.157   9.135  0.00  0.00    -0.390 OA
HETATM   45  H   UNK N   1      31.675  12.984   9.875  0.00  0.00     0.210 HD
ENDBRANCH  36  44
ENDBRANCH  30  31
ENDBRANCH   5  30
TORSDOF 18
ENDMDL
MODEL 5
REMARK VINA RESULT:      -6.3      1.335      1.588
REMARK  18 active torsions:
REMARK  status: ('A' for Active; 'I' for Inactive)
REMARK    1  A    between atoms: C_4  and  C_1 
REMARK    2  A    between atoms: O_19  and  C_1 
REMARK    3  A    between atoms: C_5  and  C_2 
REMARK    4  A    between atoms: O_20  and  C_2 
REMARK    5  A    between atoms: C_6  and  C_3 
REMARK    6  A    between atoms: O_21  and  C_3 
REMARK    7  A    between atoms: C_7  and  O_22 
REMARK    8  A    between atoms: C_8  and  O_23 
REMARK    9  A    between atoms: C_9  and  O_24 
REMARK   10  A    between atoms: C_10  and  O_25 
REMARK   11  A    between atoms: C_11  and  O_26 
REMARK   12  A    between atoms: C_12  and  O_27 
REMARK   13  A    between atoms: C_13  and  O_28 
REMARK   14  A    between atoms: C_14  and  O_33 
REMARK   15  A    between atoms: C_15  and  O_34 
REMARK   16  A    between atoms: C_16  and  O_29 
REMARK   17  A    between atoms: C_17  and  O_34 
REMARK   18  A    between atoms: C_18  and  O_33 
ROOT
HETATM    1  C   UNK N   1      33.278  14.977   8.225  0.00  0.00     0.180 C 
HETATM    2  C   UNK N   1      34.361  16.874   9.390  0.00  0.00     0.183 C 
HETATM    3  C   UNK N   1      34.407  17.580   8.025  0.00  0.00     0.204 C 
HETATM    4  C   UNK N   1      34.405  15.328   9.225  0.00  0.00     0.187 C 
HETATM    5  C   UNK N   1      33.314  17.046   7.057  0.00  0.00     0.292 C 
HETATM    6  O   UNK N   1      33.421  15.633   6.976  0.00  0.00    -0.348 OA
ENDROOT
BRANCH   4   7
HETATM    7  O   UNK N   1      35.693  14.862   8.808  0.00  0.00    -0.348 OA
BRANCH   7   8
HETATM    8  C   UNK N   1      36.205  13.899   9.736  0.00  0.00     0.292 C 
HETATM    9  C   UNK N   1      37.748  13.892   9.730  0.00  0.00     0.204 C 
HETATM   10  C   UNK N   1      38.257  12.786  10.689  0.00  0.00     0.183 C 
HETATM   11  C   UNK N   1      37.622  11.438  10.310  0.00  0.00     0.180 C 
HETATM   12  C   UNK N   1      36.093  11.615  10.289  0.00  0.00     0.179 C 
HETATM   13  O   UNK N   1      35.745  12.616   9.359  0.00  0.00    -0.348 OA
BRANCH   9  14
HETATM   14  O   UNK N   1      38.245  15.135  10.125  0.00  0.00    -0.388 OA
HETATM   15  H   UNK N   1      38.613  15.258  11.015  0.00  0.00     0.210 HD
ENDBRANCH   9  14
BRANCH  10  16
HETATM   16  O   UNK N   1      37.915  13.105  12.010  0.00  0.00    -0.390 OA
HETATM   17  H   UNK N   1      37.240  13.274  12.684  0.00  0.00     0.210 HD
ENDBRANCH  10  16
BRANCH  11  18
HETATM   18  O   UNK N   1      38.085  11.045   9.050  0.00  0.00    -0.390 OA
HETATM   19  H   UNK N   1      38.055  11.094   8.081  0.00  0.00     0.210 HD
ENDBRANCH  11  18
BRANCH  12  20
HETATM   20  C   UNK N   1      35.366  10.319   9.914  0.00  0.00     0.198 C 
BRANCH  20  21
HETATM   21  O   UNK N   1      34.602  10.478   8.755  0.00  0.00    -0.398 OA
HETATM   22  H   UNK N   1      33.712  10.578   8.380  0.00  0.00     0.209 HD
ENDBRANCH  20  21
ENDBRANCH  12  20
ENDBRANCH   7   8
ENDBRANCH   4   7
BRANCH   1  23
HETATM   23  C   UNK N   1      32.995  13.509   7.940  0.00  0.00     0.198 C 
BRANCH  23  24
HETATM   24  O   UNK N   1      32.699  12.819   9.120  0.00  0.00    -0.398 OA
HETATM   25  H   UNK N   1      32.396  12.767  10.041  0.00  0.00     0.209 HD
ENDBRANCH  23  24
ENDBRANCH   1  23
BRANCH   2  26
HETATM   26  O   UNK N   1      35.410  17.306  10.206  0.00  0.00    -0.390 OA
HETATM   27  H   UNK N   1      36.247  17.591   9.811  0.00  0.00     0.210 HD
ENDBRANCH   2  26
BRANCH   3  28
HETATM   28  O   UNK N   1      34.287  18.967   8.175  0.00  0.00    -0.388 OA
HETATM   29  H   UNK N   1      33.953  19.338   9.007  0.00  0.00     0.210 HD
ENDBRANCH   3  28
BRANCH   5  30
HETATM   30  O   UNK N   1      31.996  17.593   7.242  0.00  0.00    -0.348 OA
BRANCH  30  31
HETATM   31  C   UNK N   1      30.813  16.772   7.191  0.00  0.00     0.187 C 
HETATM   32  C   UNK N   1      29.870  16.948   5.940  0.00  0.00     0.180 C 
HETATM   33  O   UNK N   1      29.262  18.235   5.891  0.00  0.00    -0.349 OA
HETATM   34  C   UNK N   1      28.475  18.521   7.039  0.00  0.00     0.288 C 
HETATM   35  C   UNK N   1      29.306  18.438   8.327  0.00  0.00     0.204 C 
HETATM   36  C   UNK N   1      29.955  17.056   8.438  0.00  0.00     0.183 C 
BRANCH  32  37
HETATM   37  C   UNK N   1      28.832  15.819   5.838  0.00  0.00     0.198 C 
BRANCH  37  38
HETATM   38  O   UNK N   1      28.037  15.975   4.700  0.00  0.00    -0.398 OA
HETATM   39  H   UNK N   1      27.167  15.654   4.414  0.00  0.00     0.209 HD
ENDBRANCH  37  38
ENDBRANCH  32  37
BRANCH  34  40
HETATM   40  O   UNK N   1      27.346  17.692   7.099  0.00  0.00    -0.369 OA
HETATM   41  H   UNK N   1      26.550  17.601   6.552  0.00  0.00     0.212 HD
ENDBRANCH  34  40
BRANCH  35  42
HETATM   42  O   UNK N   1      28.489  18.680   9.435  0.00  0.00    -0.388 OA
HETATM   43  H   UNK N   1      28.429  18.084  10.197  0.00  0.00     0.210 HD
ENDBRANCH  35  42
BRANCH  36  44
HETATM   44  O   UNK N   1      30.736  16.976   9.595  0.00  0.00    -0.390 OA
HETATM   45  H   UNK N   1      30.439  16.640  10.454  0.00  0.00     0.210 HD
ENDBRANCH  36  44
ENDBRANCH  30  31
ENDBRANCH   5  30
TORSDOF 18
ENDMDL
MODEL 6
REMARK VINA RESULT:      -6.2      2.650      4.877
REMARK  18 active torsions:
REMARK  status: ('A' for Active; 'I' for Inactive)
REMARK    1  A    between atoms: C_4  and  C_1 
REMARK    2  A    between atoms: O_19  and  C_1 
REMARK    3  A    between atoms: C_5  and  C_2 
REMARK    4  A    between atoms: O_20  and  C_2 
REMARK    5  A    between atoms: C_6  and  C_3 
REMARK    6  A    between atoms: O_21  and  C_3 
REMARK    7  A    between atoms: C_7  and  O_22 
REMARK    8  A    between atoms: C_8  and  O_23 
REMARK    9  A    between atoms: C_9  and  O_24 
REMARK   10  A    between atoms: C_10  and  O_25 
REMARK   11  A    between atoms: C_11  and  O_26 
REMARK   12  A    between atoms: C_12  and  O_27 
REMARK   13  A    between atoms: C_13  and  O_28 
REMARK   14  A    between atoms: C_14  and  O_33 
REMARK   15  A    between atoms: C_15  and  O_34 
REMARK   16  A    between atoms: C_16  and  O_29 
REMARK   17  A    between atoms: C_17  and  O_34 
REMARK   18  A    between atoms: C_18  and  O_33 
ROOT
HETATM    1  C   UNK N   1      34.877  12.572   9.999  0.00  0.00     0.180 C 
HETATM    2  C   UNK N   1      36.406  13.881  11.440  0.00  0.00     0.183 C 
HETATM    3  C   UNK N   1      37.286  14.069  10.194  0.00  0.00     0.204 C 
HETATM    4  C   UNK N   1      35.603  12.551  11.364  0.00  0.00     0.187 C 
HETATM    5  C   UNK N   1      36.470  13.932   8.879  0.00  0.00     0.292 C 
HETATM    6  O   UNK N   1      35.764  12.701   8.900  0.00  0.00    -0.348 OA
ENDROOT
BRANCH   4   7
HETATM    7  O   UNK N   1      36.438  11.401  11.540  0.00  0.00    -0.348 OA
BRANCH   7   8
HETATM    8  C   UNK N   1      36.194  10.791  12.813  0.00  0.00     0.292 C 
HETATM    9  C   UNK N   1      35.141   9.669  12.695  0.00  0.00     0.204 C 
HETATM   10  C   UNK N   1      34.853   9.089  14.103  0.00  0.00     0.183 C 
HETATM   11  C   UNK N   1      34.456  10.225  15.060  0.00  0.00     0.180 C 
HETATM   12  C   UNK N   1      35.560  11.297  15.021  0.00  0.00     0.179 C 
HETATM   13  O   UNK N   1      35.708  11.776  13.704  0.00  0.00    -0.348 OA
BRANCH   9  14
HETATM   14  O   UNK N   1      35.594   8.658  11.844  0.00  0.00    -0.388 OA
HETATM   15  H   UNK N   1      36.094   7.906  12.197  0.00  0.00     0.210 HD
ENDBRANCH   9  14
BRANCH  10  16
HETATM   16  O   UNK N   1      35.995   8.445  14.597  0.00  0.00    -0.390 OA
HETATM   17  H   UNK N   1      36.959   8.397  14.686  0.00  0.00     0.210 HD
ENDBRANCH  10  16
BRANCH  11  18
HETATM   18  O   UNK N   1      33.233  10.770  14.652  0.00  0.00    -0.390 OA
HETATM   19  H   UNK N   1      32.264  10.754  14.624  0.00  0.00     0.210 HD
ENDBRANCH  11  18
BRANCH  12  20
HETATM   20  C   UNK N   1      35.250  12.480  15.944  0.00  0.00     0.198 C 
BRANCH  20  21
HETATM   21  O   UNK N   1      34.121  13.183  15.515  0.00  0.00    -0.398 OA
HETATM   22  H   UNK N   1      33.784  13.965  15.048  0.00  0.00     0.209 HD
ENDBRANCH  20  21
ENDBRANCH  12  20
ENDBRANCH   7   8
ENDBRANCH   4   7
BRANCH   1  23
HETATM   23  C   UNK N   1      33.911  11.440   9.675  0.00  0.00     0.198 C 
BRANCH  23  24
HETATM   24  O   UNK N   1      34.603  10.262   9.378  0.00  0.00    -0.398 OA
HETATM   25  H   UNK N   1      35.395   9.764   9.122  0.00  0.00     0.209 HD
ENDBRANCH  23  24
ENDBRANCH   1  23
BRANCH   2  26
HETATM   26  O   UNK N   1      37.180  13.916  12.603  0.00  0.00    -0.390 OA
HETATM   27  H   UNK N   1      36.943  13.360  13.361  0.00  0.00     0.210 HD
ENDBRANCH   2  26
BRANCH   3  28
HETATM   28  O   UNK N   1      37.945  15.305  10.230  0.00  0.00    -0.388 OA
HETATM   29  H   UNK N   1      37.997  15.850   9.429  0.00  0.00     0.210 HD
ENDBRANCH   3  28
BRANCH   5  30
HETATM   30  O   UNK N   1      35.733  15.101   8.477  0.00  0.00    -0.348 OA
BRANCH  30  31
HETATM   31  C   UNK N   1      34.541  15.529   9.163  0.00  0.00     0.187 C 
HETATM   32  C   UNK N   1      33.168  15.318   8.417  0.00  0.00     0.180 C 
HETATM   33  O   UNK N   1      33.057  16.114   7.242  0.00  0.00    -0.349 OA
HETATM   34  C   UNK N   1      33.170  17.507   7.502  0.00  0.00     0.288 C 
HETATM   35  C   UNK N   1      34.506  17.846   8.181  0.00  0.00     0.204 C 
HETATM   36  C   UNK N   1      34.654  17.034   9.470  0.00  0.00     0.183 C 
BRANCH  32  37
HETATM   37  C   UNK N   1      31.967  15.510   9.357  0.00  0.00     0.198 C 
BRANCH  37  38
HETATM   38  O   UNK N   1      32.262  15.050  10.643  0.00  0.00    -0.398 OA
HETATM   39  H   UNK N   1      32.619  14.231  11.019  0.00  0.00     0.209 HD
ENDBRANCH  37  38
ENDBRANCH  32  37
BRANCH  34  40
HETATM   40  O   UNK N   1      32.079  17.974   8.248  0.00  0.00    -0.369 OA
HETATM   41  H   UNK N   1      31.801  17.864   9.171  0.00  0.00     0.212 HD
ENDBRANCH  34  40
BRANCH  35  42
HETATM   42  O   UNK N   1      34.560  19.214   8.462  0.00  0.00    -0.388 OA
HETATM   43  H   UNK N   1      33.995  19.873   8.030  0.00  0.00     0.210 HD
ENDBRANCH  35  42
BRANCH  36  44
HETATM   44  O   UNK N   1      35.878  17.315  10.085  0.00  0.00    -0.390 OA
HETATM   45  H   UNK N   1      36.547  17.932   9.752  0.00  0.00     0.210 HD
ENDBRANCH  36  44
ENDBRANCH  30  31
ENDBRANCH   5  30
TORSDOF 18
ENDMDL
MODEL 7
REMARK VINA RESULT:      -6.2      2.935      9.705
REMARK  18 active torsions:
REMARK  status: ('A' for Active; 'I' for Inactive)
REMARK    1  A    between atoms: C_4  and  C_1 
REMARK    2  A    between atoms: O_19  and  C_1 
REMARK    3  A    between atoms: C_5  and  C_2 
REMARK    4  A    between atoms: O_20  and  C_2 
REMARK    5  A    between atoms: C_6  and  C_3 
REMARK    6  A    between atoms: O_21  and  C_3 
REMARK    7  A    between atoms: C_7  and  O_22 
REMARK    8  A    between atoms: C_8  and  O_23 
REMARK    9  A    between atoms: C_9  and  O_24 
REMARK   10  A    between atoms: C_10  and  O_25 
REMARK   11  A    between atoms: C_11  and  O_26 
REMARK   12  A    between atoms: C_12  and  O_27 
REMARK   13  A    between atoms: C_13  and  O_28 
REMARK   14  A    between atoms: C_14  and  O_33 
REMARK   15  A    between atoms: C_15  and  O_34 
REMARK   16  A    between atoms: C_16  and  O_29 
REMARK   17  A    between atoms: C_17  and  O_34 
REMARK   18  A    between atoms: C_18  and  O_33 
ROOT
HETATM    1  C   UNK N   1      29.031  16.622   6.167  0.00  0.00     0.180 C 
HETATM    2  C   UNK N   1      29.934  16.524   3.864  0.00  0.00     0.183 C 
HETATM    3  C   UNK N   1      31.256  17.047   4.448  0.00  0.00     0.204 C 
HETATM    4  C   UNK N   1      28.718  17.010   4.703  0.00  0.00     0.187 C 
HETATM    5  C   UNK N   1      31.396  16.716   5.960  0.00  0.00     0.292 C 
HETATM    6  O   UNK N   1      30.243  17.183   6.643  0.00  0.00    -0.348 OA
ENDROOT
BRANCH   4   7
HETATM    7  O   UNK N   1      28.465  18.409   4.534  0.00  0.00    -0.348 OA
BRANCH   7   8
HETATM    8  C   UNK N   1      27.155  18.624   3.996  0.00  0.00     0.292 C 
HETATM    9  C   UNK N   1      26.405  19.716   4.787  0.00  0.00     0.204 C 
HETATM   10  C   UNK N   1      24.970  19.862   4.221  0.00  0.00     0.183 C 
HETATM   11  C   UNK N   1      24.270  18.493   4.224  0.00  0.00     0.180 C 
HETATM   12  C   UNK N   1      25.161  17.494   3.464  0.00  0.00     0.179 C 
HETATM   13  O   UNK N   1      26.424  17.417   4.087  0.00  0.00    -0.348 OA
BRANCH   9  14
HETATM   14  O   UNK N   1      27.081  20.935   4.700  0.00  0.00    -0.388 OA
HETATM   15  H   UNK N   1      27.995  21.014   5.015  0.00  0.00     0.210 HD
ENDBRANCH   9  14
BRANCH  10  16
HETATM   16  O   UNK N   1      25.021  20.353   2.910  0.00  0.00    -0.390 OA
HETATM   17  H   UNK N   1      25.177  20.207   1.965  0.00  0.00     0.210 HD
ENDBRANCH  10  16
BRANCH  11  18
HETATM   18  O   UNK N   1      24.082  18.070   5.545  0.00  0.00    -0.390 OA
HETATM   19  H   UNK N   1      23.696  18.188   6.427  0.00  0.00     0.210 HD
ENDBRANCH  11  18
BRANCH  12  20
HETATM   20  C   UNK N   1      24.548  16.091   3.417  0.00  0.00     0.198 C 
BRANCH  20  21
HETATM   21  O   UNK N   1      24.848  15.362   4.571  0.00  0.00    -0.398 OA
HETATM   22  H   UNK N   1      24.512  14.769   5.263  0.00  0.00     0.209 HD
ENDBRANCH  20  21
ENDBRANCH  12  20
ENDBRANCH   7   8
ENDBRANCH   4   7
BRANCH   1  23
HETATM   23  C   UNK N   1      27.965  16.870   7.226  0.00  0.00     0.198 C 
BRANCH  23  24
HETATM   24  O   UNK N   1      26.682  16.725   6.688  0.00  0.00    -0.398 OA
HETATM   25  H   UNK N   1      25.757  16.991   6.571  0.00  0.00     0.209 HD
ENDBRANCH  23  24
ENDBRANCH   1  23
BRANCH   2  26
HETATM   26  O   UNK N   1      29.792  16.916   2.530  0.00  0.00    -0.390 OA
HETATM   27  H   UNK N   1      30.469  16.677   1.879  0.00  0.00     0.210 HD
ENDBRANCH   2  26
BRANCH   3  28
HETATM   28  O   UNK N   1      32.352  16.541   3.737  0.00  0.00    -0.388 OA
HETATM   29  H   UNK N   1      32.252  16.291   2.805  0.00  0.00     0.210 HD
ENDBRANCH   3  28
BRANCH   5  30
HETATM   30  O   UNK N   1      31.843  15.383   6.268  0.00  0.00    -0.348 OA
BRANCH  30  31
HETATM   31  C   UNK N   1      32.848  15.124   7.268  0.00  0.00     0.187 C 
HETATM   32  C   UNK N   1      32.427  15.319   8.775  0.00  0.00     0.180 C 
HETATM   33  O   UNK N   1      32.132  16.676   9.088  0.00  0.00    -0.349 OA
HETATM   34  C   UNK N   1      33.226  17.552   8.853  0.00  0.00     0.288 C 
HETATM   35  C   UNK N   1      33.690  17.494   7.391  0.00  0.00     0.204 C 
HETATM   36  C   UNK N   1      34.051  16.053   7.017  0.00  0.00     0.183 C 
BRANCH  32  37
HETATM   37  C   UNK N   1      33.460  14.718   9.742  0.00  0.00     0.198 C 
BRANCH  37  38
HETATM   38  O   UNK N   1      33.082  14.933  11.070  0.00  0.00    -0.398 OA
HETATM   39  H   UNK N   1      33.034  14.390  11.872  0.00  0.00     0.209 HD
ENDBRANCH  37  38
ENDBRANCH  32  37
BRANCH  34  40
HETATM   40  O   UNK N   1      34.281  17.295   9.740  0.00  0.00    -0.369 OA
HETATM   41  H   UNK N   1      35.215  17.555   9.765  0.00  0.00     0.212 HD
ENDBRANCH  34  40
BRANCH  35  42
HETATM   42  O   UNK N   1      34.794  18.332   7.210  0.00  0.00    -0.388 OA
HETATM   43  H   UNK N   1      34.953  19.130   7.737  0.00  0.00     0.210 HD
ENDBRANCH  35  42
BRANCH  36  44
HETATM   44  O   UNK N   1      34.450  15.982   5.679  0.00  0.00    -0.390 OA
HETATM   45  H   UNK N   1      34.331  16.681   5.018  0.00  0.00     0.210 HD
ENDBRANCH  36  44
ENDBRANCH  30  31
ENDBRANCH   5  30
TORSDOF 18
ENDMDL
MODEL 8
REMARK VINA RESULT:      -6.1      2.387      8.469
REMARK  18 active torsions:
REMARK  status: ('A' for Active; 'I' for Inactive)
REMARK    1  A    between atoms: C_4  and  C_1 
REMARK    2  A    between atoms: O_19  and  C_1 
REMARK    3  A    between atoms: C_5  and  C_2 
REMARK    4  A    between atoms: O_20  and  C_2 
REMARK    5  A    between atoms: C_6  and  C_3 
REMARK    6  A    between atoms: O_21  and  C_3 
REMARK    7  A    between atoms: C_7  and  O_22 
REMARK    8  A    between atoms: C_8  and  O_23 
REMARK    9  A    between atoms: C_9  and  O_24 
REMARK   10  A    between atoms: C_10  and  O_25 
REMARK   11  A    between atoms: C_11  and  O_26 
REMARK   12  A    between atoms: C_12  and  O_27 
REMARK   13  A    between atoms: C_13  and  O_28 
REMARK   14  A    between atoms: C_14  and  O_33 
REMARK   15  A    between atoms: C_15  and  O_34 
REMARK   16  A    between atoms: C_16  and  O_29 
REMARK   17  A    between atoms: C_17  and  O_34 
REMARK   18  A    between atoms: C_18  and  O_33 
ROOT
HETATM    1  C   UNK N   1      35.108  12.924   9.991  0.00  0.00     0.180 C 
HETATM    2  C   UNK N   1      36.448  14.800  10.891  0.00  0.00     0.183 C 
HETATM    3  C   UNK N   1      35.966  14.368  12.285  0.00  0.00     0.204 C 
HETATM    4  C   UNK N   1      35.407  14.428   9.796  0.00  0.00     0.187 C 
HETATM    5  C   UNK N   1      35.563  12.867  12.322  0.00  0.00     0.292 C 
HETATM    6  O   UNK N   1      34.624  12.617  11.288  0.00  0.00    -0.348 OA
ENDROOT
BRANCH   4   7
HETATM    7  O   UNK N   1      34.235  15.248   9.860  0.00  0.00    -0.348 OA
BRANCH   7   8
HETATM    8  C   UNK N   1      33.976  15.856   8.590  0.00  0.00     0.292 C 
HETATM    9  C   UNK N   1      33.806  17.384   8.732  0.00  0.00     0.204 C 
HETATM   10  C   UNK N   1      33.453  17.989   7.351  0.00  0.00     0.183 C 
HETATM   11  C   UNK N   1      32.222  17.273   6.770  0.00  0.00     0.180 C 
HETATM   12  C   UNK N   1      32.508  15.760   6.753  0.00  0.00     0.179 C 
HETATM   13  O   UNK N   1      32.780  15.315   8.063  0.00  0.00    -0.348 OA
BRANCH   9  14
HETATM   14  O   UNK N   1      34.978  17.963   9.224  0.00  0.00    -0.388 OA
HETATM   15  H   UNK N   1      34.964  18.481  10.044  0.00  0.00     0.210 HD
ENDBRANCH   9  14
BRANCH  10  16
HETATM   16  O   UNK N   1      34.533  17.839   6.472  0.00  0.00    -0.390 OA
HETATM   17  H   UNK N   1      35.290  17.324   6.153  0.00  0.00     0.210 HD
ENDBRANCH  10  16
BRANCH  11  18
HETATM   18  O   UNK N   1      31.105  17.549   7.566  0.00  0.00    -0.390 OA
HETATM   19  H   UNK N   1      30.241  17.968   7.700  0.00  0.00     0.210 HD
ENDBRANCH  11  18
BRANCH  12  20
HETATM   20  C   UNK N   1      31.331  14.955   6.193  0.00  0.00     0.198 C 
BRANCH  20  21
HETATM   21  O   UNK N   1      31.503  13.584   6.401  0.00  0.00    -0.398 OA
HETATM   22  H   UNK N   1      31.987  12.894   6.881  0.00  0.00     0.209 HD
ENDBRANCH  20  21
ENDBRANCH  12  20
ENDBRANCH   7   8
ENDBRANCH   4   7
BRANCH   1  23
HETATM   23  C   UNK N   1      34.196  12.231   8.987  0.00  0.00     0.198 C 
BRANCH  23  24
HETATM   24  O   UNK N   1      32.869  12.640   9.154  0.00  0.00    -0.398 OA
HETATM   25  H   UNK N   1      32.087  13.164   8.917  0.00  0.00     0.209 HD
ENDBRANCH  23  24
ENDBRANCH   1  23
BRANCH   2  26
HETATM   26  O   UNK N   1      36.715  16.172  10.862  0.00  0.00    -0.390 OA
HETATM   27  H   UNK N   1      36.249  16.744  10.234  0.00  0.00     0.210 HD
ENDBRANCH   2  26
BRANCH   3  28
HETATM   28  O   UNK N   1      36.941  14.633  13.256  0.00  0.00    -0.388 OA
HETATM   29  H   UNK N   1      37.716  15.171  13.030  0.00  0.00     0.210 HD
ENDBRANCH   3  28
BRANCH   5  30
HETATM   30  O   UNK N   1      36.649  11.933  12.460  0.00  0.00    -0.348 OA
BRANCH  30  31
HETATM   31  C   UNK N   1      36.634  10.883  13.447  0.00  0.00     0.187 C 
HETATM   32  C   UNK N   1      35.406   9.894  13.425  0.00  0.00     0.180 C 
HETATM   33  O   UNK N   1      34.180  10.539  13.753  0.00  0.00    -0.349 OA
HETATM   34  C   UNK N   1      34.196  11.141  15.040  0.00  0.00     0.288 C 
HETATM   35  C   UNK N   1      35.323  12.177  15.164  0.00  0.00     0.204 C 
HETATM   36  C   UNK N   1      36.670  11.518  14.850  0.00  0.00     0.183 C 
BRANCH  32  37
HETATM   37  C   UNK N   1      35.653   8.652  14.296  0.00  0.00     0.198 C 
BRANCH  37  38
HETATM   38  O   UNK N   1      36.846   8.020  13.936  0.00  0.00    -0.398 OA
HETATM   39  H   UNK N   1      37.107   7.359  13.276  0.00  0.00     0.209 HD
ENDBRANCH  37  38
ENDBRANCH  32  37
BRANCH  34  40
HETATM   40  O   UNK N   1      34.271  10.174  16.052  0.00  0.00    -0.369 OA
HETATM   41  H   UNK N   1      33.609   9.643  16.523  0.00  0.00     0.212 HD
ENDBRANCH  34  40
BRANCH  35  42
HETATM   42  O   UNK N   1      35.336  12.712  16.455  0.00  0.00    -0.388 OA
HETATM   43  H   UNK N   1      35.184  12.186  17.255  0.00  0.00     0.210 HD
ENDBRANCH  35  42
BRANCH  36  44
HETATM   44  O   UNK N   1      37.702  12.457  14.934  0.00  0.00    -0.390 OA
HETATM   45  H   UNK N   1      37.603  13.380  15.212  0.00  0.00     0.210 HD
ENDBRANCH  36  44
ENDBRANCH  30  31
ENDBRANCH   5  30
TORSDOF 18
ENDMDL
MODEL 9
REMARK VINA RESULT:      -6.0      1.819      3.827
REMARK  18 active torsions:
REMARK  status: ('A' for Active; 'I' for Inactive)
REMARK    1  A    between atoms: C_4  and  C_1 
REMARK    2  A    between atoms: O_19  and  C_1 
REMARK    3  A    between atoms: C_5  and  C_2 
REMARK    4  A    between atoms: O_20  and  C_2 
REMARK    5  A    between atoms: C_6  and  C_3 
REMARK    6  A    between atoms: O_21  and  C_3 
REMARK    7  A    between atoms: C_7  and  O_22 
REMARK    8  A    between atoms: C_8  and  O_23 
REMARK    9  A    between atoms: C_9  and  O_24 
REMARK   10  A    between atoms: C_10  and  O_25 
REMARK   11  A    between atoms: C_11  and  O_26 
REMARK   12  A    between atoms: C_12  and  O_27 
REMARK   13  A    between atoms: C_13  and  O_28 
REMARK   14  A    between atoms: C_14  and  O_33 
REMARK   15  A    between atoms: C_15  and  O_34 
REMARK   16  A    between atoms: C_16  and  O_29 
REMARK   17  A    between atoms: C_17  and  O_34 
REMARK   18  A    between atoms: C_18  and  O_33 
ROOT
HETATM    1  C   UNK N   1      32.898  15.548   6.727  0.00  0.00     0.180 C 
HETATM    2  C   UNK N   1      31.895  15.381   8.984  0.00  0.00     0.183 C 
HETATM    3  C   UNK N   1      31.486  16.854   8.822  0.00  0.00     0.204 C 
HETATM    4  C   UNK N   1      33.180  15.062   8.168  0.00  0.00     0.187 C 
HETATM    5  C   UNK N   1      31.368  17.263   7.327  0.00  0.00     0.292 C 
HETATM    6  O   UNK N   1      32.574  16.927   6.660  0.00  0.00    -0.348 OA
ENDROOT
BRANCH   4   7
HETATM    7  O   UNK N   1      34.350  15.653   8.742  0.00  0.00    -0.348 OA
BRANCH   7   8
HETATM    8  C   UNK N   1      35.249  14.641   9.210  0.00  0.00     0.292 C 
HETATM    9  C   UNK N   1      35.754  14.965  10.633  0.00  0.00     0.204 C 
HETATM   10  C   UNK N   1      36.778  13.887  11.068  0.00  0.00     0.183 C 
HETATM   11  C   UNK N   1      37.895  13.778  10.016  0.00  0.00     0.180 C 
HETATM   12  C   UNK N   1      37.242  13.526   8.645  0.00  0.00     0.179 C 
HETATM   13  O   UNK N   1      36.361  14.583   8.338  0.00  0.00    -0.348 OA
BRANCH   9  14
HETATM   14  O   UNK N   1      34.687  15.004  11.533  0.00  0.00    -0.388 OA
HETATM   15  H   UNK N   1      34.811  15.361  12.427  0.00  0.00     0.210 HD
ENDBRANCH   9  14
BRANCH  10  16
HETATM   16  O   UNK N   1      36.141  12.646  11.198  0.00  0.00    -0.390 OA
HETATM   17  H   UNK N   1      35.328  12.124  11.270  0.00  0.00     0.210 HD
ENDBRANCH  10  16
BRANCH  11  18
HETATM   18  O   UNK N   1      38.630  14.968   9.994  0.00  0.00    -0.390 OA
HETATM   19  H   UNK N   1      39.473  15.446  10.028  0.00  0.00     0.210 HD
ENDBRANCH  11  18
BRANCH  12  20
HETATM   20  C   UNK N   1      38.279  13.407   7.524  0.00  0.00     0.198 C 
BRANCH  20  21
HETATM   21  O   UNK N   1      39.537  13.059   8.023  0.00  0.00    -0.398 OA
HETATM   22  H   UNK N   1      40.487  13.257   8.030  0.00  0.00     0.209 HD
ENDBRANCH  20  21
ENDBRANCH  12  20
ENDBRANCH   7   8
ENDBRANCH   4   7
BRANCH   1  23
HETATM   23  C   UNK N   1      33.940  15.270   5.652  0.00  0.00     0.198 C 
BRANCH  23  24
HETATM   24  O   UNK N   1      35.133  15.946   5.927  0.00  0.00    -0.398 OA
HETATM   25  H   UNK N   1      36.040  15.999   6.269  0.00  0.00     0.209 HD
ENDBRANCH  23  24
ENDBRANCH   1  23
BRANCH   2  26
HETATM   26  O   UNK N   1      32.085  15.066  10.332  0.00  0.00    -0.390 OA
HETATM   27  H   UNK N   1      32.751  14.411  10.589  0.00  0.00     0.210 HD
ENDBRANCH   2  26
BRANCH   3  28
HETATM   28  O   UNK N   1      30.285  17.117   9.493  0.00  0.00    -0.388 OA
HETATM   29  H   UNK N   1      30.297  17.355  10.433  0.00  0.00     0.210 HD
ENDBRANCH   3  28
BRANCH   5  30
HETATM   30  O   UNK N   1      30.137  16.899   6.676  0.00  0.00    -0.348 OA
BRANCH  30  31
HETATM   31  C   UNK N   1      29.355  17.852   5.929  0.00  0.00     0.187 C 
HETATM   32  C   UNK N   1      27.796  17.838   6.158  0.00  0.00     0.180 C 
HETATM   33  O   UNK N   1      27.188  16.633   5.704  0.00  0.00    -0.349 OA
HETATM   34  C   UNK N   1      27.400  16.391   4.320  0.00  0.00     0.288 C 
HETATM   35  C   UNK N   1      28.896  16.323   3.982  0.00  0.00     0.204 C 
HETATM   36  C   UNK N   1      29.587  17.616   4.424  0.00  0.00     0.183 C 
BRANCH  32  37
HETATM   37  C   UNK N   1      27.116  19.082   5.564  0.00  0.00     0.198 C 
BRANCH  37  38
HETATM   38  O   UNK N   1      25.735  19.043   5.775  0.00  0.00    -0.398 OA
HETATM   39  H   UNK N   1      24.986  19.623   5.564  0.00  0.00     0.209 HD
ENDBRANCH  37  38
ENDBRANCH  32  37
BRANCH  34  40
HETATM   40  O   UNK N   1      26.735  17.340   3.532  0.00  0.00    -0.369 OA
HETATM   41  H   UNK N   1      26.239  18.150   3.732  0.00  0.00     0.212 HD
ENDBRANCH  34  40
BRANCH  35  42
HETATM   42  O   UNK N   1      29.063  16.131   2.608  0.00  0.00    -0.388 OA
HETATM   43  H   UNK N   1      29.022  16.848   1.957  0.00  0.00     0.210 HD
ENDBRANCH  35  42
BRANCH  36  44
HETATM   44  O   UNK N   1      30.956  17.557   4.145  0.00  0.00    -0.390 OA
HETATM   45  H   UNK N   1      31.492  16.750   4.126  0.00  0.00     0.210 HD
ENDBRANCH  36  44
ENDBRANCH  30  31
ENDBRANCH   5  30
TORSDOF 18
ENDMDL
