MODEL 1
REMARK VINA RESULT:      -4.7      0.000      0.000
REMARK  3 active torsions:
REMARK  status: ('A' for Active; 'I' for Inactive)
REMARK    1  A    between atoms: C_4  and  N_7 
REMARK    2  A    between atoms: C_5  and  C_6 
REMARK    3  A    between atoms: O_10  and  C_6 
ROOT
HETATM    1  C   UNK N   1      22.683  18.846   4.135  0.00  0.00     0.012 C 
HETATM    2  C   UNK N   1      21.009  17.657   2.670  0.00  0.00     0.052 C 
HETATM    3  C   UNK N   1      21.221  18.661   3.763  0.00  0.00     0.018 C 
HETATM    4  C   UNK N   1      19.548  17.918   2.352  0.00  0.00     0.170 C 
HETATM    5  C   UNK N   1      20.504  19.888   3.193  0.00  0.00     0.180 C 
HETATM    6  N   UNK N   1      19.325  19.361   2.492  0.00  0.00    -0.388 N 
HETATM    7  H   UNK N   1      18.516  19.891   2.169  0.00  0.00     0.156 HD
ENDROOT
BRANCH   5   8
HETATM    8  C   UNK N   1      21.354  20.703   2.234  0.00  0.00     0.163 C 
HETATM    9  O   UNK N   1      21.385  20.437   1.044  0.00  0.00    -0.648 OA
BRANCH   8  10
HETATM   10  O   UNK N   1      22.049  21.764   2.693  0.00  0.00    -0.775 OA
HETATM   11  H   UNK N   1      22.937  21.911   2.430  0.00  0.00     0.167 HD
ENDBRANCH   8  10
ENDBRANCH   5   8
BRANCH   4  12
HETATM   12  N   UNK N   1      19.227  17.478   1.007  0.00  0.00    -0.411 N 
HETATM   13  H   UNK N   1      18.391  17.659   0.450  0.00  0.00     0.151 HD
HETATM   14  H   UNK N   1      19.938  16.906   0.553  0.00  0.00     0.151 HD
ENDBRANCH   4  12
TORSDOF 3
ENDMDL
MODEL 2
REMARK VINA RESULT:      -4.5      2.309      3.182
REMARK  3 active torsions:
REMARK  status: ('A' for Active; 'I' for Inactive)
REMARK    1  A    between atoms: C_4  and  N_7 
REMARK    2  A    between atoms: C_5  and  C_6 
REMARK    3  A    between atoms: O_10  and  C_6 
ROOT
HETATM    1  C   UNK N   1      21.509  18.909   4.570  0.00  0.00     0.012 C 
HETATM    2  C   UNK N   1      21.144  20.551   2.690  0.00  0.00     0.052 C 
HETATM    3  C   UNK N   1      21.560  19.162   3.072  0.00  0.00     0.018 C 
HETATM    4  C   UNK N   1      21.028  20.387   1.185  0.00  0.00     0.170 C 
HETATM    5  C   UNK N   1      20.622  18.314   2.207  0.00  0.00     0.180 C 
HETATM    6  N   UNK N   1      20.501  19.041   0.935  0.00  0.00    -0.388 N 
HETATM    7  H   UNK N   1      20.125  18.682   0.058  0.00  0.00     0.156 HD
ENDROOT
BRANCH   5   8
HETATM    8  C   UNK N   1      19.247  18.107   2.818  0.00  0.00     0.163 C 
HETATM    9  O   UNK N   1      19.073  17.289   3.706  0.00  0.00    -0.648 OA
BRANCH   8  10
HETATM   10  O   UNK N   1      18.212  18.866   2.407  0.00  0.00    -0.775 OA
HETATM   11  H   UNK N   1      17.336  18.684   2.687  0.00  0.00     0.167 HD
ENDBRANCH   8  10
ENDBRANCH   5   8
BRANCH   4  12
HETATM   12  N   UNK N   1      20.147  21.395   0.624  0.00  0.00    -0.411 N 
HETATM   13  H   UNK N   1      20.264  21.958  -0.219  0.00  0.00     0.151 HD
HETATM   14  H   UNK N   1      19.289  21.566   1.148  0.00  0.00     0.151 HD
ENDBRANCH   4  12
TORSDOF 3
ENDMDL
MODEL 3
REMARK VINA RESULT:      -4.3     10.264     11.576
REMARK  3 active torsions:
REMARK  status: ('A' for Active; 'I' for Inactive)
REMARK    1  A    between atoms: C_4  and  N_7 
REMARK    2  A    between atoms: C_5  and  C_6 
REMARK    3  A    between atoms: O_10  and  C_6 
ROOT
HETATM    1  C   UNK N   1      28.533  17.065   6.569  0.00  0.00     0.012 C 
HETATM    2  C   UNK N   1      30.821  16.575   7.511  0.00  0.00     0.052 C 
HETATM    3  C   UNK N   1      29.811  17.629   7.169  0.00  0.00     0.018 C 
HETATM    4  C   UNK N   1      31.803  17.403   8.321  0.00  0.00     0.170 C 
HETATM    5  C   UNK N   1      29.669  18.360   8.507  0.00  0.00     0.180 C 
HETATM    6  N   UNK N   1      31.018  18.375   9.089  0.00  0.00    -0.388 N 
HETATM    7  H   UNK N   1      31.343  18.946   9.869  0.00  0.00     0.156 HD
ENDROOT
BRANCH   5   8
HETATM    8  C   UNK N   1      28.699  17.695   9.468  0.00  0.00     0.163 C 
HETATM    9  O   UNK N   1      29.093  16.899  10.305  0.00  0.00    -0.648 OA
BRANCH   8  10
HETATM   10  O   UNK N   1      27.391  18.019   9.430  0.00  0.00    -0.775 OA
HETATM   11  H   UNK N   1      27.108  18.853   9.108  0.00  0.00     0.167 HD
ENDBRANCH   8  10
ENDBRANCH   5   8
BRANCH   4  12
HETATM   12  N   UNK N   1      32.581  16.557   9.207  0.00  0.00    -0.411 N 
HETATM   13  H   UNK N   1      32.388  15.609   9.531  0.00  0.00     0.151 HD
HETATM   14  H   UNK N   1      33.446  16.971   9.557  0.00  0.00     0.151 HD
ENDBRANCH   4  12
TORSDOF 3
ENDMDL
MODEL 4
REMARK VINA RESULT:      -4.3     12.705     13.902
REMARK  3 active torsions:
REMARK  status: ('A' for Active; 'I' for Inactive)
REMARK    1  A    between atoms: C_4  and  N_7 
REMARK    2  A    between atoms: C_5  and  C_6 
REMARK    3  A    between atoms: O_10  and  C_6 
ROOT
HETATM    1  C   UNK N   1      35.076  15.417   8.618  0.00  0.00     0.012 C 
HETATM    2  C   UNK N   1      32.763  15.670   7.644  0.00  0.00     0.052 C 
HETATM    3  C   UNK N   1      33.666  15.951   8.808  0.00  0.00     0.018 C 
HETATM    4  C   UNK N   1      31.580  16.548   8.008  0.00  0.00     0.170 C 
HETATM    5  C   UNK N   1      33.526  17.470   8.941  0.00  0.00     0.180 C 
HETATM    6  N   UNK N   1      32.118  17.761   8.634  0.00  0.00    -0.388 N 
HETATM    7  H   UNK N   1      31.617  18.631   8.818  0.00  0.00     0.156 HD
ENDROOT
BRANCH   5   8
HETATM    8  C   UNK N   1      34.432  18.252   8.007  0.00  0.00     0.163 C 
HETATM    9  O   UNK N   1      34.368  18.098   6.798  0.00  0.00    -0.648 OA
BRANCH   8  10
HETATM   10  O   UNK N   1      35.287  19.164   8.512  0.00  0.00    -0.775 OA
HETATM   11  H   UNK N   1      35.976  19.524   7.988  0.00  0.00     0.167 HD
ENDBRANCH   8  10
ENDBRANCH   5   8
BRANCH   4  12
HETATM   12  N   UNK N   1      30.803  16.881   6.829  0.00  0.00    -0.411 N 
HETATM   13  H   UNK N   1      29.875  17.299   6.764  0.00  0.00     0.151 HD
HETATM   14  H   UNK N   1      31.248  16.666   5.937  0.00  0.00     0.151 HD
ENDBRANCH   4  12
TORSDOF 3
ENDMDL
MODEL 5
REMARK VINA RESULT:      -4.2     14.844     16.089
REMARK  3 active torsions:
REMARK  status: ('A' for Active; 'I' for Inactive)
REMARK    1  A    between atoms: C_4  and  N_7 
REMARK    2  A    between atoms: C_5  and  C_6 
REMARK    3  A    between atoms: O_10  and  C_6 
ROOT
HETATM    1  C   UNK N   1      36.164  14.220   8.400  0.00  0.00     0.012 C 
HETATM    2  C   UNK N   1      33.758  14.978   8.420  0.00  0.00     0.052 C 
HETATM    3  C   UNK N   1      34.832  14.210   9.131  0.00  0.00     0.018 C 
HETATM    4  C   UNK N   1      32.698  15.017   9.504  0.00  0.00     0.170 C 
HETATM    5  C   UNK N   1      34.810  14.868  10.514  0.00  0.00     0.180 C 
HETATM    6  N   UNK N   1      33.395  15.157  10.787  0.00  0.00    -0.388 N 
HETATM    7  H   UNK N   1      32.982  15.405  11.686  0.00  0.00     0.156 HD
ENDROOT
BRANCH   5   8
HETATM    8  C   UNK N   1      35.624  16.147  10.596  0.00  0.00     0.163 C 
HETATM    9  O   UNK N   1      35.098  17.236  10.428  0.00  0.00    -0.648 OA
BRANCH   8  10
HETATM   10  O   UNK N   1      36.936  16.087  10.903  0.00  0.00    -0.775 OA
HETATM   11  H   UNK N   1      37.585  15.988  10.235  0.00  0.00     0.167 HD
ENDBRANCH   8  10
ENDBRANCH   5   8
BRANCH   4  12
HETATM   12  N   UNK N   1      31.785  16.126   9.293  0.00  0.00    -0.411 N 
HETATM   13  H   UNK N   1      31.989  17.120   9.192  0.00  0.00     0.151 HD
HETATM   14  H   UNK N   1      30.798  15.875   9.239  0.00  0.00     0.151 HD
ENDBRANCH   4  12
TORSDOF 3
ENDMDL
MODEL 6
REMARK VINA RESULT:      -4.2     11.205     12.553
REMARK  3 active torsions:
REMARK  status: ('A' for Active; 'I' for Inactive)
REMARK    1  A    between atoms: C_4  and  N_7 
REMARK    2  A    between atoms: C_5  and  C_6 
REMARK    3  A    between atoms: O_10  and  C_6 
ROOT
HETATM    1  C   UNK N   1      24.954  26.991  -5.698  0.00  0.00     0.012 C 
HETATM    2  C   UNK N   1      26.609  28.765  -5.005  0.00  0.00     0.052 C 
HETATM    3  C   UNK N   1      25.419  27.943  -4.608  0.00  0.00     0.018 C 
HETATM    4  C   UNK N   1      26.981  29.360  -3.660  0.00  0.00     0.170 C 
HETATM    5  C   UNK N   1      25.914  27.299  -3.309  0.00  0.00     0.180 C 
HETATM    6  N   UNK N   1      26.723  28.332  -2.646  0.00  0.00    -0.388 N 
HETATM    7  H   UNK N   1      27.041  28.333  -1.676  0.00  0.00     0.156 HD
ENDROOT
BRANCH   5   8
HETATM    8  C   UNK N   1      26.749  26.049  -3.525  0.00  0.00     0.163 C 
HETATM    9  O   UNK N   1      26.281  24.940  -3.318  0.00  0.00    -0.648 OA
BRANCH   8  10
HETATM   10  O   UNK N   1      28.008  26.158  -3.996  0.00  0.00    -0.775 OA
HETATM   11  H   UNK N   1      28.172  26.351  -4.898  0.00  0.00     0.167 HD
ENDBRANCH   8  10
ENDBRANCH   5   8
BRANCH   4  12
HETATM   12  N   UNK N   1      28.376  29.760  -3.641  0.00  0.00    -0.411 N 
HETATM   13  H   UNK N   1      28.868  30.415  -4.249  0.00  0.00     0.151 HD
HETATM   14  H   UNK N   1      28.946  29.323  -2.917  0.00  0.00     0.151 HD
ENDBRANCH   4  12
TORSDOF 3
ENDMDL
MODEL 7
REMARK VINA RESULT:      -4.1      9.845     10.542
REMARK  3 active torsions:
REMARK  status: ('A' for Active; 'I' for Inactive)
REMARK    1  A    between atoms: C_4  and  N_7 
REMARK    2  A    between atoms: C_5  and  C_6 
REMARK    3  A    between atoms: O_10  and  C_6 
ROOT
HETATM    1  C   UNK N   1      22.901  11.941  12.354  0.00  0.00     0.012 C 
HETATM    2  C   UNK N   1      24.376  12.567  10.406  0.00  0.00     0.052 C 
HETATM    3  C   UNK N   1      23.297  11.659  10.914  0.00  0.00     0.018 C 
HETATM    4  C   UNK N   1      24.329  12.233   8.926  0.00  0.00     0.170 C 
HETATM    5  C   UNK N   1      22.208  11.859   9.857  0.00  0.00     0.180 C 
HETATM    6  N   UNK N   1      22.923  11.999   8.581  0.00  0.00    -0.388 N 
HETATM    7  H   UNK N   1      22.522  11.944   7.644  0.00  0.00     0.156 HD
ENDROOT
BRANCH   5   8
HETATM    8  C   UNK N   1      21.339  13.081  10.099  0.00  0.00     0.163 C 
HETATM    9  O   UNK N   1      21.728  14.197   9.794  0.00  0.00    -0.648 OA
BRANCH   8  10
HETATM   10  O   UNK N   1      20.102  12.931  10.614  0.00  0.00    -0.775 OA
HETATM   11  H   UNK N   1      19.665  13.643  11.039  0.00  0.00     0.167 HD
ENDBRANCH   8  10
ENDBRANCH   5   8
BRANCH   4  12
HETATM   12  N   UNK N   1      24.877  13.319   8.135  0.00  0.00    -0.411 N 
HETATM   13  H   UNK N   1      25.790  13.769   8.200  0.00  0.00     0.151 HD
HETATM   14  H   UNK N   1      24.261  13.685   7.409  0.00  0.00     0.151 HD
ENDBRANCH   4  12
TORSDOF 3
ENDMDL
MODEL 8
REMARK VINA RESULT:      -4.0     18.976     20.023
REMARK  3 active torsions:
REMARK  status: ('A' for Active; 'I' for Inactive)
REMARK    1  A    between atoms: C_4  and  N_7 
REMARK    2  A    between atoms: C_5  and  C_6 
REMARK    3  A    between atoms: O_10  and  C_6 
ROOT
HETATM    1  C   UNK N   1      33.823  11.120  14.697  0.00  0.00     0.012 C 
HETATM    2  C   UNK N   1      35.473  12.830  15.543  0.00  0.00     0.052 C 
HETATM    3  C   UNK N   1      35.272  11.577  14.745  0.00  0.00     0.018 C 
HETATM    4  C   UNK N   1      36.905  13.159  15.162  0.00  0.00     0.170 C 
HETATM    5  C   UNK N   1      35.909  11.962  13.407  0.00  0.00     0.180 C 
HETATM    6  N   UNK N   1      37.074  12.788  13.753  0.00  0.00    -0.388 N 
HETATM    7  H   UNK N   1      37.844  13.051  13.138  0.00  0.00     0.156 HD
ENDROOT
BRANCH   5   8
HETATM    8  C   UNK N   1      34.981  12.736  12.488  0.00  0.00     0.163 C 
HETATM    9  O   UNK N   1      34.810  13.935  12.635  0.00  0.00    -0.648 OA
BRANCH   8  10
HETATM   10  O   UNK N   1      34.371  12.102  11.465  0.00  0.00    -0.775 OA
HETATM   11  H   UNK N   1      33.998  12.582  10.752  0.00  0.00     0.167 HD
ENDBRANCH   8  10
ENDBRANCH   5   8
BRANCH   4  12
HETATM   12  N   UNK N   1      37.179  14.571  15.357  0.00  0.00    -0.411 N 
HETATM   13  H   UNK N   1      36.986  15.358  14.738  0.00  0.00     0.151 HD
HETATM   14  H   UNK N   1      37.631  14.810  16.240  0.00  0.00     0.151 HD
ENDBRANCH   4  12
TORSDOF 3
ENDMDL
MODEL 9
REMARK VINA RESULT:      -3.9     11.750     12.587
REMARK  3 active torsions:
REMARK  status: ('A' for Active; 'I' for Inactive)
REMARK    1  A    between atoms: C_4  and  N_7 
REMARK    2  A    between atoms: C_5  and  C_6 
REMARK    3  A    between atoms: O_10  and  C_6 
ROOT
HETATM    1  C   UNK N   1      27.688  29.444  -5.643  0.00  0.00     0.012 C 
HETATM    2  C   UNK N   1      26.335  27.374  -6.139  0.00  0.00     0.052 C 
HETATM    3  C   UNK N   1      27.589  27.932  -5.536  0.00  0.00     0.018 C 
HETATM    4  C   UNK N   1      26.406  25.947  -5.626  0.00  0.00     0.170 C 
HETATM    5  C   UNK N   1      27.529  27.352  -4.119  0.00  0.00     0.180 C 
HETATM    6  N   UNK N   1      26.970  26.001  -4.273  0.00  0.00    -0.388 N 
HETATM    7  H   UNK N   1      26.974  25.254  -3.579  0.00  0.00     0.156 HD
ENDROOT
BRANCH   5   8
HETATM    8  C   UNK N   1      26.669  28.161  -3.164  0.00  0.00     0.163 C 
HETATM    9  O   UNK N   1      27.178  28.871  -2.311  0.00  0.00    -0.648 OA
BRANCH   8  10
HETATM   10  O   UNK N   1      25.326  28.133  -3.285  0.00  0.00    -0.775 OA
HETATM   11  H   UNK N   1      24.807  27.534  -2.785  0.00  0.00     0.167 HD
ENDBRANCH   8  10
ENDBRANCH   5   8
BRANCH   4  12
HETATM   12  N   UNK N   1      25.088  25.340  -5.608  0.00  0.00    -0.411 N 
HETATM   13  H   UNK N   1      24.586  24.863  -6.357  0.00  0.00     0.151 HD
HETATM   14  H   UNK N   1      24.592  25.399  -4.718  0.00  0.00     0.151 HD
ENDBRANCH   4  12
TORSDOF 3
ENDMDL
