MODEL 1
REMARK VINA RESULT:      -4.7      0.000      0.000
REMARK  17 active torsions:
REMARK  status: ('A' for Active; 'I' for Inactive)
REMARK    1  A    between atoms: C_2  and  C_3 
REMARK    2  A    between atoms: C_3  and  C_4 
REMARK    3  A    between atoms: C_4  and  C_5 
REMARK    4  A    between atoms: C_5  and  C_6 
REMARK    5  A    between atoms: C_6  and  C_7 
REMARK    6  A    between atoms: C_7  and  C_8 
REMARK    7  A    between atoms: C_8  and  C_9 
REMARK    8  A    between atoms: C_9  and  C_10 
REMARK    9  A    between atoms: C_10  and  C_11 
REMARK   10  A    between atoms: C_11  and  C_12 
REMARK   11  A    between atoms: C_12  and  C_13 
REMARK   12  A    between atoms: C_13  and  C_14 
REMARK   13  A    between atoms: C_14  and  C_15 
REMARK   14  A    between atoms: C_15  and  C_16 
REMARK   15  A    between atoms: C_16  and  C_17 
REMARK   16  A    between atoms: C_17  and  C_18 
REMARK   17  A    between atoms: C_18  and  O_19 
ROOT
HETATM    1  C   UNK N   1      30.728  18.417   9.152  0.00  0.00     0.000 C 
ENDROOT
BRANCH   1   2
HETATM    2  C   UNK N   1      29.820  17.248   9.461  0.00  0.00     0.000 C 
BRANCH   2   3
HETATM    3  C   UNK N   1      28.394  17.737   9.431  0.00  0.00     0.000 C 
BRANCH   3   4
HETATM    4  C   UNK N   1      28.128  18.545   8.182  0.00  0.00     0.000 C 
BRANCH   4   5
HETATM    5  C   UNK N   1      27.995  17.561   7.046  0.00  0.00     0.000 C 
BRANCH   5   6
HETATM    6  C   UNK N   1      28.892  17.921   5.885  0.00  0.00     0.000 C 
BRANCH   6   7
HETATM    7  C   UNK N   1      27.988  18.383   4.765  0.00  0.00     0.000 C 
BRANCH   7   8
HETATM    8  C   UNK N   1      28.155  19.860   4.499  0.00  0.00     0.000 C 
BRANCH   8   9
HETATM    9  C   UNK N   1      26.934  20.568   5.045  0.00  0.00    -0.000 C 
BRANCH   9  10
HETATM   10  C   UNK N   1      27.325  21.482   6.184  0.00  0.00    -0.005 C 
HETATM   11  C   UNK N   1      26.206  21.504   7.204  0.00  0.00     0.005 C 
ENDBRANCH   9  10
ENDBRANCH   8   9
ENDBRANCH   7   8
ENDBRANCH   6   7
ENDBRANCH   5   6
ENDBRANCH   4   5
ENDBRANCH   3   4
ENDBRANCH   2   3
ENDBRANCH   1   2
BRANCH   1  12
HETATM   12  C   UNK N   1      31.897  17.924   8.337  0.00  0.00     0.000 C 
BRANCH  12  13
HETATM   13  C   UNK N   1      31.679  16.486   7.922  0.00  0.00     0.000 C 
BRANCH  13  14
HETATM   14  C   UNK N   1      32.884  16.075   7.113  0.00  0.00     0.000 C 
BRANCH  14  15
HETATM   15  C   UNK N   1      34.174  16.399   7.827  0.00  0.00     0.001 C 
BRANCH  15  16
HETATM   16  C   UNK N   1      34.397  15.292   8.831  0.00  0.00     0.010 C 
BRANCH  16  17
HETATM   17  C   UNK N   1      34.467  15.829  10.248  0.00  0.00     0.110 C 
BRANCH  17  18
HETATM   18  C   UNK N   1      35.729  16.611  10.479  0.00  0.00     0.139 C 
HETATM   19  O   UNK N   1      35.761  17.821  10.304  0.00  0.00    -0.650 OA
BRANCH  18  20
HETATM   20  O   UNK N   1      36.839  15.971  10.884  0.00  0.00    -0.776 OA
HETATM   21  H   UNK N   1      36.812  15.050  11.057  0.00  0.00     0.167 HD
ENDBRANCH  18  20
ENDBRANCH  17  18
ENDBRANCH  16  17
ENDBRANCH  15  16
ENDBRANCH  14  15
ENDBRANCH  13  14
ENDBRANCH  12  13
ENDBRANCH   1  12
TORSDOF 17
ENDMDL
MODEL 2
REMARK VINA RESULT:      -4.7     12.099     15.114
REMARK  17 active torsions:
REMARK  status: ('A' for Active; 'I' for Inactive)
REMARK    1  A    between atoms: C_2  and  C_3 
REMARK    2  A    between atoms: C_3  and  C_4 
REMARK    3  A    between atoms: C_4  and  C_5 
REMARK    4  A    between atoms: C_5  and  C_6 
REMARK    5  A    between atoms: C_6  and  C_7 
REMARK    6  A    between atoms: C_7  and  C_8 
REMARK    7  A    between atoms: C_8  and  C_9 
REMARK    8  A    between atoms: C_9  and  C_10 
REMARK    9  A    between atoms: C_10  and  C_11 
REMARK   10  A    between atoms: C_11  and  C_12 
REMARK   11  A    between atoms: C_12  and  C_13 
REMARK   12  A    between atoms: C_13  and  C_14 
REMARK   13  A    between atoms: C_14  and  C_15 
REMARK   14  A    between atoms: C_15  and  C_16 
REMARK   15  A    between atoms: C_16  and  C_17 
REMARK   16  A    between atoms: C_17  and  C_18 
REMARK   17  A    between atoms: C_18  and  O_19 
ROOT
HETATM    1  C   UNK N   1      29.515  27.948  -6.063  0.00  0.00     0.000 C 
ENDROOT
BRANCH   1   2
HETATM    2  C   UNK N   1      28.402  28.456  -6.952  0.00  0.00     0.000 C 
BRANCH   2   3
HETATM    3  C   UNK N   1      27.103  28.340  -6.196  0.00  0.00     0.000 C 
BRANCH   3   4
HETATM    4  C   UNK N   1      27.067  29.309  -5.037  0.00  0.00     0.000 C 
BRANCH   4   5
HETATM    5  C   UNK N   1      26.158  28.707  -3.993  0.00  0.00     0.000 C 
BRANCH   5   6
HETATM    6  C   UNK N   1      25.743  27.301  -4.357  0.00  0.00     0.000 C 
BRANCH   6   7
HETATM    7  C   UNK N   1      26.392  26.382  -3.346  0.00  0.00     0.000 C 
BRANCH   7   8
HETATM    8  C   UNK N   1      26.439  24.959  -3.849  0.00  0.00     0.000 C 
BRANCH   8   9
HETATM    9  C   UNK N   1      25.771  24.927  -5.207  0.00  0.00    -0.000 C 
BRANCH   9  10
HETATM   10  C   UNK N   1      25.874  23.544  -5.808  0.00  0.00    -0.005 C 
HETATM   11  C   UNK N   1      27.258  23.363  -6.393  0.00  0.00     0.005 C 
ENDBRANCH   9  10
ENDBRANCH   8   9
ENDBRANCH   7   8
ENDBRANCH   6   7
ENDBRANCH   5   6
ENDBRANCH   4   5
ENDBRANCH   3   4
ENDBRANCH   2   3
ENDBRANCH   1   2
BRANCH   1  12
HETATM   12  C   UNK N   1      29.272  26.491  -5.763  0.00  0.00     0.000 C 
BRANCH  12  13
HETATM   13  C   UNK N   1      29.940  26.104  -4.462  0.00  0.00     0.000 C 
BRANCH  13  14
HETATM   14  C   UNK N   1      30.092  24.603  -4.475  0.00  0.00     0.000 C 
BRANCH  14  15
HETATM   15  C   UNK N   1      30.843  24.106  -3.263  0.00  0.00     0.001 C 
BRANCH  15  16
HETATM   16  C   UNK N   1      30.109  22.877  -2.780  0.00  0.00     0.010 C 
BRANCH  16  17
HETATM   17  C   UNK N   1      30.652  21.614  -3.421  0.00  0.00     0.110 C 
BRANCH  17  18
HETATM   18  C   UNK N   1      32.136  21.489  -3.221  0.00  0.00     0.139 C 
HETATM   19  O   UNK N   1      32.908  21.576  -4.165  0.00  0.00    -0.650 OA
BRANCH  18  20
HETATM   20  O   UNK N   1      32.621  21.277  -1.985  0.00  0.00    -0.776 OA
HETATM   21  H   UNK N   1      32.606  20.415  -1.618  0.00  0.00     0.167 HD
ENDBRANCH  18  20
ENDBRANCH  17  18
ENDBRANCH  16  17
ENDBRANCH  15  16
ENDBRANCH  14  15
ENDBRANCH  13  14
ENDBRANCH  12  13
ENDBRANCH   1  12
TORSDOF 17
ENDMDL
MODEL 3
REMARK VINA RESULT:      -4.7     12.019     15.358
REMARK  17 active torsions:
REMARK  status: ('A' for Active; 'I' for Inactive)
REMARK    1  A    between atoms: C_2  and  C_3 
REMARK    2  A    between atoms: C_3  and  C_4 
REMARK    3  A    between atoms: C_4  and  C_5 
REMARK    4  A    between atoms: C_5  and  C_6 
REMARK    5  A    between atoms: C_6  and  C_7 
REMARK    6  A    between atoms: C_7  and  C_8 
REMARK    7  A    between atoms: C_8  and  C_9 
REMARK    8  A    between atoms: C_9  and  C_10 
REMARK    9  A    between atoms: C_10  and  C_11 
REMARK   10  A    between atoms: C_11  and  C_12 
REMARK   11  A    between atoms: C_12  and  C_13 
REMARK   12  A    between atoms: C_13  and  C_14 
REMARK   13  A    between atoms: C_14  and  C_15 
REMARK   14  A    between atoms: C_15  and  C_16 
REMARK   15  A    between atoms: C_16  and  C_17 
REMARK   16  A    between atoms: C_17  and  C_18 
REMARK   17  A    between atoms: C_18  and  O_19 
ROOT
HETATM    1  C   UNK N   1      25.822  26.004  -5.124  0.00  0.00     0.000 C 
ENDROOT
BRANCH   1   2
HETATM    2  C   UNK N   1      26.444  25.688  -3.782  0.00  0.00     0.000 C 
BRANCH   2   3
HETATM    3  C   UNK N   1      26.294  26.898  -2.895  0.00  0.00     0.000 C 
BRANCH   3   4
HETATM    4  C   UNK N   1      25.779  28.081  -3.682  0.00  0.00     0.000 C 
BRANCH   4   5
HETATM    5  C   UNK N   1      26.727  29.226  -3.419  0.00  0.00     0.000 C 
BRANCH   5   6
HETATM    6  C   UNK N   1      26.959  30.057  -4.658  0.00  0.00     0.000 C 
BRANCH   6   7
HETATM    7  C   UNK N   1      27.587  29.142  -5.685  0.00  0.00     0.000 C 
BRANCH   7   8
HETATM    8  C   UNK N   1      28.938  29.653  -6.123  0.00  0.00     0.000 C 
BRANCH   8   9
HETATM    9  C   UNK N   1      29.994  28.778  -5.481  0.00  0.00    -0.000 C 
BRANCH   9  10
HETATM   10  C   UNK N   1      29.427  27.410  -5.179  0.00  0.00    -0.005 C 
HETATM   11  C   UNK N   1      30.028  26.902  -3.887  0.00  0.00     0.005 C 
ENDBRANCH   9  10
ENDBRANCH   8   9
ENDBRANCH   7   8
ENDBRANCH   6   7
ENDBRANCH   5   6
ENDBRANCH   4   5
ENDBRANCH   3   4
ENDBRANCH   2   3
ENDBRANCH   1   2
BRANCH   1  12
HETATM   12  C   UNK N   1      26.441  25.113  -6.170  0.00  0.00     0.000 C 
BRANCH  12  13
HETATM   13  C   UNK N   1      27.170  23.961  -5.515  0.00  0.00     0.000 C 
BRANCH  13  14
HETATM   14  C   UNK N   1      28.353  23.634  -6.392  0.00  0.00     0.000 C 
BRANCH  14  15
HETATM   15  C   UNK N   1      29.646  23.637  -5.613  0.00  0.00     0.001 C 
BRANCH  15  16
HETATM   16  C   UNK N   1      29.291  23.249  -4.196  0.00  0.00     0.010 C 
BRANCH  16  17
HETATM   17  C   UNK N   1      30.108  22.062  -3.721  0.00  0.00     0.110 C 
BRANCH  17  18
HETATM   18  C   UNK N   1      30.906  22.398  -2.492  0.00  0.00     0.139 C 
HETATM   19  O   UNK N   1      30.522  23.253  -1.707  0.00  0.00    -0.650 OA
BRANCH  18  20
HETATM   20  O   UNK N   1      32.057  21.747  -2.253  0.00  0.00    -0.776 OA
HETATM   21  H   UNK N   1      32.040  20.866  -1.935  0.00  0.00     0.167 HD
ENDBRANCH  18  20
ENDBRANCH  17  18
ENDBRANCH  16  17
ENDBRANCH  15  16
ENDBRANCH  14  15
ENDBRANCH  13  14
ENDBRANCH  12  13
ENDBRANCH   1  12
TORSDOF 17
ENDMDL
MODEL 4
REMARK VINA RESULT:      -4.7      2.023      3.033
REMARK  17 active torsions:
REMARK  status: ('A' for Active; 'I' for Inactive)
REMARK    1  A    between atoms: C_2  and  C_3 
REMARK    2  A    between atoms: C_3  and  C_4 
REMARK    3  A    between atoms: C_4  and  C_5 
REMARK    4  A    between atoms: C_5  and  C_6 
REMARK    5  A    between atoms: C_6  and  C_7 
REMARK    6  A    between atoms: C_7  and  C_8 
REMARK    7  A    between atoms: C_8  and  C_9 
REMARK    8  A    between atoms: C_9  and  C_10 
REMARK    9  A    between atoms: C_10  and  C_11 
REMARK   10  A    between atoms: C_11  and  C_12 
REMARK   11  A    between atoms: C_12  and  C_13 
REMARK   12  A    between atoms: C_13  and  C_14 
REMARK   13  A    between atoms: C_14  and  C_15 
REMARK   14  A    between atoms: C_15  and  C_16 
REMARK   15  A    between atoms: C_16  and  C_17 
REMARK   16  A    between atoms: C_17  and  C_18 
REMARK   17  A    between atoms: C_18  and  O_19 
ROOT
HETATM    1  C   UNK N   1      29.296  17.104   6.415  0.00  0.00     0.000 C 
ENDROOT
BRANCH   1   2
HETATM    2  C   UNK N   1      29.977  17.582   7.678  0.00  0.00     0.000 C 
BRANCH   2   3
HETATM    3  C   UNK N   1      29.084  18.601   8.339  0.00  0.00     0.000 C 
BRANCH   3   4
HETATM    4  C   UNK N   1      27.792  18.764   7.571  0.00  0.00     0.000 C 
BRANCH   4   5
HETATM    5  C   UNK N   1      27.707  20.215   7.164  0.00  0.00     0.000 C 
BRANCH   5   6
HETATM    6  C   UNK N   1      26.674  20.433   6.084  0.00  0.00     0.000 C 
BRANCH   6   7
HETATM    7  C   UNK N   1      27.428  20.545   4.778  0.00  0.00     0.000 C 
BRANCH   7   8
HETATM    8  C   UNK N   1      27.271  19.296   3.945  0.00  0.00     0.000 C 
BRANCH   8   9
HETATM    9  C   UNK N   1      25.816  19.190   3.542  0.00  0.00    -0.000 C 
BRANCH   9  10
HETATM   10  C   UNK N   1      25.407  20.399   2.733  0.00  0.00    -0.005 C 
HETATM   11  C   UNK N   1      23.918  20.619   2.894  0.00  0.00     0.005 C 
ENDBRANCH   9  10
ENDBRANCH   8   9
ENDBRANCH   7   8
ENDBRANCH   6   7
ENDBRANCH   5   6
ENDBRANCH   4   5
ENDBRANCH   3   4
ENDBRANCH   2   3
ENDBRANCH   1   2
BRANCH   1  12
HETATM   12  C   UNK N   1      30.215  17.345   5.244  0.00  0.00     0.000 C 
BRANCH  12  13
HETATM   13  C   UNK N   1      30.765  16.034   4.730  0.00  0.00     0.000 C 
BRANCH  13  14
HETATM   14  C   UNK N   1      32.231  16.252   4.449  0.00  0.00     0.000 C 
BRANCH  14  15
HETATM   15  C   UNK N   1      32.706  17.591   4.963  0.00  0.00     0.001 C 
BRANCH  15  16
HETATM   16  C   UNK N   1      33.916  17.311   5.824  0.00  0.00     0.010 C 
BRANCH  16  17
HETATM   17  C   UNK N   1      33.522  16.988   7.254  0.00  0.00     0.110 C 
BRANCH  17  18
HETATM   18  C   UNK N   1      34.285  17.828   8.239  0.00  0.00     0.139 C 
HETATM   19  O   UNK N   1      34.952  18.784   7.869  0.00  0.00    -0.650 OA
BRANCH  18  20
HETATM   20  O   UNK N   1      34.233  17.524   9.547  0.00  0.00    -0.776 OA
HETATM   21  H   UNK N   1      33.794  16.745   9.830  0.00  0.00     0.167 HD
ENDBRANCH  18  20
ENDBRANCH  17  18
ENDBRANCH  16  17
ENDBRANCH  15  16
ENDBRANCH  14  15
ENDBRANCH  13  14
ENDBRANCH  12  13
ENDBRANCH   1  12
TORSDOF 17
ENDMDL
MODEL 5
REMARK VINA RESULT:      -4.6     12.036     15.541
REMARK  17 active torsions:
REMARK  status: ('A' for Active; 'I' for Inactive)
REMARK    1  A    between atoms: C_2  and  C_3 
REMARK    2  A    between atoms: C_3  and  C_4 
REMARK    3  A    between atoms: C_4  and  C_5 
REMARK    4  A    between atoms: C_5  and  C_6 
REMARK    5  A    between atoms: C_6  and  C_7 
REMARK    6  A    between atoms: C_7  and  C_8 
REMARK    7  A    between atoms: C_8  and  C_9 
REMARK    8  A    between atoms: C_9  and  C_10 
REMARK    9  A    between atoms: C_10  and  C_11 
REMARK   10  A    between atoms: C_11  and  C_12 
REMARK   11  A    between atoms: C_12  and  C_13 
REMARK   12  A    between atoms: C_13  and  C_14 
REMARK   13  A    between atoms: C_14  and  C_15 
REMARK   14  A    between atoms: C_15  and  C_16 
REMARK   15  A    between atoms: C_16  and  C_17 
REMARK   16  A    between atoms: C_17  and  C_18 
REMARK   17  A    between atoms: C_18  and  O_19 
ROOT
HETATM    1  C   UNK N   1      25.902  27.722  -5.228  0.00  0.00     0.000 C 
ENDROOT
BRANCH   1   2
HETATM    2  C   UNK N   1      27.191  28.275  -5.792  0.00  0.00     0.000 C 
BRANCH   2   3
HETATM    3  C   UNK N   1      27.427  29.635  -5.186  0.00  0.00     0.000 C 
BRANCH   3   4
HETATM    4  C   UNK N   1      26.478  29.884  -4.036  0.00  0.00     0.000 C 
BRANCH   4   5
HETATM    5  C   UNK N   1      27.318  30.352  -2.872  0.00  0.00     0.000 C 
BRANCH   5   6
HETATM    6  C   UNK N   1      28.157  29.233  -2.302  0.00  0.00     0.000 C 
BRANCH   6   7
HETATM    7  C   UNK N   1      29.469  29.849  -1.872  0.00  0.00     0.000 C 
BRANCH   7   8
HETATM    8  C   UNK N   1      30.641  29.006  -2.311  0.00  0.00     0.000 C 
BRANCH   8   9
HETATM    9  C   UNK N   1      30.124  27.964  -3.280  0.00  0.00    -0.000 C 
BRANCH   9  10
HETATM   10  C   UNK N   1      31.043  27.858  -4.474  0.00  0.00    -0.005 C 
HETATM   11  C   UNK N   1      31.054  29.182  -5.207  0.00  0.00     0.005 C 
ENDBRANCH   9  10
ENDBRANCH   8   9
ENDBRANCH   7   8
ENDBRANCH   6   7
ENDBRANCH   5   6
ENDBRANCH   4   5
ENDBRANCH   3   4
ENDBRANCH   2   3
ENDBRANCH   1   2
BRANCH   1  12
HETATM   12  C   UNK N   1      26.075  26.246  -4.971  0.00  0.00     0.000 C 
BRANCH  12  13
HETATM   13  C   UNK N   1      26.673  26.018  -3.602  0.00  0.00     0.000 C 
BRANCH  13  14
HETATM   14  C   UNK N   1      27.485  24.749  -3.682  0.00  0.00     0.000 C 
BRANCH  14  15
HETATM   15  C   UNK N   1      28.573  24.846  -4.725  0.00  0.00     0.001 C 
BRANCH  15  16
HETATM   16  C   UNK N   1      29.847  24.382  -4.056  0.00  0.00     0.010 C 
BRANCH  16  17
HETATM   17  C   UNK N   1      29.740  22.942  -3.589  0.00  0.00     0.110 C 
BRANCH  17  18
HETATM   18  C   UNK N   1      30.544  22.707  -2.341  0.00  0.00     0.139 C 
HETATM   19  O   UNK N   1      30.157  23.117  -1.256  0.00  0.00    -0.650 OA
BRANCH  18  20
HETATM   20  O   UNK N   1      31.705  22.035  -2.419  0.00  0.00    -0.776 OA
HETATM   21  H   UNK N   1      31.943  21.432  -1.743  0.00  0.00     0.167 HD
ENDBRANCH  18  20
ENDBRANCH  17  18
ENDBRANCH  16  17
ENDBRANCH  15  16
ENDBRANCH  14  15
ENDBRANCH  13  14
ENDBRANCH  12  13
ENDBRANCH   1  12
TORSDOF 17
ENDMDL
MODEL 6
REMARK VINA RESULT:      -4.6     11.916     15.192
REMARK  17 active torsions:
REMARK  status: ('A' for Active; 'I' for Inactive)
REMARK    1  A    between atoms: C_2  and  C_3 
REMARK    2  A    between atoms: C_3  and  C_4 
REMARK    3  A    between atoms: C_4  and  C_5 
REMARK    4  A    between atoms: C_5  and  C_6 
REMARK    5  A    between atoms: C_6  and  C_7 
REMARK    6  A    between atoms: C_7  and  C_8 
REMARK    7  A    between atoms: C_8  and  C_9 
REMARK    8  A    between atoms: C_9  and  C_10 
REMARK    9  A    between atoms: C_10  and  C_11 
REMARK   10  A    between atoms: C_11  and  C_12 
REMARK   11  A    between atoms: C_12  and  C_13 
REMARK   12  A    between atoms: C_13  and  C_14 
REMARK   13  A    between atoms: C_14  and  C_15 
REMARK   14  A    between atoms: C_15  and  C_16 
REMARK   15  A    between atoms: C_16  and  C_17 
REMARK   16  A    between atoms: C_17  and  C_18 
REMARK   17  A    between atoms: C_18  and  O_19 
ROOT
HETATM    1  C   UNK N   1      27.646  24.114  -7.718  0.00  0.00     0.000 C 
ENDROOT
BRANCH   1   2
HETATM    2  C   UNK N   1      26.437  24.831  -8.275  0.00  0.00     0.000 C 
BRANCH   2   3
HETATM    3  C   UNK N   1      25.568  25.258  -7.119  0.00  0.00     0.000 C 
BRANCH   3   4
HETATM    4  C   UNK N   1      25.773  26.721  -6.803  0.00  0.00     0.000 C 
BRANCH   4   5
HETATM    5  C   UNK N   1      24.787  27.075  -5.716  0.00  0.00     0.000 C 
BRANCH   5   6
HETATM    6  C   UNK N   1      25.448  27.827  -4.584  0.00  0.00     0.000 C 
BRANCH   6   7
HETATM    7  C   UNK N   1      26.785  27.164  -4.344  0.00  0.00     0.000 C 
BRANCH   7   8
HETATM    8  C   UNK N   1      26.662  26.019  -3.368  0.00  0.00     0.000 C 
BRANCH   8   9
HETATM    9  C   UNK N   1      27.556  24.898  -3.857  0.00  0.00    -0.000 C 
BRANCH   9  10
HETATM   10  C   UNK N   1      28.684  25.456  -4.693  0.00  0.00    -0.005 C 
HETATM   11  C   UNK N   1      29.932  25.543  -3.841  0.00  0.00     0.005 C 
ENDBRANCH   9  10
ENDBRANCH   8   9
ENDBRANCH   7   8
ENDBRANCH   6   7
ENDBRANCH   5   6
ENDBRANCH   4   5
ENDBRANCH   3   4
ENDBRANCH   2   3
ENDBRANCH   1   2
BRANCH   1  12
HETATM   12  C   UNK N   1      27.201  22.809  -7.108  0.00  0.00     0.000 C 
BRANCH  12  13
HETATM   13  C   UNK N   1      28.315  21.789  -7.178  0.00  0.00     0.000 C 
BRANCH  13  14
HETATM   14  C   UNK N   1      29.217  22.041  -5.996  0.00  0.00     0.000 C 
BRANCH  14  15
HETATM   15  C   UNK N   1      30.641  21.624  -6.279  0.00  0.00     0.001 C 
BRANCH  15  16
HETATM   16  C   UNK N   1      31.408  21.828  -4.993  0.00  0.00     0.010 C 
BRANCH  16  17
HETATM   17  C   UNK N   1      30.504  21.720  -3.780  0.00  0.00     0.110 C 
BRANCH  17  18
HETATM   18  C   UNK N   1      31.239  22.056  -2.513  0.00  0.00     0.139 C 
HETATM   19  O   UNK N   1      30.819  22.915  -1.751  0.00  0.00    -0.650 OA
BRANCH  18  20
HETATM   20  O   UNK N   1      32.374  21.402  -2.214  0.00  0.00    -0.776 OA
HETATM   21  H   UNK N   1      33.125  21.879  -1.918  0.00  0.00     0.167 HD
ENDBRANCH  18  20
ENDBRANCH  17  18
ENDBRANCH  16  17
ENDBRANCH  15  16
ENDBRANCH  14  15
ENDBRANCH  13  14
ENDBRANCH  12  13
ENDBRANCH   1  12
TORSDOF 17
ENDMDL
MODEL 7
REMARK VINA RESULT:      -4.6     12.051     15.428
REMARK  17 active torsions:
REMARK  status: ('A' for Active; 'I' for Inactive)
REMARK    1  A    between atoms: C_2  and  C_3 
REMARK    2  A    between atoms: C_3  and  C_4 
REMARK    3  A    between atoms: C_4  and  C_5 
REMARK    4  A    between atoms: C_5  and  C_6 
REMARK    5  A    between atoms: C_6  and  C_7 
REMARK    6  A    between atoms: C_7  and  C_8 
REMARK    7  A    between atoms: C_8  and  C_9 
REMARK    8  A    between atoms: C_9  and  C_10 
REMARK    9  A    between atoms: C_10  and  C_11 
REMARK   10  A    between atoms: C_11  and  C_12 
REMARK   11  A    between atoms: C_12  and  C_13 
REMARK   12  A    between atoms: C_13  and  C_14 
REMARK   13  A    between atoms: C_14  and  C_15 
REMARK   14  A    between atoms: C_15  and  C_16 
REMARK   15  A    between atoms: C_16  and  C_17 
REMARK   16  A    between atoms: C_17  and  C_18 
REMARK   17  A    between atoms: C_18  and  O_19 
ROOT
HETATM    1  C   UNK N   1      26.401  26.678  -3.317  0.00  0.00     0.000 C 
ENDROOT
BRANCH   1   2
HETATM    2  C   UNK N   1      26.777  27.984  -3.981  0.00  0.00     0.000 C 
BRANCH   2   3
HETATM    3  C   UNK N   1      26.132  28.024  -5.344  0.00  0.00     0.000 C 
BRANCH   3   4
HETATM    4  C   UNK N   1      27.175  28.161  -6.429  0.00  0.00     0.000 C 
BRANCH   4   5
HETATM    5  C   UNK N   1      26.981  26.997  -7.370  0.00  0.00     0.000 C 
BRANCH   5   6
HETATM    6  C   UNK N   1      25.696  26.255  -7.086  0.00  0.00     0.000 C 
BRANCH   6   7
HETATM    7  C   UNK N   1      25.841  24.883  -7.703  0.00  0.00     0.000 C 
BRANCH   7   8
HETATM    8  C   UNK N   1      27.014  24.137  -7.115  0.00  0.00     0.000 C 
BRANCH   8   9
HETATM    9  C   UNK N   1      26.721  22.656  -7.225  0.00  0.00    -0.000 C 
BRANCH   9  10
HETATM   10  C   UNK N   1      25.372  22.435  -7.869  0.00  0.00    -0.005 C 
HETATM   11  C   UNK N   1      24.593  21.429  -7.050  0.00  0.00     0.005 C 
ENDBRANCH   9  10
ENDBRANCH   8   9
ENDBRANCH   7   8
ENDBRANCH   6   7
ENDBRANCH   5   6
ENDBRANCH   4   5
ENDBRANCH   3   4
ENDBRANCH   2   3
ENDBRANCH   1   2
BRANCH   1  12
HETATM   12  C   UNK N   1      27.339  25.599  -3.797  0.00  0.00     0.000 C 
BRANCH  12  13
HETATM   13  C   UNK N   1      28.746  26.141  -3.916  0.00  0.00     0.000 C 
BRANCH  13  14
HETATM   14  C   UNK N   1      29.537  25.138  -4.718  0.00  0.00     0.000 C 
BRANCH  14  15
HETATM   15  C   UNK N   1      30.973  25.061  -4.257  0.00  0.00     0.001 C 
BRANCH  15  16
HETATM   16  C   UNK N   1      31.470  23.685  -4.637  0.00  0.00     0.010 C 
BRANCH  16  17
HETATM   17  C   UNK N   1      30.675  22.594  -3.945  0.00  0.00     0.110 C 
BRANCH  17  18
HETATM   18  C   UNK N   1      31.102  22.423  -2.514  0.00  0.00     0.139 C 
HETATM   19  O   UNK N   1      32.100  21.777  -2.227  0.00  0.00    -0.650 OA
BRANCH  18  20
HETATM   20  O   UNK N   1      30.375  22.990  -1.536  0.00  0.00    -0.776 OA
HETATM   21  H   UNK N   1      29.502  22.692  -1.369  0.00  0.00     0.167 HD
ENDBRANCH  18  20
ENDBRANCH  17  18
ENDBRANCH  16  17
ENDBRANCH  15  16
ENDBRANCH  14  15
ENDBRANCH  13  14
ENDBRANCH  12  13
ENDBRANCH   1  12
TORSDOF 17
ENDMDL
MODEL 8
REMARK VINA RESULT:      -4.5     13.127     16.935
REMARK  17 active torsions:
REMARK  status: ('A' for Active; 'I' for Inactive)
REMARK    1  A    between atoms: C_2  and  C_3 
REMARK    2  A    between atoms: C_3  and  C_4 
REMARK    3  A    between atoms: C_4  and  C_5 
REMARK    4  A    between atoms: C_5  and  C_6 
REMARK    5  A    between atoms: C_6  and  C_7 
REMARK    6  A    between atoms: C_7  and  C_8 
REMARK    7  A    between atoms: C_8  and  C_9 
REMARK    8  A    between atoms: C_9  and  C_10 
REMARK    9  A    between atoms: C_10  and  C_11 
REMARK   10  A    between atoms: C_11  and  C_12 
REMARK   11  A    between atoms: C_12  and  C_13 
REMARK   12  A    between atoms: C_13  and  C_14 
REMARK   13  A    between atoms: C_14  and  C_15 
REMARK   14  A    between atoms: C_15  and  C_16 
REMARK   15  A    between atoms: C_16  and  C_17 
REMARK   16  A    between atoms: C_17  and  C_18 
REMARK   17  A    between atoms: C_18  and  O_19 
ROOT
HETATM    1  C   UNK N   1      26.223  26.437  -7.373  0.00  0.00     0.000 C 
ENDROOT
BRANCH   1   2
HETATM    2  C   UNK N   1      25.750  25.089  -6.876  0.00  0.00     0.000 C 
BRANCH   2   3
HETATM    3  C   UNK N   1      25.595  25.166  -5.378  0.00  0.00     0.000 C 
BRANCH   3   4
HETATM    4  C   UNK N   1      26.590  24.263  -4.687  0.00  0.00     0.000 C 
BRANCH   4   5
HETATM    5  C   UNK N   1      27.367  25.126  -3.723  0.00  0.00     0.000 C 
BRANCH   5   6
HETATM    6  C   UNK N   1      28.551  25.786  -4.390  0.00  0.00     0.000 C 
BRANCH   6   7
HETATM    7  C   UNK N   1      29.601  24.713  -4.570  0.00  0.00     0.000 C 
BRANCH   7   8
HETATM    8  C   UNK N   1      30.282  24.388  -3.262  0.00  0.00     0.000 C 
BRANCH   8   9
HETATM    9  C   UNK N   1      31.223  23.227  -3.508  0.00  0.00    -0.000 C 
BRANCH   9  10
HETATM   10  C   UNK N   1      30.534  21.920  -3.191  0.00  0.00    -0.005 C 
HETATM   11  C   UNK N   1      30.487  21.071  -4.444  0.00  0.00     0.005 C 
ENDBRANCH   9  10
ENDBRANCH   8   9
ENDBRANCH   7   8
ENDBRANCH   6   7
ENDBRANCH   5   6
ENDBRANCH   4   5
ENDBRANCH   3   4
ENDBRANCH   2   3
ENDBRANCH   1   2
BRANCH   1  12
HETATM   12  C   UNK N   1      27.605  26.284  -7.956  0.00  0.00     0.000 C 
BRANCH  12  13
HETATM   13  C   UNK N   1      28.309  27.622  -7.996  0.00  0.00     0.000 C 
BRANCH  13  14
HETATM   14  C   UNK N   1      27.657  28.493  -6.951  0.00  0.00     0.000 C 
BRANCH  14  15
HETATM   15  C   UNK N   1      28.667  29.353  -6.230  0.00  0.00     0.001 C 
BRANCH  15  16
HETATM   16  C   UNK N   1      28.212  29.429  -4.790  0.00  0.00     0.010 C 
BRANCH  16  17
HETATM   17  C   UNK N   1      26.732  29.123  -4.655  0.00  0.00     0.110 C 
BRANCH  17  18
HETATM   18  C   UNK N   1      26.396  28.625  -3.278  0.00  0.00     0.139 C 
HETATM   19  O   UNK N   1      25.383  27.971  -3.074  0.00  0.00    -0.650 OA
BRANCH  18  20
HETATM   20  O   UNK N   1      27.222  28.903  -2.254  0.00  0.00    -0.776 OA
HETATM   21  H   UNK N   1      28.047  28.464  -2.186  0.00  0.00     0.167 HD
ENDBRANCH  18  20
ENDBRANCH  17  18
ENDBRANCH  16  17
ENDBRANCH  15  16
ENDBRANCH  14  15
ENDBRANCH  13  14
ENDBRANCH  12  13
ENDBRANCH   1  12
TORSDOF 17
ENDMDL
MODEL 9
REMARK VINA RESULT:      -4.5     13.387     16.049
REMARK  17 active torsions:
REMARK  status: ('A' for Active; 'I' for Inactive)
REMARK    1  A    between atoms: C_2  and  C_3 
REMARK    2  A    between atoms: C_3  and  C_4 
REMARK    3  A    between atoms: C_4  and  C_5 
REMARK    4  A    between atoms: C_5  and  C_6 
REMARK    5  A    between atoms: C_6  and  C_7 
REMARK    6  A    between atoms: C_7  and  C_8 
REMARK    7  A    between atoms: C_8  and  C_9 
REMARK    8  A    between atoms: C_9  and  C_10 
REMARK    9  A    between atoms: C_10  and  C_11 
REMARK   10  A    between atoms: C_11  and  C_12 
REMARK   11  A    between atoms: C_12  and  C_13 
REMARK   12  A    between atoms: C_13  and  C_14 
REMARK   13  A    between atoms: C_14  and  C_15 
REMARK   14  A    between atoms: C_15  and  C_16 
REMARK   15  A    between atoms: C_16  and  C_17 
REMARK   16  A    between atoms: C_17  and  C_18 
REMARK   17  A    between atoms: C_18  and  O_19 
ROOT
HETATM    1  C   UNK N   1      31.092  20.580  -4.893  0.00  0.00     0.000 C 
ENDROOT
BRANCH   1   2
HETATM    2  C   UNK N   1      30.230  21.075  -3.753  0.00  0.00     0.000 C 
BRANCH   2   3
HETATM    3  C   UNK N   1      30.812  22.370  -3.247  0.00  0.00     0.000 C 
BRANCH   3   4
HETATM    4  C   UNK N   1      29.727  23.275  -2.711  0.00  0.00     0.000 C 
BRANCH   4   5
HETATM    5  C   UNK N   1      29.339  24.203  -3.836  0.00  0.00     0.000 C 
BRANCH   5   6
HETATM    6  C   UNK N   1      27.903  24.657  -3.717  0.00  0.00     0.000 C 
BRANCH   6   7
HETATM    7  C   UNK N   1      27.140  23.985  -4.836  0.00  0.00     0.000 C 
BRANCH   7   8
HETATM    8  C   UNK N   1      25.714  24.475  -4.900  0.00  0.00     0.000 C 
BRANCH   8   9
HETATM    9  C   UNK N   1      25.592  25.384  -6.105  0.00  0.00    -0.000 C 
BRANCH   9  10
HETATM   10  C   UNK N   1      25.061  26.736  -5.689  0.00  0.00    -0.005 C 
HETATM   11  C   UNK N   1      26.194  27.738  -5.710  0.00  0.00     0.005 C 
ENDBRANCH   9  10
ENDBRANCH   8   9
ENDBRANCH   7   8
ENDBRANCH   6   7
ENDBRANCH   5   6
ENDBRANCH   4   5
ENDBRANCH   3   4
ENDBRANCH   2   3
ENDBRANCH   1   2
BRANCH   1  12
HETATM   12  C   UNK N   1      30.887  21.481  -6.086  0.00  0.00     0.000 C 
BRANCH  12  13
HETATM   13  C   UNK N   1      29.444  21.437  -6.535  0.00  0.00     0.000 C 
BRANCH  13  14
HETATM   14  C   UNK N   1      29.196  22.690  -7.338  0.00  0.00     0.000 C 
BRANCH  14  15
HETATM   15  C   UNK N   1      27.958  22.569  -8.194  0.00  0.00     0.001 C 
BRANCH  15  16
HETATM   16  C   UNK N   1      27.310  21.254  -7.825  0.00  0.00     0.010 C 
BRANCH  16  17
HETATM   17  C   UNK N   1      25.970  21.079  -8.515  0.00  0.00     0.110 C 
BRANCH  17  18
HETATM   18  C   UNK N   1      24.910  21.937  -7.885  0.00  0.00     0.139 C 
HETATM   19  O   UNK N   1      24.454  22.908  -8.473  0.00  0.00    -0.650 OA
BRANCH  18  20
HETATM   20  O   UNK N   1      24.456  21.633  -6.657  0.00  0.00    -0.776 OA
HETATM   21  H   UNK N   1      23.544  21.721  -6.460  0.00  0.00     0.167 HD
ENDBRANCH  18  20
ENDBRANCH  17  18
ENDBRANCH  16  17
ENDBRANCH  15  16
ENDBRANCH  14  15
ENDBRANCH  13  14
ENDBRANCH  12  13
ENDBRANCH   1  12
TORSDOF 17
ENDMDL
