REMARK  16 active torsions:
REMARK  status: ('A' for Active; 'I' for Inactive)
REMARK    1  A    between atoms: C_12  and  S_7 
REMARK    2  A    between atoms: C_11  and  S_8 
REMARK       I    between atoms: C_18  and  N_10 
REMARK    3  A    between atoms: C_13  and  C_30 
REMARK    4  A    between atoms: C_30  and  O_20 
REMARK    5  A    between atoms: O_20  and  P_22 
REMARK    6  A    between atoms: P_22  and  O_24 
REMARK    7  A    between atoms: P_22  and  O_23 
REMARK    8  A    between atoms: O_24  and  P_26 
REMARK    9  A    between atoms: P_26  and  O_32 
REMARK   10  A    between atoms: P_26  and  O_27 
REMARK   11  A    between atoms: C_35  and  O_28 
REMARK   12  A    between atoms: C_36  and  O_29 
REMARK   13  A    between atoms: C_38  and  C_31 
REMARK   14  A    between atoms: C_31  and  O_32 
REMARK   15  A    between atoms: C_34  and  N_33 
REMARK   16  A    between atoms: N_46  and  C_42 
ROOT
HETATM    1  O   UNK N   1       4.021  -3.994  -1.103  0.00  0.00    -0.631 OA
HETATM    2  P   UNK N   1       3.619  -2.500  -0.970  0.00  0.00     0.401 P 
ENDROOT
BRANCH   2   3
HETATM    3  O   UNK N   1       2.882  -2.272   0.600  0.00  0.00    -0.294 OA
BRANCH   3   4
HETATM    4  C   UNK N   1       3.391  -1.072   1.099  0.00  0.00     0.218 C 
BRANCH   4   5
HETATM    5  C   UNK N   1       2.316  -0.031   1.432  0.00  0.00     0.189 C 
HETATM    6  C   UNK N   1       2.581   1.307   0.777  0.00  0.00     0.021 C 
HETATM    7  C   UNK N   1       1.673   1.848  -0.064  0.00  0.00     0.017 C 
HETATM    8  C   UNK N   1       0.411   1.102  -0.402  0.00  0.00     0.171 C 
HETATM    9  N   UNK N   1      -0.733   1.771   0.175  0.00  0.00    -0.369 N 
HETATM   10  C   UNK N   1       0.480  -0.376   0.046  0.00  0.00     0.251 C 
HETATM   11  C   UNK N   1      -1.987   1.116   0.157  0.00  0.00     0.143 A 
HETATM   12  H   UNK N   1      -0.641   2.667   0.573  0.00  0.00     0.161 HD
HETATM   13  C   UNK N   1      -3.187   1.819   0.276  0.00  0.00     0.289 A 
HETATM   14  C   UNK N   1      -2.032  -0.273   0.020  0.00  0.00     0.151 A 
HETATM   15  O   UNK N   1      -3.186   3.031   0.399  0.00  0.00    -0.265 OA
HETATM   16  N   UNK N   1      -4.374   1.136   0.240  0.00  0.00    -0.154 N 
HETATM   17  C   UNK N   1      -4.394  -0.217   0.096  0.00  0.00     0.680 A 
HETATM   18  H   UNK N   1      -5.222   1.629   0.320  0.00  0.00     0.187 HD
HETATM   19  N   UNK N   1      -5.625  -0.901   0.062  0.00  0.00    -0.234 N 
HETATM   20  N   UNK N   1      -3.230  -0.913  -0.007  0.00  0.00    -0.175 N 
HETATM   21  H   UNK N   1      -6.469  -0.395   0.038  0.00  0.00     0.174 HD
HETATM   22  H   UNK N   1      -5.641  -1.885   0.062  0.00  0.00     0.174 HD
ATOM     23  HN  UNK N   1      -3.256  -1.928  -0.106  1.00  0.00     0.186 HD
HETATM   24  N   UNK N   1      -0.823  -1.015  -0.043  0.00  0.00    -0.345 N 
HETATM   25  H   UNK N   1      -0.868  -1.993  -0.150  0.00  0.00     0.163 HD
HETATM   26  O   UNK N   1       0.971  -0.492   1.364  0.00  0.00    -0.352 OA
BRANCH   6  27
HETATM   27  S   UNK N   1       4.108   2.167   1.190  0.00  0.00    -0.143 SA
HETATM   28  H   UNK N   1       5.248   1.493   1.501  0.00  0.00     0.107 HD
ENDBRANCH   6  27
BRANCH   7  29
HETATM   29  S   UNK N   1       1.926   3.475  -0.792  0.00  0.00    -0.144 SA
HETATM   30  H   UNK N   1       3.086   3.924  -1.342  0.00  0.00     0.107 HD
ENDBRANCH   7  29
ENDBRANCH   4   5
ENDBRANCH   3   4
ENDBRANCH   2   3
BRANCH   2  31
HETATM   31  O   UNK N   1       5.014  -1.498  -1.327  0.00  0.00    -0.195 OA
BRANCH  31  32
HETATM   32  P   UNK N   1       6.358  -1.924  -0.287  0.00  0.00     0.401 P 
HETATM   33  O   UNK N   1       6.432  -3.467  -0.110  0.00  0.00    -0.631 OA
BRANCH  32  34
HETATM   34  O   UNK N   1       7.842  -1.418  -1.051  0.00  0.00    -0.294 OA
BRANCH  34  35
HETATM   35  C   UNK N   1       8.870  -1.857  -0.210  0.00  0.00     0.215 C 
BRANCH  35  36
HETATM   36  C   UNK N   1       9.431  -0.732   0.673  0.00  0.00     0.180 C 
HETATM   37  O   UNK N   1       8.644   0.445   0.632  0.00  0.00    -0.353 OA
HETATM   38  C   UNK N   1       9.582   1.494   0.650  0.00  0.00     0.263 C 
HETATM   39  C   UNK N   1      10.749   1.023  -0.181  0.00  0.00     0.198 C 
HETATM   40  C   UNK N   1      10.882  -0.352   0.375  0.00  0.00     0.182 C 
BRANCH  38  41
HETATM   41  N   UNK N   1       9.054   2.801   0.208  0.00  0.00    -0.280 N 
HETATM   42  C   UNK N   1       7.794   2.984  -0.345  0.00  0.00     0.330 A 
HETATM   43  N   UNK N   1       7.374   4.245  -0.687  0.00  0.00    -0.295 N 
HETATM   44  O   UNK N   1       7.048   2.041  -0.537  0.00  0.00    -0.246 OA
HETATM   45  C   UNK N   1       8.170   5.326  -0.493  0.00  0.00     0.103 A 
ATOM     46  HN  UNK N   1       6.448   4.372  -1.095  1.00  0.00     0.172 HD
HETATM   47  C   UNK N   1       9.435   5.165   0.055  0.00  0.00     0.065 A 
HETATM   48  C   UNK N   1       9.857   3.885   0.401  0.00  0.00     0.102 A 
BRANCH  45  49
HETATM   49  N   UNK N   1       7.714   6.612  -0.843  0.00  0.00    -0.385 N 
HETATM   50  H   UNK N   1       8.333   7.337  -1.088  0.00  0.00     0.157 HD
HETATM   51  H   UNK N   1       6.746   6.790  -0.843  0.00  0.00     0.157 HD
ENDBRANCH  45  49
ENDBRANCH  38  41
BRANCH  39  52
HETATM   52  O   UNK N   1      11.901   1.766   0.077  0.00  0.00    -0.388 OA
HETATM   53  H   UNK N   1      12.749   1.330   0.257  0.00  0.00     0.210 HD
ENDBRANCH  39  52
BRANCH  40  54
HETATM   54  O   UNK N   1      11.522  -1.208  -0.525  0.00  0.00    -0.390 OA
HETATM   55  H   UNK N   1      11.230  -1.890  -1.150  0.00  0.00     0.210 HD
ENDBRANCH  40  54
ENDBRANCH  35  36
ENDBRANCH  34  35
ENDBRANCH  32  34
BRANCH  32  56
HETATM   56  O   UNK N   1       6.228  -1.193   1.283  0.00  0.00    -0.307 OA
HETATM   57  H   UNK N   1       6.545  -0.926   2.160  0.00  0.00     0.222 HD
ENDBRANCH  32  56
ENDBRANCH  31  32
ENDBRANCH   2  31
BRANCH   2  58
HETATM   58  O   UNK N   1       2.438  -2.258  -2.218  0.00  0.00    -0.307 OA
HETATM   59  H   UNK N   1       2.225  -1.619  -2.915  0.00  0.00     0.222 HD
ENDBRANCH   2  58
TORSDOF 16
