MODEL 1
REMARK VINA RESULT:      -6.7      0.000      0.000
REMARK  9 active torsions:
REMARK  status: ('A' for Active; 'I' for Inactive)
REMARK       I    between atoms: N_1  and  C_2 
REMARK    1  A    between atoms: C_2  and  C_4 
REMARK    2  A    between atoms: C_10  and  N_8 
REMARK    3  A    between atoms: C_12  and  C_13 
REMARK    4  A    between atoms: C_13  and  O_14 
REMARK    5  A    between atoms: O_14  and  P_15 
REMARK    6  A    between atoms: P_15  and  O_16 
REMARK    7  A    between atoms: P_15  and  O_17 
REMARK    8  A    between atoms: C_19  and  O_20 
REMARK    9  A    between atoms: C_21  and  O_22 
ROOT
HETATM    1  C   UNK N   1      35.184  14.027  12.737  0.00  0.00     0.259 C 
HETATM    2  O   UNK N   1      34.293  14.393  11.708  0.00  0.00    -0.353 OA
HETATM    3  C   UNK N   1      34.962  15.480  11.141  0.00  0.00     0.180 C 
HETATM    4  C   UNK N   1      36.366  15.005  10.936  0.00  0.00     0.182 C 
HETATM    5  C   UNK N   1      36.625  14.400  12.283  0.00  0.00     0.198 C 
ENDROOT
BRANCH   1   6
HETATM    6  N   UNK N   1      34.918  12.677  13.266  0.00  0.00    -0.336 N 
HETATM    7  C   UNK N   1      34.460  11.720  12.405  0.00  0.00     0.093 A 
HETATM    8  C   UNK N   1      34.152  10.436  12.862  0.00  0.00     0.018 A 
HETATM    9  C   UNK N   1      34.288  10.141  14.218  0.00  0.00     0.020 A 
HETATM   10  C   UNK N   1      34.737  11.128  15.100  0.00  0.00     0.047 A 
HETATM   11  C   UNK N   1      35.046  12.392  14.593  0.00  0.00     0.110 A 
BRANCH  10  12
HETATM   12  C   UNK N   1      34.862  10.861  16.547  0.00  0.00     0.250 C 
HETATM   13  N   UNK N   1      35.313  11.816  17.384  0.00  0.00    -0.366 N 
HETATM   14  H   UNK N   1      35.467  12.734  17.064  0.00  0.00     0.159 HD
HETATM   15  H   UNK N   1      35.491  11.593  18.326  0.00  0.00     0.159 HD
HETATM   16  O   UNK N   1      34.568   9.761  16.995  0.00  0.00    -0.268 OA
ENDBRANCH  10  12
ENDBRANCH   1   6
BRANCH   5  17
HETATM   17  O   UNK N   1      37.514  13.337  12.123  0.00  0.00    -0.388 OA
HETATM   18  H   UNK N   1      37.621  12.777  11.339  0.00  0.00     0.210 HD
ENDBRANCH   5  17
BRANCH   3  19
HETATM   19  C   UNK N   1      34.301  15.976   9.873  0.00  0.00     0.215 C 
BRANCH  19  20
HETATM   20  O   UNK N   1      34.821  17.245   9.602  0.00  0.00    -0.294 OA
BRANCH  20  21
HETATM   21  P   UNK N   1      33.892  17.870   8.276  0.00  0.00     0.390 P 
HETATM   22  O   UNK N   1      34.990  18.958   8.438  0.00  0.00    -0.632 OA
BRANCH  21  23
HETATM   23  O   UNK N   1      34.598  17.930   6.692  0.00  0.00    -0.307 OA
HETATM   24  H   UNK N   1      35.450  17.554   6.420  0.00  0.00     0.222 HD
ENDBRANCH  21  23
BRANCH  21  25
HETATM   25  O   UNK N   1      34.621  16.349   7.862  0.00  0.00    -0.307 OA
HETATM   26  H   UNK N   1      35.562  16.124   7.932  0.00  0.00     0.222 HD
ENDBRANCH  21  25
ENDBRANCH  20  21
ENDBRANCH  19  20
ENDBRANCH   3  19
BRANCH   4  27
HETATM   27  O   UNK N   1      37.244  16.056  10.676  0.00  0.00    -0.390 OA
HETATM   28  H   UNK N   1      37.626  16.613  11.373  0.00  0.00     0.210 HD
ENDBRANCH   4  27
TORSDOF 9
ENDMDL
MODEL 2
REMARK VINA RESULT:      -6.6      4.010      7.529
REMARK  9 active torsions:
REMARK  status: ('A' for Active; 'I' for Inactive)
REMARK       I    between atoms: N_1  and  C_2 
REMARK    1  A    between atoms: C_2  and  C_4 
REMARK    2  A    between atoms: C_10  and  N_8 
REMARK    3  A    between atoms: C_12  and  C_13 
REMARK    4  A    between atoms: C_13  and  O_14 
REMARK    5  A    between atoms: O_14  and  P_15 
REMARK    6  A    between atoms: P_15  and  O_16 
REMARK    7  A    between atoms: P_15  and  O_17 
REMARK    8  A    between atoms: C_19  and  O_20 
REMARK    9  A    between atoms: C_21  and  O_22 
ROOT
HETATM    1  C   UNK N   1      33.955  15.478   8.918  0.00  0.00     0.259 C 
HETATM    2  O   UNK N   1      33.671  14.710  10.065  0.00  0.00    -0.353 OA
HETATM    3  C   UNK N   1      34.926  14.654  10.675  0.00  0.00     0.180 C 
HETATM    4  C   UNK N   1      35.412  16.070  10.685  0.00  0.00     0.182 C 
HETATM    5  C   UNK N   1      35.126  16.443   9.262  0.00  0.00     0.198 C 
ENDROOT
BRANCH   1   6
HETATM    6  N   UNK N   1      32.740  16.012   8.276  0.00  0.00    -0.336 N 
HETATM    7  C   UNK N   1      32.687  16.044   6.911  0.00  0.00     0.093 A 
HETATM    8  C   UNK N   1      31.577  16.578   6.251  0.00  0.00     0.018 A 
HETATM    9  C   UNK N   1      30.527  17.109   6.999  0.00  0.00     0.020 A 
HETATM   10  C   UNK N   1      30.593  17.094   8.395  0.00  0.00     0.047 A 
HETATM   11  C   UNK N   1      31.716  16.535   9.008  0.00  0.00     0.110 A 
BRANCH  10  12
HETATM   12  C   UNK N   1      29.513  17.675   9.218  0.00  0.00     0.250 C 
HETATM   13  N   UNK N   1      29.778  18.658  10.100  0.00  0.00    -0.366 N 
HETATM   14  H   UNK N   1      30.669  19.074  10.138  0.00  0.00     0.159 HD
HETATM   15  H   UNK N   1      29.072  18.963  10.715  0.00  0.00     0.159 HD
HETATM   16  O   UNK N   1      28.368  17.256   9.111  0.00  0.00    -0.268 OA
ENDBRANCH  10  12
ENDBRANCH   1   6
BRANCH   5  17
HETATM   17  O   UNK N   1      34.833  17.806   9.216  0.00  0.00    -0.388 OA
HETATM   18  H   UNK N   1      33.955  18.215   9.174  0.00  0.00     0.210 HD
ENDBRANCH   5  17
BRANCH   3  19
HETATM   19  C   UNK N   1      34.880  14.022  12.049  0.00  0.00     0.215 C 
BRANCH  19  20
HETATM   20  O   UNK N   1      36.202  13.835  12.464  0.00  0.00    -0.294 OA
BRANCH  20  21
HETATM   21  P   UNK N   1      36.132  13.567  14.178  0.00  0.00     0.390 P 
HETATM   22  O   UNK N   1      37.090  12.434  13.716  0.00  0.00    -0.632 OA
BRANCH  21  23
HETATM   23  O   UNK N   1      37.544  13.852  15.146  0.00  0.00    -0.307 OA
HETATM   24  H   UNK N   1      38.290  14.434  14.929  0.00  0.00     0.222 HD
ENDBRANCH  21  23
BRANCH  21  25
HETATM   25  O   UNK N   1      36.829  15.116  13.819  0.00  0.00    -0.307 OA
HETATM   26  H   UNK N   1      37.565  15.289  13.212  0.00  0.00     0.222 HD
ENDBRANCH  21  25
ENDBRANCH  20  21
ENDBRANCH  19  20
ENDBRANCH   3  19
BRANCH   4  27
HETATM   27  O   UNK N   1      36.775  16.155  10.967  0.00  0.00    -0.390 OA
HETATM   28  H   UNK N   1      37.277  16.983  10.910  0.00  0.00     0.210 HD
ENDBRANCH   4  27
TORSDOF 9
ENDMDL
MODEL 3
REMARK VINA RESULT:      -6.5      2.175      3.015
REMARK  9 active torsions:
REMARK  status: ('A' for Active; 'I' for Inactive)
REMARK       I    between atoms: N_1  and  C_2 
REMARK    1  A    between atoms: C_2  and  C_4 
REMARK    2  A    between atoms: C_10  and  N_8 
REMARK    3  A    between atoms: C_12  and  C_13 
REMARK    4  A    between atoms: C_13  and  O_14 
REMARK    5  A    between atoms: O_14  and  P_15 
REMARK    6  A    between atoms: P_15  and  O_16 
REMARK    7  A    between atoms: P_15  and  O_17 
REMARK    8  A    between atoms: C_19  and  O_20 
REMARK    9  A    between atoms: C_21  and  O_22 
ROOT
HETATM    1  C   UNK N   1      35.882  13.117  14.583  0.00  0.00     0.259 C 
HETATM    2  O   UNK N   1      34.852  13.194  13.624  0.00  0.00    -0.353 OA
HETATM    3  C   UNK N   1      35.527  13.767  12.543  0.00  0.00     0.180 C 
HETATM    4  C   UNK N   1      36.779  12.959  12.400  0.00  0.00     0.182 C 
HETATM    5  C   UNK N   1      37.231  12.942  13.830  0.00  0.00     0.198 C 
ENDROOT
BRANCH   1   6
HETATM    6  N   UNK N   1      35.552  12.211  15.699  0.00  0.00    -0.336 N 
HETATM    7  C   UNK N   1      35.084  10.962  15.405  0.00  0.00     0.093 A 
HETATM    8  C   UNK N   1      34.717  10.077  16.423  0.00  0.00     0.018 A 
HETATM    9  C   UNK N   1      34.806  10.490  17.752  0.00  0.00     0.020 A 
HETATM   10  C   UNK N   1      35.265  11.776  18.049  0.00  0.00     0.047 A 
HETATM   11  C   UNK N   1      35.634  12.617  16.997  0.00  0.00     0.110 A 
BRANCH  10  12
HETATM   12  C   UNK N   1      35.342  12.258  19.443  0.00  0.00     0.250 C 
HETATM   13  N   UNK N   1      35.700  11.423  20.438  0.00  0.00    -0.366 N 
HETATM   14  H   UNK N   1      36.015  10.511  20.241  0.00  0.00     0.159 HD
HETATM   15  H   UNK N   1      35.647  11.728  21.372  0.00  0.00     0.159 HD
HETATM   16  O   UNK N   1      35.067  13.421  19.705  0.00  0.00    -0.268 OA
ENDBRANCH  10  12
ENDBRANCH   1   6
BRANCH   5  17
HETATM   17  O   UNK N   1      37.914  11.747  14.059  0.00  0.00    -0.388 OA
HETATM   18  H   UNK N   1      38.224  11.114  13.394  0.00  0.00     0.210 HD
ENDBRANCH   5  17
BRANCH   3  19
HETATM   19  C   UNK N   1      34.688  13.808  11.285  0.00  0.00     0.215 C 
BRANCH  19  20
HETATM   20  O   UNK N   1      35.329  14.666  10.386  0.00  0.00    -0.294 OA
BRANCH  20  21
HETATM   21  P   UNK N   1      35.362  16.223  11.152  0.00  0.00     0.390 P 
HETATM   22  O   UNK N   1      36.791  16.133  10.548  0.00  0.00    -0.632 OA
BRANCH  21  23
HETATM   23  O   UNK N   1      35.448  17.654  10.174  0.00  0.00    -0.307 OA
HETATM   24  H   UNK N   1      34.714  18.245   9.942  0.00  0.00     0.222 HD
ENDBRANCH  21  23
BRANCH  21  25
HETATM   25  O   UNK N   1      34.178  16.180   9.882  0.00  0.00    -0.307 OA
HETATM   26  H   UNK N   1      33.249  15.916   9.970  0.00  0.00     0.222 HD
ENDBRANCH  21  25
ENDBRANCH  20  21
ENDBRANCH  19  20
ENDBRANCH   3  19
BRANCH   4  27
HETATM   27  O   UNK N   1      37.717  13.585  11.579  0.00  0.00    -0.390 OA
HETATM   28  H   UNK N   1      38.656  13.341  11.566  0.00  0.00     0.210 HD
ENDBRANCH   4  27
TORSDOF 9
ENDMDL
MODEL 4
REMARK VINA RESULT:      -6.2      2.203      2.904
REMARK  9 active torsions:
REMARK  status: ('A' for Active; 'I' for Inactive)
REMARK       I    between atoms: N_1  and  C_2 
REMARK    1  A    between atoms: C_2  and  C_4 
REMARK    2  A    between atoms: C_10  and  N_8 
REMARK    3  A    between atoms: C_12  and  C_13 
REMARK    4  A    between atoms: C_13  and  O_14 
REMARK    5  A    between atoms: O_14  and  P_15 
REMARK    6  A    between atoms: P_15  and  O_16 
REMARK    7  A    between atoms: P_15  and  O_17 
REMARK    8  A    between atoms: C_19  and  O_20 
REMARK    9  A    between atoms: C_21  and  O_22 
ROOT
HETATM    1  C   UNK N   1      34.540  15.081  11.081  0.00  0.00     0.259 C 
HETATM    2  O   UNK N   1      33.864  14.632   9.930  0.00  0.00    -0.353 OA
HETATM    3  C   UNK N   1      33.609  15.838   9.273  0.00  0.00     0.180 C 
HETATM    4  C   UNK N   1      34.920  16.561   9.275  0.00  0.00     0.182 C 
HETATM    5  C   UNK N   1      35.298  16.390  10.716  0.00  0.00     0.198 C 
ENDROOT
BRANCH   1   6
HETATM    6  N   UNK N   1      35.258  13.999  11.778  0.00  0.00    -0.336 N 
HETATM    7  C   UNK N   1      35.453  12.818  11.118  0.00  0.00     0.093 A 
HETATM    8  C   UNK N   1      36.090  11.745  11.746  0.00  0.00     0.018 A 
HETATM    9  C   UNK N   1      36.505  11.876  13.070  0.00  0.00     0.020 A 
HETATM   10  C   UNK N   1      36.286  13.077  13.750  0.00  0.00     0.047 A 
HETATM   11  C   UNK N   1      35.659  14.126  13.075  0.00  0.00     0.110 A 
BRANCH  10  12
HETATM   12  C   UNK N   1      36.684  13.240  15.163  0.00  0.00     0.250 C 
HETATM   13  N   UNK N   1      37.319  14.356  15.572  0.00  0.00    -0.366 N 
HETATM   14  H   UNK N   1      37.435  15.121  14.962  0.00  0.00     0.159 HD
HETATM   15  H   UNK N   1      37.670  14.408  16.489  0.00  0.00     0.159 HD
HETATM   16  O   UNK N   1      36.449  12.352  15.972  0.00  0.00    -0.268 OA
ENDBRANCH  10  12
ENDBRANCH   1   6
BRANCH   5  17
HETATM   17  O   UNK N   1      36.690  16.339  10.800  0.00  0.00    -0.388 OA
HETATM   18  H   UNK N   1      37.221  15.751  11.359  0.00  0.00     0.210 HD
ENDBRANCH   5  17
BRANCH   3  19
HETATM   19  C   UNK N   1      33.032  15.640   7.889  0.00  0.00     0.215 C 
BRANCH  19  20
HETATM   20  O   UNK N   1      32.958  16.898   7.285  0.00  0.00    -0.294 OA
BRANCH  20  21
HETATM   21  P   UNK N   1      33.114  16.620   5.578  0.00  0.00     0.390 P 
HETATM   22  O   UNK N   1      31.632  17.072   5.695  0.00  0.00    -0.632 OA
BRANCH  21  23
HETATM   23  O   UNK N   1      33.045  17.965   4.484  0.00  0.00    -0.307 OA
HETATM   24  H   UNK N   1      33.201  17.944   3.526  0.00  0.00     0.222 HD
ENDBRANCH  21  23
BRANCH  21  25
HETATM   25  O   UNK N   1      34.167  17.899   6.098  0.00  0.00    -0.307 OA
HETATM   26  H   UNK N   1      33.895  18.759   6.455  0.00  0.00     0.222 HD
ENDBRANCH  21  25
ENDBRANCH  20  21
ENDBRANCH  19  20
ENDBRANCH   3  19
BRANCH   4  27
HETATM   27  O   UNK N   1      34.777  17.908   8.945  0.00  0.00    -0.390 OA
HETATM   28  H   UNK N   1      35.297  18.614   9.361  0.00  0.00     0.210 HD
ENDBRANCH   4  27
TORSDOF 9
ENDMDL
MODEL 5
REMARK VINA RESULT:      -6.2      7.994     11.461
REMARK  9 active torsions:
REMARK  status: ('A' for Active; 'I' for Inactive)
REMARK       I    between atoms: N_1  and  C_2 
REMARK    1  A    between atoms: C_2  and  C_4 
REMARK    2  A    between atoms: C_10  and  N_8 
REMARK    3  A    between atoms: C_12  and  C_13 
REMARK    4  A    between atoms: C_13  and  O_14 
REMARK    5  A    between atoms: O_14  and  P_15 
REMARK    6  A    between atoms: P_15  and  O_16 
REMARK    7  A    between atoms: P_15  and  O_17 
REMARK    8  A    between atoms: C_19  and  O_20 
REMARK    9  A    between atoms: C_21  and  O_22 
ROOT
HETATM    1  C   UNK N   1      28.769  18.213   6.619  0.00  0.00     0.259 C 
HETATM    2  O   UNK N   1      29.568  17.054   6.564  0.00  0.00    -0.353 OA
HETATM    3  C   UNK N   1      30.441  17.273   7.633  0.00  0.00     0.180 C 
HETATM    4  C   UNK N   1      29.558  17.657   8.778  0.00  0.00     0.182 C 
HETATM    5  C   UNK N   1      28.700  18.683   8.100  0.00  0.00     0.198 C 
ENDROOT
BRANCH   1   6
HETATM    6  N   UNK N   1      27.523  18.082   5.841  0.00  0.00    -0.336 N 
HETATM    7  C   UNK N   1      26.874  16.880   5.853  0.00  0.00     0.093 A 
HETATM    8  C   UNK N   1      25.712  16.688   5.101  0.00  0.00     0.018 A 
HETATM    9  C   UNK N   1      25.230  17.729   4.309  0.00  0.00     0.020 A 
HETATM   10  C   UNK N   1      25.907  18.951   4.283  0.00  0.00     0.047 A 
HETATM   11  C   UNK N   1      27.056  19.099   5.064  0.00  0.00     0.110 A 
BRANCH  10  12
HETATM   12  C   UNK N   1      25.443  20.065   3.432  0.00  0.00     0.250 C 
HETATM   13  N   UNK N   1      24.127  20.325   3.300  0.00  0.00    -0.366 N 
HETATM   14  H   UNK N   1      23.462  19.845   3.845  0.00  0.00     0.159 HD
HETATM   15  H   UNK N   1      23.827  21.001   2.651  0.00  0.00     0.159 HD
HETATM   16  O   UNK N   1      26.255  20.755   2.829  0.00  0.00    -0.268 OA
ENDBRANCH  10  12
ENDBRANCH   1   6
BRANCH   5  17
HETATM   17  O   UNK N   1      27.438  18.661   8.694  0.00  0.00    -0.388 OA
HETATM   18  H   UNK N   1      27.034  19.357   9.236  0.00  0.00     0.210 HD
ENDBRANCH   5  17
BRANCH   3  19
HETATM   19  C   UNK N   1      31.320  16.076   7.925  0.00  0.00     0.215 C 
BRANCH  19  20
HETATM   20  O   UNK N   1      32.291  16.488   8.842  0.00  0.00    -0.294 OA
BRANCH  20  21
HETATM   21  P   UNK N   1      33.052  15.037   9.416  0.00  0.00     0.390 P 
HETATM   22  O   UNK N   1      34.148  16.104   9.690  0.00  0.00    -0.632 OA
BRANCH  21  23
HETATM   23  O   UNK N   1      33.349  14.843  11.115  0.00  0.00    -0.307 OA
HETATM   24  H   UNK N   1      34.029  15.291  11.642  0.00  0.00     0.222 HD
ENDBRANCH  21  23
BRANCH  21  25
HETATM   25  O   UNK N   1      31.628  15.399  10.341  0.00  0.00    -0.307 OA
HETATM   26  H   UNK N   1      30.782  15.722   9.993  0.00  0.00     0.222 HD
ENDBRANCH  21  25
ENDBRANCH  20  21
ENDBRANCH  19  20
ENDBRANCH   3  19
BRANCH   4  27
HETATM   27  O   UNK N   1      30.278  18.217   9.833  0.00  0.00    -0.390 OA
HETATM   28  H   UNK N   1      30.089  19.096  10.197  0.00  0.00     0.210 HD
ENDBRANCH   4  27
TORSDOF 9
ENDMDL
MODEL 6
REMARK VINA RESULT:      -6.1      4.956      8.418
REMARK  9 active torsions:
REMARK  status: ('A' for Active; 'I' for Inactive)
REMARK       I    between atoms: N_1  and  C_2 
REMARK    1  A    between atoms: C_2  and  C_4 
REMARK    2  A    between atoms: C_10  and  N_8 
REMARK    3  A    between atoms: C_12  and  C_13 
REMARK    4  A    between atoms: C_13  and  O_14 
REMARK    5  A    between atoms: O_14  and  P_15 
REMARK    6  A    between atoms: P_15  and  O_16 
REMARK    7  A    between atoms: P_15  and  O_17 
REMARK    8  A    between atoms: C_19  and  O_20 
REMARK    9  A    between atoms: C_21  and  O_22 
ROOT
HETATM    1  C   UNK N   1      34.172  16.693   7.153  0.00  0.00     0.259 C 
HETATM    2  O   UNK N   1      34.137  15.428   7.772  0.00  0.00    -0.353 OA
HETATM    3  C   UNK N   1      35.057  15.604   8.808  0.00  0.00     0.180 C 
HETATM    4  C   UNK N   1      34.661  16.892   9.458  0.00  0.00     0.182 C 
HETATM    5  C   UNK N   1      34.512  17.753   8.240  0.00  0.00     0.198 C 
ENDROOT
BRANCH   1   6
HETATM    6  N   UNK N   1      33.025  16.918   6.254  0.00  0.00    -0.336 N 
HETATM    7  C   UNK N   1      33.266  17.432   5.011  0.00  0.00     0.093 A 
HETATM    8  C   UNK N   1      32.212  17.704   4.134  0.00  0.00     0.018 A 
HETATM    9  C   UNK N   1      30.901  17.474   4.548  0.00  0.00     0.020 A 
HETATM   10  C   UNK N   1      30.657  16.968   5.828  0.00  0.00     0.047 A 
HETATM   11  C   UNK N   1      31.744  16.698   6.661  0.00  0.00     0.110 A 
BRANCH  10  12
HETATM   12  C   UNK N   1      29.280  16.742   6.311  0.00  0.00     0.250 C 
HETATM   13  N   UNK N   1      28.907  17.156   7.538  0.00  0.00    -0.366 N 
HETATM   14  H   UNK N   1      29.511  17.704   8.089  0.00  0.00     0.159 HD
HETATM   15  H   UNK N   1      28.021  16.908   7.887  0.00  0.00     0.159 HD
HETATM   16  O   UNK N   1      28.468  16.163   5.600  0.00  0.00    -0.268 OA
ENDBRANCH  10  12
ENDBRANCH   1   6
BRANCH   5  17
HETATM   17  O   UNK N   1      33.528  18.708   8.496  0.00  0.00    -0.388 OA
HETATM   18  H   UNK N   1      33.626  19.527   9.007  0.00  0.00     0.210 HD
ENDBRANCH   5  17
BRANCH   3  19
HETATM   19  C   UNK N   1      35.092  14.431   9.764  0.00  0.00     0.215 C 
BRANCH  19  20
HETATM   20  O   UNK N   1      34.815  14.927  11.041  0.00  0.00    -0.294 OA
BRANCH  20  21
HETATM   21  P   UNK N   1      35.847  14.053  12.129  0.00  0.00     0.390 P 
HETATM   22  O   UNK N   1      35.958  15.502  12.677  0.00  0.00    -0.632 OA
BRANCH  21  23
HETATM   23  O   UNK N   1      35.374  13.863  13.788  0.00  0.00    -0.307 OA
HETATM   24  H   UNK N   1      34.867  13.129  14.168  0.00  0.00     0.222 HD
ENDBRANCH  21  23
BRANCH  21  25
HETATM   25  O   UNK N   1      34.206  13.498  12.248  0.00  0.00    -0.307 OA
HETATM   26  H   UNK N   1      33.819  13.000  12.984  0.00  0.00     0.222 HD
ENDBRANCH  21  25
ENDBRANCH  20  21
ENDBRANCH  19  20
ENDBRANCH   3  19
BRANCH   4  27
HETATM   27  O   UNK N   1      35.657  17.381  10.304  0.00  0.00    -0.390 OA
HETATM   28  H   UNK N   1      35.593  18.234  10.761  0.00  0.00     0.210 HD
ENDBRANCH   4  27
TORSDOF 9
ENDMDL
MODEL 7
REMARK VINA RESULT:      -6.1      7.549     11.177
REMARK  9 active torsions:
REMARK  status: ('A' for Active; 'I' for Inactive)
REMARK       I    between atoms: N_1  and  C_2 
REMARK    1  A    between atoms: C_2  and  C_4 
REMARK    2  A    between atoms: C_10  and  N_8 
REMARK    3  A    between atoms: C_12  and  C_13 
REMARK    4  A    between atoms: C_13  and  O_14 
REMARK    5  A    between atoms: O_14  and  P_15 
REMARK    6  A    between atoms: P_15  and  O_16 
REMARK    7  A    between atoms: P_15  and  O_17 
REMARK    8  A    between atoms: C_19  and  O_20 
REMARK    9  A    between atoms: C_21  and  O_22 
ROOT
HETATM    1  C   UNK N   1      29.177  17.600   6.388  0.00  0.00     0.259 C 
HETATM    2  O   UNK N   1      29.913  17.844   7.564  0.00  0.00    -0.353 OA
HETATM    3  C   UNK N   1      30.990  16.969   7.400  0.00  0.00     0.180 C 
HETATM    4  C   UNK N   1      31.481  17.221   6.009  0.00  0.00     0.182 C 
HETATM    5  C   UNK N   1      30.177  17.182   5.271  0.00  0.00     0.198 C 
ENDROOT
BRANCH   1   6
HETATM    6  N   UNK N   1      28.181  18.652   6.112  0.00  0.00    -0.336 N 
HETATM    7  C   UNK N   1      28.043  19.668   7.014  0.00  0.00     0.093 A 
HETATM    8  C   UNK N   1      27.086  20.668   6.823  0.00  0.00     0.018 A 
HETATM    9  C   UNK N   1      26.246  20.608   5.712  0.00  0.00     0.020 A 
HETATM   10  C   UNK N   1      26.376  19.556   4.802  0.00  0.00     0.047 A 
HETATM   11  C   UNK N   1      27.358  18.589   5.028  0.00  0.00     0.110 A 
BRANCH  10  12
HETATM   12  C   UNK N   1      25.483  19.443   3.631  0.00  0.00     0.250 C 
HETATM   13  N   UNK N   1      25.476  20.398   2.680  0.00  0.00    -0.366 N 
HETATM   14  H   UNK N   1      26.135  21.130   2.696  0.00  0.00     0.159 HD
HETATM   15  H   UNK N   1      24.805  20.364   1.961  0.00  0.00     0.159 HD
HETATM   16  O   UNK N   1      24.732  18.483   3.523  0.00  0.00    -0.268 OA
ENDBRANCH  10  12
ENDBRANCH   1   6
BRANCH   5  17
HETATM   17  O   UNK N   1      30.267  18.038   4.174  0.00  0.00    -0.388 OA
HETATM   18  H   UNK N   1      29.547  18.540   3.763  0.00  0.00     0.210 HD
ENDBRANCH   5  17
BRANCH   3  19
HETATM   19  C   UNK N   1      32.056  17.149   8.459  0.00  0.00     0.215 C 
BRANCH  19  20
HETATM   20  O   UNK N   1      32.930  18.141   8.004  0.00  0.00    -0.294 OA
BRANCH  20  21
HETATM   21  P   UNK N   1      34.532  17.526   8.266  0.00  0.00     0.390 P 
HETATM   22  O   UNK N   1      34.774  19.060   8.274  0.00  0.00    -0.632 OA
BRANCH  21  23
HETATM   23  O   UNK N   1      35.303  17.775   9.800  0.00  0.00    -0.307 OA
HETATM   24  H   UNK N   1      36.094  17.322  10.134  0.00  0.00     0.222 HD
ENDBRANCH  21  23
BRANCH  21  25
HETATM   25  O   UNK N   1      33.475  17.085   9.572  0.00  0.00    -0.307 OA
HETATM   26  H   UNK N   1      32.520  17.247   9.620  0.00  0.00     0.222 HD
ENDBRANCH  21  25
ENDBRANCH  20  21
ENDBRANCH  19  20
ENDBRANCH   3  19
BRANCH   4  27
HETATM   27  O   UNK N   1      32.344  16.219   5.567  0.00  0.00    -0.390 OA
HETATM   28  H   UNK N   1      32.427  15.964   4.635  0.00  0.00     0.210 HD
ENDBRANCH   4  27
TORSDOF 9
ENDMDL
MODEL 8
REMARK VINA RESULT:      -5.9      4.266      8.281
REMARK  9 active torsions:
REMARK  status: ('A' for Active; 'I' for Inactive)
REMARK       I    between atoms: N_1  and  C_2 
REMARK    1  A    between atoms: C_2  and  C_4 
REMARK    2  A    between atoms: C_10  and  N_8 
REMARK    3  A    between atoms: C_12  and  C_13 
REMARK    4  A    between atoms: C_13  and  O_14 
REMARK    5  A    between atoms: O_14  and  P_15 
REMARK    6  A    between atoms: P_15  and  O_16 
REMARK    7  A    between atoms: P_15  and  O_17 
REMARK    8  A    between atoms: C_19  and  O_20 
REMARK    9  A    between atoms: C_21  and  O_22 
ROOT
HETATM    1  C   UNK N   1      33.817  15.768   8.606  0.00  0.00     0.259 C 
HETATM    2  O   UNK N   1      33.494  14.963   9.717  0.00  0.00    -0.353 OA
HETATM    3  C   UNK N   1      34.735  14.858  10.349  0.00  0.00     0.180 C 
HETATM    4  C   UNK N   1      35.249  16.261  10.422  0.00  0.00     0.182 C 
HETATM    5  C   UNK N   1      35.000  16.694   9.009  0.00  0.00     0.198 C 
ENDROOT
BRANCH   1   6
HETATM    6  N   UNK N   1      32.626  16.351   7.961  0.00  0.00    -0.336 N 
HETATM    7  C   UNK N   1      31.505  16.541   8.718  0.00  0.00     0.093 A 
HETATM    8  C   UNK N   1      30.335  17.052   8.149  0.00  0.00     0.018 A 
HETATM    9  C   UNK N   1      30.310  17.343   6.785  0.00  0.00     0.020 A 
HETATM   10  C   UNK N   1      31.452  17.129   6.009  0.00  0.00     0.047 A 
HETATM   11  C   UNK N   1      32.601  16.631   6.628  0.00  0.00     0.110 A 
BRANCH  10  12
HETATM   12  C   UNK N   1      31.451  17.397   4.557  0.00  0.00     0.250 C 
HETATM   13  N   UNK N   1      30.322  17.256   3.834  0.00  0.00    -0.366 N 
HETATM   14  H   UNK N   1      29.461  17.073   4.276  0.00  0.00     0.159 HD
HETATM   15  H   UNK N   1      30.359  17.336   2.854  0.00  0.00     0.159 HD
HETATM   16  O   UNK N   1      32.484  17.739   3.996  0.00  0.00    -0.268 OA
ENDBRANCH  10  12
ENDBRANCH   1   6
BRANCH   5  17
HETATM   17  O   UNK N   1      34.736  18.064   9.010  0.00  0.00    -0.388 OA
HETATM   18  H   UNK N   1      33.914  18.501   9.281  0.00  0.00     0.210 HD
ENDBRANCH   5  17
BRANCH   3  19
HETATM   19  C   UNK N   1      34.649  14.176  11.697  0.00  0.00     0.215 C 
BRANCH  19  20
HETATM   20  O   UNK N   1      35.261  12.926  11.570  0.00  0.00    -0.294 OA
BRANCH  20  21
HETATM   21  P   UNK N   1      36.389  12.810  12.884  0.00  0.00     0.390 P 
HETATM   22  O   UNK N   1      37.230  13.547  11.805  0.00  0.00    -0.632 OA
BRANCH  21  23
HETATM   23  O   UNK N   1      36.885  14.251  13.715  0.00  0.00    -0.307 OA
HETATM   24  H   UNK N   1      36.853  14.412  14.671  0.00  0.00     0.222 HD
ENDBRANCH  21  23
BRANCH  21  25
HETATM   25  O   UNK N   1      35.016  13.776  13.327  0.00  0.00    -0.307 OA
HETATM   26  H   UNK N   1      34.552  14.411  12.760  0.00  0.00     0.222 HD
ENDBRANCH  21  25
ENDBRANCH  20  21
ENDBRANCH  19  20
ENDBRANCH   3  19
BRANCH   4  27
HETATM   27  O   UNK N   1      36.608  16.307  10.734  0.00  0.00    -0.390 OA
HETATM   28  H   UNK N   1      37.284  15.827  10.230  0.00  0.00     0.210 HD
ENDBRANCH   4  27
TORSDOF 9
ENDMDL
MODEL 9
REMARK VINA RESULT:      -5.9      2.639      3.552
REMARK  9 active torsions:
REMARK  status: ('A' for Active; 'I' for Inactive)
REMARK       I    between atoms: N_1  and  C_2 
REMARK    1  A    between atoms: C_2  and  C_4 
REMARK    2  A    between atoms: C_10  and  N_8 
REMARK    3  A    between atoms: C_12  and  C_13 
REMARK    4  A    between atoms: C_13  and  O_14 
REMARK    5  A    between atoms: O_14  and  P_15 
REMARK    6  A    between atoms: P_15  and  O_16 
REMARK    7  A    between atoms: P_15  and  O_17 
REMARK    8  A    between atoms: C_19  and  O_20 
REMARK    9  A    between atoms: C_21  and  O_22 
ROOT
HETATM    1  C   UNK N   1      34.764  14.951  11.356  0.00  0.00     0.259 C 
HETATM    2  O   UNK N   1      34.067  14.543  10.202  0.00  0.00    -0.353 OA
HETATM    3  C   UNK N   1      33.843  15.768   9.570  0.00  0.00     0.180 C 
HETATM    4  C   UNK N   1      35.173  16.453   9.575  0.00  0.00     0.182 C 
HETATM    5  C   UNK N   1      35.557  16.244  11.009  0.00  0.00     0.198 C 
ENDROOT
BRANCH   1   6
HETATM    6  N   UNK N   1      35.455  13.835  12.028  0.00  0.00    -0.336 N 
HETATM    7  C   UNK N   1      35.724  13.946  13.363  0.00  0.00     0.093 A 
HETATM    8  C   UNK N   1      36.413  12.936  14.040  0.00  0.00     0.018 A 
HETATM    9  C   UNK N   1      36.855  11.818  13.334  0.00  0.00     0.020 A 
HETATM   10  C   UNK N   1      36.597  11.717  11.964  0.00  0.00     0.047 A 
HETATM   11  C   UNK N   1      35.891  12.745  11.336  0.00  0.00     0.110 A 
BRANCH  10  12
HETATM   12  C   UNK N   1      37.076  10.561  11.179  0.00  0.00     0.250 C 
HETATM   13  N   UNK N   1      36.442  10.189  10.050  0.00  0.00    -0.366 N 
HETATM   14  H   UNK N   1      35.715  10.738   9.677  0.00  0.00     0.159 HD
HETATM   15  H   UNK N   1      36.707   9.358   9.594  0.00  0.00     0.159 HD
HETATM   16  O   UNK N   1      38.052   9.926  11.557  0.00  0.00    -0.268 OA
ENDBRANCH  10  12
ENDBRANCH   1   6
BRANCH   5  17
HETATM   17  O   UNK N   1      36.947  16.151  11.082  0.00  0.00    -0.388 OA
HETATM   18  H   UNK N   1      37.595  16.776  10.722  0.00  0.00     0.210 HD
ENDBRANCH   5  17
BRANCH   3  19
HETATM   19  C   UNK N   1      33.249  15.612   8.187  0.00  0.00     0.215 C 
BRANCH  19  20
HETATM   20  O   UNK N   1      33.155  16.890   7.629  0.00  0.00    -0.294 OA
BRANCH  20  21
HETATM   21  P   UNK N   1      33.385  16.685   5.920  0.00  0.00     0.390 P 
HETATM   22  O   UNK N   1      31.904  17.149   5.990  0.00  0.00    -0.632 OA
BRANCH  21  23
HETATM   23  O   UNK N   1      33.379  18.077   4.884  0.00  0.00    -0.307 OA
HETATM   24  H   UNK N   1      33.375  18.080   3.914  0.00  0.00     0.222 HD
ENDBRANCH  21  23
BRANCH  21  25
HETATM   25  O   UNK N   1      34.426  17.928   6.543  0.00  0.00    -0.307 OA
HETATM   26  H   UNK N   1      34.152  18.803   6.859  0.00  0.00     0.222 HD
ENDBRANCH  21  25
ENDBRANCH  20  21
ENDBRANCH  19  20
ENDBRANCH   3  19
BRANCH   4  27
HETATM   27  O   UNK N   1      35.067  17.810   9.272  0.00  0.00    -0.390 OA
HETATM   28  H   UNK N   1      35.077  18.152   8.364  0.00  0.00     0.210 HD
ENDBRANCH   4  27
TORSDOF 9
ENDMDL
