MODEL 1
REMARK VINA RESULT:      -4.1      0.000      0.000
REMARK  3 active torsions:
REMARK  status: ('A' for Active; 'I' for Inactive)
REMARK    1  A    between atoms: C_2  and  O_3 
REMARK    2  A    between atoms: C_2  and  C_4 
REMARK    3  A    between atoms: C_4  and  O_5 
ROOT
HETATM    1  C   UNK N   1      16.938  27.561   8.630  0.00  0.00     0.050 C 
HETATM    2  C   UNK N   1      18.078  26.565   8.731  0.00  0.00     0.211 C 
ENDROOT
BRANCH   2   3
HETATM    3  O   UNK N   1      18.376  25.796   7.608  0.00  0.00    -0.385 OA
HETATM    4  H   UNK N   1      18.057  24.881   7.548  0.00  0.00     0.210 HD
ENDBRANCH   2   3
BRANCH   2   5
HETATM    5  C   UNK N   1      18.900  26.360   9.966  0.00  0.00     0.169 C 
HETATM    6  O   UNK N   1      19.560  27.276  10.427  0.00  0.00    -0.648 OA
BRANCH   5   7
HETATM    7  O   UNK N   1      18.910  25.156  10.571  0.00  0.00    -0.774 OA
HETATM    8  H   UNK N   1      18.110  24.681  10.680  0.00  0.00     0.167 HD
ENDBRANCH   5   7
ENDBRANCH   2   5
TORSDOF 3
ENDMDL
MODEL 2
REMARK VINA RESULT:      -3.9      9.064      9.996
REMARK  3 active torsions:
REMARK  status: ('A' for Active; 'I' for Inactive)
REMARK    1  A    between atoms: C_2  and  O_3 
REMARK    2  A    between atoms: C_2  and  C_4 
REMARK    3  A    between atoms: C_4  and  O_5 
ROOT
HETATM    1  C   UNK N   1      20.317  18.290   1.811  0.00  0.00     0.050 C 
HETATM    2  C   UNK N   1      20.664  19.754   1.610  0.00  0.00     0.211 C 
ENDROOT
BRANCH   2   3
HETATM    3  O   UNK N   1      20.744  20.234   0.304  0.00  0.00    -0.385 OA
HETATM    4  H   UNK N   1      21.549  20.088  -0.218  0.00  0.00     0.210 HD
ENDBRANCH   2   3
BRANCH   2   5
HETATM    5  C   UNK N   1      20.926  20.712   2.731  0.00  0.00     0.169 C 
HETATM    6  O   UNK N   1      20.312  20.617   3.780  0.00  0.00    -0.648 OA
BRANCH   5   7
HETATM    7  O   UNK N   1      21.847  21.684   2.579  0.00  0.00    -0.774 OA
HETATM    8  H   UNK N   1      21.660  22.424   2.037  0.00  0.00     0.167 HD
ENDBRANCH   5   7
ENDBRANCH   2   5
TORSDOF 3
ENDMDL
MODEL 3
REMARK VINA RESULT:      -3.8      9.345     10.507
REMARK  3 active torsions:
REMARK  status: ('A' for Active; 'I' for Inactive)
REMARK    1  A    between atoms: C_2  and  O_3 
REMARK    2  A    between atoms: C_2  and  C_4 
REMARK    3  A    between atoms: C_4  and  O_5 
ROOT
HETATM    1  C   UNK N   1      21.055  19.506   3.475  0.00  0.00     0.050 C 
HETATM    2  C   UNK N   1      21.231  20.497   2.341  0.00  0.00     0.211 C 
ENDROOT
BRANCH   2   3
HETATM    3  O   UNK N   1      21.687  21.777   2.654  0.00  0.00    -0.385 OA
HETATM    4  H   UNK N   1      21.939  22.389   1.944  0.00  0.00     0.210 HD
ENDBRANCH   2   3
BRANCH   2   5
HETATM    5  C   UNK N   1      20.945  20.183   0.905  0.00  0.00     0.169 C 
HETATM    6  O   UNK N   1      21.185  21.002   0.033  0.00  0.00    -0.648 OA
BRANCH   5   7
HETATM    7  O   UNK N   1      20.418  18.988   0.574  0.00  0.00    -0.774 OA
HETATM    8  H   UNK N   1      20.908  18.391   0.043  0.00  0.00     0.167 HD
ENDBRANCH   5   7
ENDBRANCH   2   5
TORSDOF 3
ENDMDL
MODEL 4
REMARK VINA RESULT:      -3.8     18.238     18.465
REMARK  3 active torsions:
REMARK  status: ('A' for Active; 'I' for Inactive)
REMARK    1  A    between atoms: C_2  and  O_3 
REMARK    2  A    between atoms: C_2  and  C_4 
REMARK    3  A    between atoms: C_4  and  O_5 
ROOT
HETATM    1  C   UNK N   1      33.355  16.014   8.734  0.00  0.00     0.050 C 
HETATM    2  C   UNK N   1      34.273  17.164   9.103  0.00  0.00     0.211 C 
ENDROOT
BRANCH   2   3
HETATM    3  O   UNK N   1      34.766  17.216  10.406  0.00  0.00    -0.385 OA
HETATM    4  H   UNK N   1      34.287  16.772  11.123  0.00  0.00     0.210 HD
ENDBRANCH   2   3
BRANCH   2   5
HETATM    5  C   UNK N   1      34.680  18.246   8.151  0.00  0.00     0.169 C 
HETATM    6  O   UNK N   1      34.394  18.167   6.968  0.00  0.00    -0.648 OA
BRANCH   5   7
HETATM    7  O   UNK N   1      35.367  19.313   8.605  0.00  0.00    -0.774 OA
HETATM    8  H   UNK N   1      35.355  19.523   9.518  0.00  0.00     0.167 HD
ENDBRANCH   5   7
ENDBRANCH   2   5
TORSDOF 3
ENDMDL
MODEL 5
REMARK VINA RESULT:      -3.7     15.590     15.648
REMARK  3 active torsions:
REMARK  status: ('A' for Active; 'I' for Inactive)
REMARK    1  A    between atoms: C_2  and  O_3 
REMARK    2  A    between atoms: C_2  and  C_4 
REMARK    3  A    between atoms: C_4  and  O_5 
ROOT
HETATM    1  C   UNK N   1      23.548  11.817   9.860  0.00  0.00     0.050 C 
HETATM    2  C   UNK N   1      24.035  12.109  11.267  0.00  0.00     0.211 C 
ENDROOT
BRANCH   2   3
HETATM    3  O   UNK N   1      25.340  12.574  11.425  0.00  0.00    -0.385 OA
HETATM    4  H   UNK N   1      26.088  12.020  11.152  0.00  0.00     0.210 HD
ENDBRANCH   2   3
BRANCH   2   5
HETATM    5  C   UNK N   1      23.198  11.928  12.495  0.00  0.00     0.169 C 
HETATM    6  O   UNK N   1      23.677  12.109  13.602  0.00  0.00    -0.648 OA
BRANCH   5   7
HETATM    7  O   UNK N   1      21.906  11.562  12.376  0.00  0.00    -0.774 OA
HETATM    8  H   UNK N   1      21.521  11.476  11.527  0.00  0.00     0.167 HD
ENDBRANCH   5   7
ENDBRANCH   2   5
TORSDOF 3
ENDMDL
MODEL 6
REMARK VINA RESULT:      -3.6     19.590     20.235
REMARK  3 active torsions:
REMARK  status: ('A' for Active; 'I' for Inactive)
REMARK    1  A    between atoms: C_2  and  O_3 
REMARK    2  A    between atoms: C_2  and  C_4 
REMARK    3  A    between atoms: C_4  and  O_5 
ROOT
HETATM    1  C   UNK N   1      35.406  13.759  12.027  0.00  0.00     0.050 C 
HETATM    2  C   UNK N   1      34.824  14.999  11.376  0.00  0.00     0.211 C 
ENDROOT
BRANCH   2   3
HETATM    3  O   UNK N   1      33.445  15.050  11.180  0.00  0.00    -0.385 OA
HETATM    4  H   UNK N   1      33.009  15.903  11.021  0.00  0.00     0.210 HD
ENDBRANCH   2   3
BRANCH   2   5
HETATM    5  C   UNK N   1      35.643  16.171  10.930  0.00  0.00     0.169 C 
HETATM    6  O   UNK N   1      35.103  17.218  10.614  0.00  0.00    -0.648 OA
BRANCH   5   7
HETATM    7  O   UNK N   1      36.985  16.068  10.879  0.00  0.00    -0.774 OA
HETATM    8  H   UNK N   1      37.389  15.549  10.212  0.00  0.00     0.167 HD
ENDBRANCH   5   7
ENDBRANCH   2   5
TORSDOF 3
ENDMDL
MODEL 7
REMARK VINA RESULT:      -3.5     15.292     15.501
REMARK  3 active torsions:
REMARK  status: ('A' for Active; 'I' for Inactive)
REMARK    1  A    between atoms: C_2  and  O_3 
REMARK    2  A    between atoms: C_2  and  C_4 
REMARK    3  A    between atoms: C_4  and  O_5 
ROOT
HETATM    1  C   UNK N   1      22.835  11.817   9.689  0.00  0.00     0.050 C 
HETATM    2  C   UNK N   1      22.660  11.895  11.194  0.00  0.00     0.211 C 
ENDROOT
BRANCH   2   3
HETATM    3  O   UNK N   1      21.370  11.783  11.710  0.00  0.00    -0.385 OA
HETATM    4  H   UNK N   1      21.151  12.193  12.562  0.00  0.00     0.210 HD
ENDBRANCH   2   3
BRANCH   2   5
HETATM    5  C   UNK N   1      23.790  12.084  12.158  0.00  0.00     0.169 C 
HETATM    6  O   UNK N   1      23.590  12.046  13.361  0.00  0.00    -0.648 OA
BRANCH   5   7
HETATM    7  O   UNK N   1      25.037  12.298  11.693  0.00  0.00    -0.774 OA
HETATM    8  H   UNK N   1      25.267  12.024  10.827  0.00  0.00     0.167 HD
ENDBRANCH   5   7
ENDBRANCH   2   5
TORSDOF 3
ENDMDL
MODEL 8
REMARK VINA RESULT:      -3.5     17.379     17.973
REMARK  3 active torsions:
REMARK  status: ('A' for Active; 'I' for Inactive)
REMARK    1  A    between atoms: C_2  and  O_3 
REMARK    2  A    between atoms: C_2  and  C_4 
REMARK    3  A    between atoms: C_4  and  O_5 
ROOT
HETATM    1  C   UNK N   1      32.328  17.786   8.078  0.00  0.00     0.050 C 
HETATM    2  C   UNK N   1      33.785  18.005   7.712  0.00  0.00     0.211 C 
ENDROOT
BRANCH   2   3
HETATM    3  O   UNK N   1      34.141  17.925   6.367  0.00  0.00    -0.385 OA
HETATM    4  H   UNK N   1      34.855  17.329   6.089  0.00  0.00     0.210 HD
ENDBRANCH   2   3
BRANCH   2   5
HETATM    5  C   UNK N   1      34.860  18.303   8.710  0.00  0.00     0.169 C 
HETATM    6  O   UNK N   1      35.150  17.485   9.568  0.00  0.00    -0.648 OA
BRANCH   5   7
HETATM    7  O   UNK N   1      35.512  19.481   8.661  0.00  0.00    -0.774 OA
HETATM    8  H   UNK N   1      35.492  20.058   9.398  0.00  0.00     0.167 HD
ENDBRANCH   5   7
ENDBRANCH   2   5
TORSDOF 3
ENDMDL
MODEL 9
REMARK VINA RESULT:      -3.4     18.061     18.584
REMARK  3 active torsions:
REMARK  status: ('A' for Active; 'I' for Inactive)
REMARK    1  A    between atoms: C_2  and  O_3 
REMARK    2  A    between atoms: C_2  and  C_4 
REMARK    3  A    between atoms: C_4  and  O_5 
ROOT
HETATM    1  C   UNK N   1      33.744  17.846   7.084  0.00  0.00     0.050 C 
HETATM    2  C   UNK N   1      34.577  18.000   8.344  0.00  0.00     0.211 C 
ENDROOT
BRANCH   2   3
HETATM    3  O   UNK N   1      35.267  19.197   8.529  0.00  0.00    -0.385 OA
HETATM    4  H   UNK N   1      35.466  19.507   9.427  0.00  0.00     0.210 HD
ENDBRANCH   2   3
BRANCH   2   5
HETATM    5  C   UNK N   1      34.699  16.944   9.398  0.00  0.00     0.169 C 
HETATM    6  O   UNK N   1      34.510  15.771   9.123  0.00  0.00    -0.648 OA
BRANCH   5   7
HETATM    7  O   UNK N   1      35.022  17.292  10.659  0.00  0.00    -0.774 OA
HETATM    8  H   UNK N   1      35.887  17.593  10.855  0.00  0.00     0.167 HD
ENDBRANCH   5   7
ENDBRANCH   2   5
TORSDOF 3
ENDMDL
