REMARK  17 active torsions:
REMARK  status: ('A' for Active; 'I' for Inactive)
REMARK    1  A    between atoms: C_2  and  C_3 
REMARK    2  A    between atoms: C_3  and  C_4 
REMARK    3  A    between atoms: C_4  and  C_5 
REMARK    4  A    between atoms: C_5  and  C_6 
REMARK    5  A    between atoms: C_6  and  C_7 
REMARK    6  A    between atoms: C_7  and  C_8 
REMARK    7  A    between atoms: C_8  and  C_9 
REMARK    8  A    between atoms: C_9  and  C_10 
REMARK    9  A    between atoms: C_10  and  C_11 
REMARK   10  A    between atoms: C_11  and  C_12 
REMARK   11  A    between atoms: C_12  and  C_13 
REMARK   12  A    between atoms: C_13  and  C_14 
REMARK   13  A    between atoms: C_14  and  C_15 
REMARK   14  A    between atoms: C_15  and  C_16 
REMARK   15  A    between atoms: C_16  and  C_17 
REMARK   16  A    between atoms: C_17  and  C_18 
REMARK   17  A    between atoms: C_18  and  O_19 
ROOT
HETATM    1  C   UNK N   1      16.434   6.411   0.000  0.00  0.00     0.000 C 
ENDROOT
BRANCH   1   2
HETATM    2  C   UNK N   1      15.310   5.399   0.000  0.00  0.00     0.000 C 
BRANCH   2   3
HETATM    3  C   UNK N   1      14.001   6.147   0.000  0.00  0.00     0.000 C 
BRANCH   3   4
HETATM    4  C   UNK N   1      12.833   5.188  -0.000  0.00  0.00     0.000 C 
BRANCH   4   5
HETATM    5  C   UNK N   1      11.579   6.028  -0.000  0.00  0.00     0.000 C 
BRANCH   5   6
HETATM    6  C   UNK N   1      10.333   5.174  -0.000  0.00  0.00     0.000 C 
BRANCH   6   7
HETATM    7  C   UNK N   1       9.156   6.123  -0.000  0.00  0.00     0.000 C 
BRANCH   7   8
HETATM    8  C   UNK N   1       7.846   5.373  -0.000  0.00  0.00     0.000 C 
BRANCH   8   9
HETATM    9  C   UNK N   1       6.729   6.395   0.000  0.00  0.00    -0.000 C 
BRANCH   9  10
HETATM   10  C   UNK N   1       5.386   5.702   0.000  0.00  0.00    -0.005 C 
HETATM   11  C   UNK N   1       4.292   6.748   0.000  0.00  0.00     0.005 C 
ENDBRANCH   9  10
ENDBRANCH   8   9
ENDBRANCH   7   8
ENDBRANCH   6   7
ENDBRANCH   5   6
ENDBRANCH   4   5
ENDBRANCH   3   4
ENDBRANCH   2   3
ENDBRANCH   1   2
BRANCH   1  12
HETATM   12  C   UNK N   1      17.751   5.677  -0.000  0.00  0.00     0.000 C 
BRANCH  12  13
HETATM   13  C   UNK N   1      18.900   6.660  -0.000  0.00  0.00     0.000 C 
BRANCH  13  14
HETATM   14  C   UNK N   1      20.172   5.849  -0.000  0.00  0.00     0.000 C 
BRANCH  14  15
HETATM   15  C   UNK N   1      21.398   6.731   0.000  0.00  0.00     0.001 C 
BRANCH  15  16
HETATM   16  C   UNK N   1      22.591   5.803   0.000  0.00  0.00     0.010 C 
BRANCH  16  17
HETATM   17  C   UNK N   1      23.898   6.574   0.000  0.00  0.00     0.110 C 
BRANCH  17  18
HETATM   18  C   UNK N   1      25.083   5.650   0.000  0.00  0.00     0.139 C 
HETATM   19  O   UNK N   1      24.935   4.436   0.000  0.00  0.00    -0.650 OA
BRANCH  18  20
HETATM   20  O   UNK N   1      26.324   6.166  -0.000  0.00  0.00    -0.776 OA
HETATM   21  H   UNK N   1      27.068   5.596  -0.000  0.00  0.00     0.167 HD
ENDBRANCH  18  20
ENDBRANCH  17  18
ENDBRANCH  16  17
ENDBRANCH  15  16
ENDBRANCH  14  15
ENDBRANCH  13  14
ENDBRANCH  12  13
ENDBRANCH   1  12
TORSDOF 17
