MODEL 1
REMARK VINA RESULT:      -3.7      0.000      0.000
REMARK  3 active torsions:
REMARK  status: ('A' for Active; 'I' for Inactive)
REMARK    1  A    between atoms: N_1  and  C_2 
REMARK    2  A    between atoms: C_2  and  C_3 
REMARK    3  A    between atoms: C_3  and  N_4 
ROOT
HETATM    1  N   UNK N   1      31.871  17.402   7.651  0.00  0.00    -0.407 N 
HETATM    2  C   UNK N   1      31.990  17.163   6.229  0.00  0.00     0.143 A 
HETATM    3  C   UNK N   1      33.367  17.401   5.624  0.00  0.00     0.187 A 
HETATM    4  O   UNK N   1      34.468  17.828   6.398  0.00  0.00    -0.388 OA
HETATM    5  C   UNK N   1      34.307  18.049   7.783  0.00  0.00     0.187 A 
HETATM    6  C   UNK N   1      32.974  17.841   8.487  0.00  0.00     0.143 A 
ENDROOT
BRANCH   1   7
HETATM    7  C   UNK N   1      30.542  17.169   8.218  0.00  0.00     0.136 C 
BRANCH   7   8
HETATM    8  C   UNK N   1      29.859  18.441   8.701  0.00  0.00     0.130 C 
BRANCH   8   9
HETATM    9  N   UNK N   1      29.788  18.433  10.150  0.00  0.00    -0.429 N 
HETATM   10  H   UNK N   1      29.888  19.304  10.669  0.00  0.00     0.149 HD
HETATM   11  H   UNK N   1      29.637  17.556  10.648  0.00  0.00     0.149 HD
ENDBRANCH   8   9
ENDBRANCH   7   8
ENDBRANCH   1   7
TORSDOF 3
ENDMDL
MODEL 2
REMARK VINA RESULT:      -3.7      0.371      1.700
REMARK  3 active torsions:
REMARK  status: ('A' for Active; 'I' for Inactive)
REMARK    1  A    between atoms: N_1  and  C_2 
REMARK    2  A    between atoms: C_2  and  C_3 
REMARK    3  A    between atoms: C_3  and  N_4 
ROOT
HETATM    1  N   UNK N   1      31.770  17.495   7.440  0.00  0.00    -0.407 N 
HETATM    2  C   UNK N   1      32.760  17.983   8.376  0.00  0.00     0.143 A 
HETATM    3  C   UNK N   1      34.175  18.134   7.835  0.00  0.00     0.187 A 
HETATM    4  O   UNK N   1      34.510  17.819   6.500  0.00  0.00    -0.388 OA
HETATM    5  C   UNK N   1      33.512  17.346   5.620  0.00  0.00     0.187 A 
HETATM    6  C   UNK N   1      32.067  17.158   6.060  0.00  0.00     0.143 A 
ENDROOT
BRANCH   1   7
HETATM    7  C   UNK N   1      30.415  17.355   7.976  0.00  0.00     0.136 C 
BRANCH   7   8
HETATM    8  C   UNK N   1      30.099  18.347   9.087  0.00  0.00     0.130 C 
BRANCH   8   9
HETATM    9  N   UNK N   1      29.644  17.630  10.263  0.00  0.00    -0.429 N 
HETATM   10  H   UNK N   1      29.830  18.007  11.192  0.00  0.00     0.149 HD
HETATM   11  H   UNK N   1      29.139  16.750  10.161  0.00  0.00     0.149 HD
ENDBRANCH   8   9
ENDBRANCH   7   8
ENDBRANCH   1   7
TORSDOF 3
ENDMDL
MODEL 3
REMARK VINA RESULT:      -3.5      3.024      3.840
REMARK  3 active torsions:
REMARK  status: ('A' for Active; 'I' for Inactive)
REMARK    1  A    between atoms: N_1  and  C_2 
REMARK    2  A    between atoms: C_2  and  C_3 
REMARK    3  A    between atoms: C_3  and  N_4 
ROOT
HETATM    1  N   UNK N   1      34.742  15.899   8.609  0.00  0.00    -0.407 N 
HETATM    2  C   UNK N   1      34.768  17.251   9.123  0.00  0.00     0.143 A 
HETATM    3  C   UNK N   1      34.512  18.357   8.109  0.00  0.00     0.187 A 
HETATM    4  O   UNK N   1      34.264  18.089   6.745  0.00  0.00    -0.388 OA
HETATM    5  C   UNK N   1      34.247  16.753   6.286  0.00  0.00     0.187 A 
HETATM    6  C   UNK N   1      34.491  15.573   7.216  0.00  0.00     0.143 A 
ENDROOT
BRANCH   1   7
HETATM    7  C   UNK N   1      34.990  14.847   9.596  0.00  0.00     0.136 C 
BRANCH   7   8
HETATM    8  C   UNK N   1      34.157  14.998  10.862  0.00  0.00     0.130 C 
BRANCH   8   9
HETATM    9  N   UNK N   1      32.749  14.883  10.533  0.00  0.00    -0.429 N 
HETATM   10  H   UNK N   1      32.393  14.024  10.115  0.00  0.00     0.149 HD
HETATM   11  H   UNK N   1      32.117  15.661  10.719  0.00  0.00     0.149 HD
ENDBRANCH   8   9
ENDBRANCH   7   8
ENDBRANCH   1   7
TORSDOF 3
ENDMDL
MODEL 4
REMARK VINA RESULT:      -3.4      9.431     10.426
REMARK  3 active torsions:
REMARK  status: ('A' for Active; 'I' for Inactive)
REMARK    1  A    between atoms: N_1  and  C_2 
REMARK    2  A    between atoms: C_2  and  C_3 
REMARK    3  A    between atoms: C_3  and  N_4 
ROOT
HETATM    1  N   UNK N   1      36.383  13.796  15.626  0.00  0.00    -0.407 N 
HETATM    2  C   UNK N   1      35.478  13.301  16.641  0.00  0.00     0.143 A 
HETATM    3  C   UNK N   1      35.407  14.113  17.927  0.00  0.00     0.187 A 
HETATM    4  O   UNK N   1      36.175  15.281  18.126  0.00  0.00    -0.388 OA
HETATM    5  C   UNK N   1      37.046  15.728  17.109  0.00  0.00     0.187 A 
HETATM    6  C   UNK N   1      37.193  14.990  15.785  0.00  0.00     0.143 A 
ENDROOT
BRANCH   1   7
HETATM    7  C   UNK N   1      36.440  13.004  14.396  0.00  0.00     0.136 C 
BRANCH   7   8
HETATM    8  C   UNK N   1      36.153  13.816  13.141  0.00  0.00     0.130 C 
BRANCH   8   9
HETATM    9  N   UNK N   1      37.219  13.616  12.179  0.00  0.00    -0.429 N 
HETATM   10  H   UNK N   1      37.023  13.682  11.181  0.00  0.00     0.149 HD
HETATM   11  H   UNK N   1      38.165  13.408  12.500  0.00  0.00     0.149 HD
ENDBRANCH   8   9
ENDBRANCH   7   8
ENDBRANCH   1   7
TORSDOF 3
ENDMDL
MODEL 5
REMARK VINA RESULT:      -3.4     10.015     11.153
REMARK  3 active torsions:
REMARK  status: ('A' for Active; 'I' for Inactive)
REMARK    1  A    between atoms: N_1  and  C_2 
REMARK    2  A    between atoms: C_2  and  C_3 
REMARK    3  A    between atoms: C_3  and  N_4 
ROOT
HETATM    1  N   UNK N   1      22.457  12.872   9.822  0.00  0.00    -0.407 N 
HETATM    2  C   UNK N   1      22.078  12.280  11.087  0.00  0.00     0.143 A 
HETATM    3  C   UNK N   1      23.224  11.856  11.996  0.00  0.00     0.187 A 
HETATM    4  O   UNK N   1      24.578  12.029  11.635  0.00  0.00    -0.388 OA
HETATM    5  C   UNK N   1      24.902  12.612  10.390  0.00  0.00     0.187 A 
HETATM    6  C   UNK N   1      23.834  13.070   9.407  0.00  0.00     0.143 A 
ENDROOT
BRANCH   1   7
HETATM    7  C   UNK N   1      21.344  13.274   8.960  0.00  0.00     0.136 C 
BRANCH   7   8
HETATM    8  C   UNK N   1      20.551  14.453   9.506  0.00  0.00     0.130 C 
BRANCH   8   9
HETATM    9  N   UNK N   1      20.777  15.618   8.672  0.00  0.00    -0.429 N 
HETATM   10  H   UNK N   1      20.614  15.564   7.667  0.00  0.00     0.149 HD
HETATM   11  H   UNK N   1      21.100  16.490   9.090  0.00  0.00     0.149 HD
ENDBRANCH   8   9
ENDBRANCH   7   8
ENDBRANCH   1   7
TORSDOF 3
ENDMDL
MODEL 6
REMARK VINA RESULT:      -3.4     13.211     13.705
REMARK  3 active torsions:
REMARK  status: ('A' for Active; 'I' for Inactive)
REMARK    1  A    between atoms: N_1  and  C_2 
REMARK    2  A    between atoms: C_2  and  C_3 
REMARK    3  A    between atoms: C_3  and  N_4 
ROOT
HETATM    1  N   UNK N   1      19.975  18.053   2.303  0.00  0.00    -0.407 N 
HETATM    2  C   UNK N   1      19.858  17.342   3.557  0.00  0.00     0.143 A 
HETATM    3  C   UNK N   1      19.894  15.822   3.470  0.00  0.00     0.187 A 
HETATM    4  O   UNK N   1      20.034  15.139   2.242  0.00  0.00    -0.388 OA
HETATM    5  C   UNK N   1      20.145  15.874   1.041  0.00  0.00     0.187 A 
HETATM    6  C   UNK N   1      20.121  17.396   1.016  0.00  0.00     0.143 A 
ENDROOT
BRANCH   1   7
HETATM    7  C   UNK N   1      19.939  19.513   2.404  0.00  0.00     0.136 C 
BRANCH   7   8
HETATM    8  C   UNK N   1      21.004  20.204   1.564  0.00  0.00     0.130 C 
BRANCH   8   9
HETATM    9  N   UNK N   1      20.368  20.982   0.518  0.00  0.00    -0.429 N 
HETATM   10  H   UNK N   1      20.939  21.490  -0.156  0.00  0.00     0.149 HD
HETATM   11  H   UNK N   1      19.351  21.021   0.458  0.00  0.00     0.149 HD
ENDBRANCH   8   9
ENDBRANCH   7   8
ENDBRANCH   1   7
TORSDOF 3
ENDMDL
MODEL 7
REMARK VINA RESULT:      -3.3     11.154     12.578
REMARK  3 active torsions:
REMARK  status: ('A' for Active; 'I' for Inactive)
REMARK    1  A    between atoms: N_1  and  C_2 
REMARK    2  A    between atoms: C_2  and  C_3 
REMARK    3  A    between atoms: C_3  and  N_4 
ROOT
HETATM    1  N   UNK N   1      42.320  22.178   2.814  0.00  0.00    -0.407 N 
HETATM    2  C   UNK N   1      41.601  22.959   1.831  0.00  0.00     0.143 A 
HETATM    3  C   UNK N   1      40.461  22.247   1.114  0.00  0.00     0.187 A 
HETATM    4  O   UNK N   1      40.121  20.904   1.386  0.00  0.00    -0.388 OA
HETATM    5  C   UNK N   1      40.851  20.179   2.353  0.00  0.00     0.187 A 
HETATM    6  C   UNK N   1      42.007  20.796   3.127  0.00  0.00     0.143 A 
ENDROOT
BRANCH   1   7
HETATM    7  C   UNK N   1      43.411  22.877   3.494  0.00  0.00     0.136 C 
BRANCH   7   8
HETATM    8  C   UNK N   1      44.327  21.949   4.280  0.00  0.00     0.130 C 
BRANCH   8   9
HETATM    9  N   UNK N   1      45.699  22.404   4.159  0.00  0.00    -0.429 N 
HETATM   10  H   UNK N   1      46.067  23.089   4.818  0.00  0.00     0.149 HD
HETATM   11  H   UNK N   1      46.294  22.039   3.416  0.00  0.00     0.149 HD
ENDBRANCH   8   9
ENDBRANCH   7   8
ENDBRANCH   1   7
TORSDOF 3
ENDMDL
MODEL 8
REMARK VINA RESULT:      -3.2     10.749     11.876
REMARK  3 active torsions:
REMARK  status: ('A' for Active; 'I' for Inactive)
REMARK    1  A    between atoms: N_1  and  C_2 
REMARK    2  A    between atoms: C_2  and  C_3 
REMARK    3  A    between atoms: C_3  and  N_4 
ROOT
HETATM    1  N   UNK N   1      21.632  18.572   3.634  0.00  0.00    -0.407 N 
HETATM    2  C   UNK N   1      23.048  18.845   3.751  0.00  0.00     0.143 A 
HETATM    3  C   UNK N   1      23.512  20.201   3.237  0.00  0.00     0.187 A 
HETATM    4  O   UNK N   1      22.620  21.143   2.678  0.00  0.00    -0.388 OA
HETATM    5  C   UNK N   1      21.245  20.834   2.584  0.00  0.00     0.187 A 
HETATM    6  C   UNK N   1      20.677  19.507   3.068  0.00  0.00     0.143 A 
ENDROOT
BRANCH   1   7
HETATM    7  C   UNK N   1      21.202  17.264   4.133  0.00  0.00     0.136 C 
BRANCH   7   8
HETATM    8  C   UNK N   1      19.721  16.990   3.912  0.00  0.00     0.130 C 
BRANCH   8   9
HETATM    9  N   UNK N   1      19.566  15.847   3.034  0.00  0.00    -0.429 N 
HETATM   10  H   UNK N   1      18.931  15.900   2.237  0.00  0.00     0.149 HD
HETATM   11  H   UNK N   1      20.090  14.991   3.212  0.00  0.00     0.149 HD
ENDBRANCH   8   9
ENDBRANCH   7   8
ENDBRANCH   1   7
TORSDOF 3
ENDMDL
MODEL 9
REMARK VINA RESULT:      -3.2     15.820     16.556
REMARK  3 active torsions:
REMARK  status: ('A' for Active; 'I' for Inactive)
REMARK    1  A    between atoms: N_1  and  C_2 
REMARK    2  A    between atoms: C_2  and  C_3 
REMARK    3  A    between atoms: C_3  and  N_4 
ROOT
HETATM    1  N   UNK N   1      26.153  25.246  -4.865  0.00  0.00    -0.407 N 
HETATM    2  C   UNK N   1      25.335  25.988  -5.800  0.00  0.00     0.143 A 
HETATM    3  C   UNK N   1      24.939  27.395  -5.372  0.00  0.00     0.187 A 
HETATM    4  O   UNK N   1      25.343  27.950  -4.138  0.00  0.00    -0.388 OA
HETATM    5  C   UNK N   1      26.141  27.190  -3.256  0.00  0.00     0.187 A 
HETATM    6  C   UNK N   1      26.592  25.774  -3.586  0.00  0.00     0.143 A 
ENDROOT
BRANCH   1   7
HETATM    7  C   UNK N   1      26.525  23.896  -5.292  0.00  0.00     0.136 C 
BRANCH   7   8
HETATM    8  C   UNK N   1      26.008  23.536  -6.678  0.00  0.00     0.130 C 
BRANCH   8   9
HETATM    9  N   UNK N   1      25.084  22.423  -6.577  0.00  0.00    -0.429 N 
HETATM   10  H   UNK N   1      24.148  22.571  -6.201  0.00  0.00     0.149 HD
HETATM   11  H   UNK N   1      25.370  21.493  -6.883  0.00  0.00     0.149 HD
ENDBRANCH   8   9
ENDBRANCH   7   8
ENDBRANCH   1   7
TORSDOF 3
ENDMDL
