REMARK  4 active torsions:
REMARK  status: ('A' for Active; 'I' for Inactive)
REMARK    1  A    between atoms: C_4  and  C_1 
REMARK    2  A    between atoms: C_6  and  N_14 
REMARK    3  A    between atoms: C_11  and  C_9 
REMARK    4  A    between atoms: C_9  and  O_17 
ROOT
HETATM    1  C   UNK N   1       1.315  -2.482  -0.000  0.00  0.00     0.042 A 
HETATM    2  C   UNK N   1      -0.300  -2.175   0.000  0.00  0.00     0.008 A 
HETATM    3  C   UNK N   1       1.015  -1.532  -0.000  0.00  0.00     0.201 A 
HETATM    4  C   UNK N   1      -0.300  -1.350   0.000  0.00  0.00    -0.027 A 
HETATM    5  C   UNK N   1      -1.015  -2.587   0.000  0.00  0.00     0.132 A 
HETATM    6  C   UNK N   1      -1.015  -0.937  -0.000  0.00  0.00     0.180 A 
HETATM    7  C   UNK N   1      -1.729  -2.775  -0.000  0.00  0.00     0.175 A 
HETATM    8  C   UNK N   1      -1.729  -1.350   0.000  0.00  0.00     0.182 A 
HETATM    9  O   UNK N   1       1.015  -0.112   0.000  0.00  0.00    -0.397 OA
HETATM   10  O   UNK N   1      -0.415  -0.112  -0.000  0.00  0.00    -0.388 OA
HETATM   11  O   UNK N   1      -2.443  -0.937  -0.000  0.00  0.00    -0.390 OA
HETATM   12  H   UNK N   1       1.855   0.372   0.000  0.00  0.00     0.209 HD
HETATM   13  H   UNK N   1       0.550  -0.214   0.000  0.00  0.00     0.210 HD
HETATM   14  H   UNK N   1      -2.443   0.033  -0.000  0.00  0.00     0.210 HD
ENDROOT
BRANCH   7  15
HETATM   15  O   UNK N   1      -2.443  -3.188   0.000  0.00  0.00    -0.391 OA
HETATM   16  H   UNK N   1      -3.283  -2.702   0.000  0.00  0.00     0.210 HD
ENDBRANCH   7  15
BRANCH   5  17
HETATM   17  N   UNK N   1      -0.715  -4.312  -0.000  0.00  0.00    -0.402 N 
HETATM   18  C   UNK N   1      -0.300  -4.425   0.000  0.00  0.00     0.137 A 
HETATM   19  C   UNK N   1       1.015  -4.012  -0.000  0.00  0.00     0.145 A 
HETATM   20  C   UNK N   1      -0.300  -5.250  -0.000  0.00  0.00     0.176 A 
HETATM   21  O   UNK N   1      -1.015  -5.063  -0.000  0.00  0.00    -0.391 OA
HETATM   22  H   UNK N   1      -1.271  -4.127  -0.000  0.00  0.00     0.210 HD
HETATM   23  O   UNK N   1       1.729  -4.425  -0.000  0.00  0.00    -0.352 OA
HETATM   24  C   UNK N   1       1.014  -5.663   0.000  0.00  0.00     0.204 A 
HETATM   25  C   UNK N   1       1.729  -5.250  -0.000  0.00  0.00     0.288 A 
HETATM   26  O   UNK N   1       2.443  -5.063   0.000  0.00  0.00    -0.369 OA
HETATM   27  H   UNK N   1       3.126  -5.752   0.000  0.00  0.00     0.212 HD
HETATM   28  O   UNK N   1       0.414  -6.488  -0.000  0.00  0.00    -0.388 OA
HETATM   29  H   UNK N   1      -0.550  -6.386  -0.000  0.00  0.00     0.210 HD
HETATM   30  H   UNK N   1      -1.468  -5.000  -0.000  0.00  0.00     0.154 HD
BRANCH  19  31
ENDBRANCH  19  31
ENDBRANCH   5  17
TORSDOF 4
