REMARK  2 active torsions:
REMARK  status: ('A' for Active; 'I' for Inactive)
REMARK    1  A    between atoms: N_1  and  C_2 
REMARK    2  A    between atoms: C_3  and  C_2 
ROOT
HETATM    1  C   UNK N   1       0.784   1.262  -0.000  0.00  0.00     0.093 A 
HETATM    2  C   UNK N   1       2.037   0.443   0.000  0.00  0.00     0.028 A 
HETATM    3  C   UNK N   1       1.524  -0.975  -0.000  0.00  0.00     0.021 A 
HETATM    4  C   UNK N   1      -0.002  -0.910   0.000  0.00  0.00     0.114 A 
HETATM    5  N   UNK N   1      -0.438   0.482   0.000  0.00  0.00    -0.415 N 
HETATM    6  H   UNK N   1      -1.397   0.832   0.000  0.00  0.00     0.153 HD
ENDROOT
BRANCH   1   7
HETATM    7  C   UNK N   1       0.751   2.782   0.000  0.00  0.00     0.135 C 
BRANCH   7   8
HETATM    8  N   UNK N   1      -0.618   3.269  -0.000  0.00  0.00    -0.428 N 
HETATM    9  H   UNK N   1      -0.802   4.273  -0.000  0.00  0.00     0.149 HD
HETATM   10  H   UNK N   1      -1.394   2.608  -0.000  0.00  0.00     0.149 HD
ENDBRANCH   7   8
ENDBRANCH   1   7
TORSDOF 2
