MODEL 1
REMARK VINA RESULT:      -5.1      0.000      0.000
REMARK  7 active torsions:
REMARK  status: ('A' for Active; 'I' for Inactive)
REMARK    1  A    between atoms: C_5  and  C_2 
REMARK    2  A    between atoms: N_9  and  C_2 
REMARK    3  A    between atoms: C_6  and  C_3 
REMARK    4  A    between atoms: N_12  and  C_3 
REMARK    5  A    between atoms: C_7  and  C_4 
REMARK    6  A    between atoms: C_4  and  N_10 
REMARK    7  A    between atoms: O_14  and  C_6 
ROOT
HETATM    1  C   UNK N   1      36.006  15.060   9.999  0.00  0.00     0.188 C 
HETATM    2  C   UNK N   1      34.037  14.939   8.685  0.00  0.00     0.205 C 
HETATM    3  C   UNK N   1      35.227  16.312  10.049  0.00  0.00     0.246 C 
HETATM    4  N   UNK N   1      35.341  14.284   8.934  0.00  0.00    -0.386 N 
HETATM    5  N   UNK N   1      34.153  16.256   9.266  0.00  0.00    -0.318 N 
HETATM    6  O   UNK N   1      35.573  17.316  10.651  0.00  0.00    -0.271 OA
HETATM    7  H   UNK N   1      35.709  13.458   8.461  0.00  0.00     0.156 HD
ENDROOT
BRANCH   2   8
HETATM    8  C   UNK N   1      33.658  14.921   7.193  0.00  0.00     0.112 C 
HETATM    9  C   UNK N   1      32.953  13.622   6.836  0.00  0.00     0.035 C 
BRANCH   8  10
HETATM   10  N   UNK N   1      34.859  15.016   6.378  0.00  0.00    -0.423 N 
HETATM   11  H   UNK N   1      35.782  15.065   6.809  0.00  0.00     0.150 HD
HETATM   12  H   UNK N   1      34.776  15.034   5.362  0.00  0.00     0.150 HD
ENDBRANCH   8  10
ENDBRANCH   2   8
BRANCH   5  13
HETATM   13  C   UNK N   1      33.529  17.461   8.743  0.00  0.00     0.237 C 
BRANCH  13  14
HETATM   14  C   UNK N   1      34.445  18.291   7.914  0.00  0.00     0.158 C 
HETATM   15  O   UNK N   1      34.528  18.080   6.716  0.00  0.00    -0.649 OA
BRANCH  14  16
HETATM   16  O   UNK N   1      35.240  19.209   8.491  0.00  0.00    -0.775 OA
HETATM   17  H   UNK N   1      35.723  19.852   8.009  0.00  0.00     0.167 HD
ENDBRANCH  14  16
ENDBRANCH  13  14
ENDBRANCH   5  13
BRANCH   1  18
HETATM   18  C   UNK N   1      36.001  14.300  11.316  0.00  0.00     0.145 C 
BRANCH  18  19
HETATM   19  N   UNK N   1      36.447  15.174  12.391  0.00  0.00    -0.428 N 
HETATM   20  H   UNK N   1      37.121  14.837  13.077  0.00  0.00     0.150 HD
HETATM   21  H   UNK N   1      36.084  16.126  12.457  0.00  0.00     0.150 HD
ENDBRANCH  18  19
ENDBRANCH   1  18
TORSDOF 7
ENDMDL
MODEL 2
REMARK VINA RESULT:      -4.6      3.594      5.486
REMARK  7 active torsions:
REMARK  status: ('A' for Active; 'I' for Inactive)
REMARK    1  A    between atoms: C_5  and  C_2 
REMARK    2  A    between atoms: N_9  and  C_2 
REMARK    3  A    between atoms: C_6  and  C_3 
REMARK    4  A    between atoms: N_12  and  C_3 
REMARK    5  A    between atoms: C_7  and  C_4 
REMARK    6  A    between atoms: C_4  and  N_10 
REMARK    7  A    between atoms: O_14  and  C_6 
ROOT
HETATM    1  C   UNK N   1      30.105  18.154   8.505  0.00  0.00     0.188 C 
HETATM    2  C   UNK N   1      32.028  16.772   8.390  0.00  0.00     0.205 C 
HETATM    3  C   UNK N   1      30.173  17.400   7.239  0.00  0.00     0.246 C 
HETATM    4  N   UNK N   1      31.424  17.909   9.122  0.00  0.00    -0.386 N 
HETATM    5  N   UNK N   1      31.282  16.670   7.157  0.00  0.00    -0.318 N 
HETATM    6  O   UNK N   1      29.367  17.508   6.329  0.00  0.00    -0.271 OA
HETATM    7  H   UNK N   1      31.840  18.423   9.899  0.00  0.00     0.156 HD
ENDROOT
BRANCH   2   8
HETATM    8  C   UNK N   1      33.548  16.940   8.214  0.00  0.00     0.112 C 
HETATM    9  C   UNK N   1      34.291  16.383   9.419  0.00  0.00     0.035 C 
BRANCH   8  10
HETATM   10  N   UNK N   1      33.877  18.352   8.100  0.00  0.00    -0.423 N 
HETATM   11  H   UNK N   1      33.356  18.963   7.472  0.00  0.00     0.150 HD
HETATM   12  H   UNK N   1      34.641  18.736   8.657  0.00  0.00     0.150 HD
ENDBRANCH   8  10
ENDBRANCH   2   8
BRANCH   5  13
HETATM   13  C   UNK N   1      31.833  16.263   5.875  0.00  0.00     0.237 C 
BRANCH  13  14
HETATM   14  C   UNK N   1      32.227  17.408   5.010  0.00  0.00     0.158 C 
HETATM   15  O   UNK N   1      33.334  17.904   5.136  0.00  0.00    -0.649 OA
BRANCH  14  16
HETATM   16  O   UNK N   1      31.343  17.950   4.153  0.00  0.00    -0.775 OA
HETATM   17  H   UNK N   1      30.440  18.092   4.362  0.00  0.00     0.167 HD
ENDBRANCH  14  16
ENDBRANCH  13  14
ENDBRANCH   5  13
BRANCH   1  18
HETATM   18  C   UNK N   1      28.980  17.691   9.418  0.00  0.00     0.145 C 
BRANCH  18  19
HETATM   19  N   UNK N   1      27.736  18.343   9.035  0.00  0.00    -0.428 N 
HETATM   20  H   UNK N   1      27.509  18.470   8.049  0.00  0.00     0.150 HD
HETATM   21  H   UNK N   1      27.091  18.673   9.753  0.00  0.00     0.150 HD
ENDBRANCH  18  19
ENDBRANCH   1  18
TORSDOF 7
ENDMDL
MODEL 3
REMARK VINA RESULT:      -4.6      1.910      3.990
REMARK  7 active torsions:
REMARK  status: ('A' for Active; 'I' for Inactive)
REMARK    1  A    between atoms: C_5  and  C_2 
REMARK    2  A    between atoms: N_9  and  C_2 
REMARK    3  A    between atoms: C_6  and  C_3 
REMARK    4  A    between atoms: N_12  and  C_3 
REMARK    5  A    between atoms: C_7  and  C_4 
REMARK    6  A    between atoms: C_4  and  N_10 
REMARK    7  A    between atoms: O_14  and  C_6 
ROOT
HETATM    1  C   UNK N   1      33.820  16.887   9.089  0.00  0.00     0.188 C 
HETATM    2  C   UNK N   1      34.414  14.636   8.645  0.00  0.00     0.205 C 
HETATM    3  C   UNK N   1      35.048  16.485   9.802  0.00  0.00     0.246 C 
HETATM    4  N   UNK N   1      33.308  15.615   8.542  0.00  0.00    -0.386 N 
HETATM    5  N   UNK N   1      35.343  15.205   9.592  0.00  0.00    -0.318 N 
HETATM    6  O   UNK N   1      35.664  17.203  10.573  0.00  0.00    -0.271 OA
HETATM    7  H   UNK N   1      32.374  15.444   8.168  0.00  0.00     0.156 HD
ENDROOT
BRANCH   2   8
HETATM    8  C   UNK N   1      33.905  13.227   9.004  0.00  0.00     0.112 C 
HETATM    9  C   UNK N   1      34.214  12.246   7.884  0.00  0.00     0.035 C 
BRANCH   8  10
HETATM   10  N   UNK N   1      32.463  13.256   9.187  0.00  0.00    -0.423 N 
HETATM   11  H   UNK N   1      32.029  13.929   9.819  0.00  0.00     0.150 HD
HETATM   12  H   UNK N   1      31.878  12.594   8.677  0.00  0.00     0.150 HD
ENDBRANCH   8  10
ENDBRANCH   2   8
BRANCH   5  13
HETATM   13  C   UNK N   1      36.153  14.447  10.532  0.00  0.00     0.237 C 
BRANCH  13  14
HETATM   14  C   UNK N   1      35.680  14.552  11.940  0.00  0.00     0.158 C 
HETATM   15  O   UNK N   1      34.609  14.061  12.252  0.00  0.00    -0.649 OA
BRANCH  14  16
HETATM   16  O   UNK N   1      36.384  15.256  12.843  0.00  0.00    -0.775 OA
HETATM   17  H   UNK N   1      37.086  14.894  13.349  0.00  0.00     0.167 HD
ENDBRANCH  14  16
ENDBRANCH  13  14
ENDBRANCH   5  13
BRANCH   1  18
HETATM   18  C   UNK N   1      34.076  17.897   7.980  0.00  0.00     0.145 C 
BRANCH  18  19
HETATM   19  N   UNK N   1      34.946  18.956   8.470  0.00  0.00    -0.428 N 
HETATM   20  H   UNK N   1      34.751  19.403   9.365  0.00  0.00     0.150 HD
HETATM   21  H   UNK N   1      35.752  19.249   7.918  0.00  0.00     0.150 HD
ENDBRANCH  18  19
ENDBRANCH   1  18
TORSDOF 7
ENDMDL
MODEL 4
REMARK VINA RESULT:      -4.5      4.088      7.016
REMARK  7 active torsions:
REMARK  status: ('A' for Active; 'I' for Inactive)
REMARK    1  A    between atoms: C_5  and  C_2 
REMARK    2  A    between atoms: N_9  and  C_2 
REMARK    3  A    between atoms: C_6  and  C_3 
REMARK    4  A    between atoms: N_12  and  C_3 
REMARK    5  A    between atoms: C_7  and  C_4 
REMARK    6  A    between atoms: C_4  and  N_10 
REMARK    7  A    between atoms: O_14  and  C_6 
ROOT
HETATM    1  C   UNK N   1      36.010  14.642  11.671  0.00  0.00     0.188 C 
HETATM    2  C   UNK N   1      35.629  13.822  13.862  0.00  0.00     0.205 C 
HETATM    3  C   UNK N   1      35.552  13.239  11.668  0.00  0.00     0.246 C 
HETATM    4  N   UNK N   1      36.272  14.914  13.098  0.00  0.00    -0.386 N 
HETATM    5  N   UNK N   1      35.394  12.769  12.902  0.00  0.00    -0.318 N 
HETATM    6  O   UNK N   1      35.432  12.556  10.664  0.00  0.00    -0.271 OA
HETATM    7  H   UNK N   1      36.797  15.701  13.483  0.00  0.00     0.156 HD
ENDROOT
BRANCH   2   8
HETATM    8  C   UNK N   1      36.462  13.406  15.089  0.00  0.00     0.112 C 
HETATM    9  C   UNK N   1      35.559  13.134  16.282  0.00  0.00     0.035 C 
BRANCH   8  10
HETATM   10  N   UNK N   1      37.372  14.480  15.452  0.00  0.00    -0.423 N 
HETATM   11  H   UNK N   1      37.028  15.329  15.901  0.00  0.00     0.150 HD
HETATM   12  H   UNK N   1      38.368  14.382  15.256  0.00  0.00     0.150 HD
ENDBRANCH   8  10
ENDBRANCH   2   8
BRANCH   5  13
HETATM   13  C   UNK N   1      35.457  11.344  13.188  0.00  0.00     0.237 C 
BRANCH  13  14
HETATM   14  C   UNK N   1      34.119  10.718  13.372  0.00  0.00     0.158 C 
HETATM   15  O   UNK N   1      33.570  10.184  12.424  0.00  0.00    -0.649 OA
BRANCH  14  16
HETATM   16  O   UNK N   1      33.481  10.814  14.552  0.00  0.00    -0.775 OA
HETATM   17  H   UNK N   1      33.592  10.200  15.252  0.00  0.00     0.167 HD
ENDBRANCH  14  16
ENDBRANCH  13  14
ENDBRANCH   5  13
BRANCH   1  18
HETATM   18  C   UNK N   1      34.978  15.608  11.110  0.00  0.00     0.145 C 
BRANCH  18  19
HETATM   19  N   UNK N   1      33.695  14.934  10.974  0.00  0.00    -0.428 N 
HETATM   20  H   UNK N   1      32.898  15.235  11.535  0.00  0.00     0.150 HD
HETATM   21  H   UNK N   1      33.592  14.161  10.317  0.00  0.00     0.150 HD
ENDBRANCH  18  19
ENDBRANCH   1  18
TORSDOF 7
ENDMDL
MODEL 5
REMARK VINA RESULT:      -4.5      4.166      5.561
REMARK  7 active torsions:
REMARK  status: ('A' for Active; 'I' for Inactive)
REMARK    1  A    between atoms: C_5  and  C_2 
REMARK    2  A    between atoms: N_9  and  C_2 
REMARK    3  A    between atoms: C_6  and  C_3 
REMARK    4  A    between atoms: N_12  and  C_3 
REMARK    5  A    between atoms: C_7  and  C_4 
REMARK    6  A    between atoms: C_4  and  N_10 
REMARK    7  A    between atoms: O_14  and  C_6 
ROOT
HETATM    1  C   UNK N   1      29.145  17.248   7.324  0.00  0.00     0.188 C 
HETATM    2  C   UNK N   1      30.896  17.408   5.735  0.00  0.00     0.205 C 
HETATM    3  C   UNK N   1      30.477  17.140   7.951  0.00  0.00     0.246 C 
HETATM    4  N   UNK N   1      29.440  17.184   5.879  0.00  0.00    -0.386 N 
HETATM    5  N   UNK N   1      31.452  17.175   7.047  0.00  0.00    -0.318 N 
HETATM    6  O   UNK N   1      30.664  16.939   9.140  0.00  0.00    -0.271 OA
HETATM    7  H   UNK N   1      28.771  17.018   5.127  0.00  0.00     0.156 HD
ENDROOT
BRANCH   2   8
HETATM    8  C   UNK N   1      31.504  16.547   4.612  0.00  0.00     0.112 C 
HETATM    9  C   UNK N   1      32.401  17.389   3.718  0.00  0.00     0.035 C 
BRANCH   8  10
HETATM   10  N   UNK N   1      30.443  15.993   3.787  0.00  0.00    -0.423 N 
HETATM   11  H   UNK N   1      29.498  15.881   4.153  0.00  0.00     0.150 HD
HETATM   12  H   UNK N   1      30.647  15.713   2.827  0.00  0.00     0.150 HD
ENDBRANCH   8  10
ENDBRANCH   2   8
BRANCH   5  13
HETATM   13  C   UNK N   1      32.758  16.594   7.314  0.00  0.00     0.237 C 
BRANCH  13  14
HETATM   14  C   UNK N   1      33.720  17.554   7.919  0.00  0.00     0.158 C 
HETATM   15  O   UNK N   1      34.496  18.161   7.201  0.00  0.00    -0.649 OA
BRANCH  14  16
HETATM   16  O   UNK N   1      33.795  17.691   9.255  0.00  0.00    -0.775 OA
HETATM   17  H   UNK N   1      34.601  17.809   9.720  0.00  0.00     0.167 HD
ENDBRANCH  14  16
ENDBRANCH  13  14
ENDBRANCH   5  13
BRANCH   1  18
HETATM   18  C   UNK N   1      28.419  18.537   7.679  0.00  0.00     0.145 C 
BRANCH  18  19
HETATM   19  N   UNK N   1      27.806  18.409   8.993  0.00  0.00    -0.428 N 
HETATM   20  H   UNK N   1      27.842  19.187   9.651  0.00  0.00     0.150 HD
HETATM   21  H   UNK N   1      27.337  17.542   9.255  0.00  0.00     0.150 HD
ENDBRANCH  18  19
ENDBRANCH   1  18
TORSDOF 7
ENDMDL
MODEL 6
REMARK VINA RESULT:      -4.5     12.983     14.482
REMARK  7 active torsions:
REMARK  status: ('A' for Active; 'I' for Inactive)
REMARK    1  A    between atoms: C_5  and  C_2 
REMARK    2  A    between atoms: N_9  and  C_2 
REMARK    3  A    between atoms: C_6  and  C_3 
REMARK    4  A    between atoms: N_12  and  C_3 
REMARK    5  A    between atoms: C_7  and  C_4 
REMARK    6  A    between atoms: C_4  and  N_10 
REMARK    7  A    between atoms: O_14  and  C_6 
ROOT
HETATM    1  C   UNK N   1      44.802  25.320   0.782  0.00  0.00     0.188 C 
HETATM    2  C   UNK N   1      43.212  23.576   1.001  0.00  0.00     0.205 C 
HETATM    3  C   UNK N   1      45.036  24.503   1.989  0.00  0.00     0.246 C 
HETATM    4  N   UNK N   1      43.491  24.847   0.296  0.00  0.00    -0.386 N 
HETATM    5  N   UNK N   1      44.107  23.561   2.135  0.00  0.00    -0.318 N 
HETATM    6  O   UNK N   1      45.910  24.722   2.811  0.00  0.00    -0.271 OA
HETATM    7  H   UNK N   1      42.893  25.308  -0.391  0.00  0.00     0.156 HD
ENDROOT
BRANCH   2   8
HETATM    8  C   UNK N   1      41.720  23.426   1.353  0.00  0.00     0.112 C 
HETATM    9  C   UNK N   1      41.039  22.463   0.394  0.00  0.00     0.035 C 
BRANCH   8  10
HETATM   10  N   UNK N   1      41.056  24.714   1.240  0.00  0.00    -0.423 N 
HETATM   11  H   UNK N   1      40.314  24.980   1.887  0.00  0.00     0.150 HD
HETATM   12  H   UNK N   1      41.337  25.361   0.503  0.00  0.00     0.150 HD
ENDBRANCH   8  10
ENDBRANCH   2   8
BRANCH   5  13
HETATM   13  C   UNK N   1      43.805  22.985   3.435  0.00  0.00     0.237 C 
BRANCH  13  14
HETATM   14  C   UNK N   1      44.678  21.833   3.789  0.00  0.00     0.158 C 
HETATM   15  O   UNK N   1      44.239  20.699   3.708  0.00  0.00    -0.649 OA
BRANCH  14  16
HETATM   16  O   UNK N   1      45.914  22.041   4.277  0.00  0.00    -0.775 OA
HETATM   17  H   UNK N   1      46.287  21.538   4.975  0.00  0.00     0.167 HD
ENDBRANCH  14  16
ENDBRANCH  13  14
ENDBRANCH   5  13
BRANCH   1  18
HETATM   18  C   UNK N   1      45.877  25.140  -0.279  0.00  0.00     0.145 C 
BRANCH  18  19
HETATM   19  N   UNK N   1      46.904  24.232   0.210  0.00  0.00    -0.428 N 
HETATM   20  H   UNK N   1      47.860  24.308  -0.137  0.00  0.00     0.150 HD
HETATM   21  H   UNK N   1      46.668  23.519   0.901  0.00  0.00     0.150 HD
ENDBRANCH  18  19
ENDBRANCH   1  18
TORSDOF 7
ENDMDL
MODEL 7
REMARK VINA RESULT:      -4.4     12.767     14.304
REMARK  7 active torsions:
REMARK  status: ('A' for Active; 'I' for Inactive)
REMARK    1  A    between atoms: C_5  and  C_2 
REMARK    2  A    between atoms: N_9  and  C_2 
REMARK    3  A    between atoms: C_6  and  C_3 
REMARK    4  A    between atoms: N_12  and  C_3 
REMARK    5  A    between atoms: C_7  and  C_4 
REMARK    6  A    between atoms: C_4  and  N_10 
REMARK    7  A    between atoms: O_14  and  C_6 
ROOT
HETATM    1  C   UNK N   1      45.753  24.554   1.204  0.00  0.00     0.188 C 
HETATM    2  C   UNK N   1      44.454  23.556   2.917  0.00  0.00     0.205 C 
HETATM    3  C   UNK N   1      44.428  24.123   0.718  0.00  0.00     0.246 C 
HETATM    4  N   UNK N   1      45.829  23.968   2.556  0.00  0.00    -0.386 N 
HETATM    5  N   UNK N   1      43.727  23.515   1.670  0.00  0.00    -0.318 N 
HETATM    6  O   UNK N   1      44.055  24.217  -0.441  0.00  0.00    -0.271 OA
HETATM    7  H   UNK N   1      46.667  23.865   3.130  0.00  0.00     0.156 HD
ENDROOT
BRANCH   2   8
HETATM    8  C   UNK N   1      44.436  22.243   3.721  0.00  0.00     0.112 C 
HETATM    9  C   UNK N   1      43.556  22.382   4.953  0.00  0.00     0.035 C 
BRANCH   8  10
HETATM   10  N   UNK N   1      45.782  21.921   4.167  0.00  0.00    -0.423 N 
HETATM   11  H   UNK N   1      46.025  21.943   5.157  0.00  0.00     0.150 HD
HETATM   12  H   UNK N   1      46.492  21.669   3.480  0.00  0.00     0.150 HD
ENDBRANCH   8  10
ENDBRANCH   2   8
BRANCH   5  13
HETATM   13  C   UNK N   1      42.663  22.576   1.350  0.00  0.00     0.237 C 
BRANCH  13  14
HETATM   14  C   UNK N   1      41.331  22.991   1.869  0.00  0.00     0.158 C 
HETATM   15  O   UNK N   1      40.531  22.141   2.217  0.00  0.00    -0.649 OA
BRANCH  14  16
HETATM   16  O   UNK N   1      40.978  24.289   1.874  0.00  0.00    -0.775 OA
HETATM   17  H   UNK N   1      40.114  24.591   1.671  0.00  0.00     0.167 HD
ENDBRANCH  14  16
ENDBRANCH  13  14
ENDBRANCH   5  13
BRANCH   1  18
HETATM   18  C   UNK N   1      45.909  26.067   1.252  0.00  0.00     0.145 C 
BRANCH  18  19
HETATM   19  N   UNK N   1      44.735  26.701   0.673  0.00  0.00    -0.428 N 
HETATM   20  H   UNK N   1      44.619  26.732  -0.340  0.00  0.00     0.150 HD
HETATM   21  H   UNK N   1      44.027  27.115   1.280  0.00  0.00     0.150 HD
ENDBRANCH  18  19
ENDBRANCH   1  18
TORSDOF 7
ENDMDL
MODEL 8
REMARK VINA RESULT:      -4.3      4.725      6.573
REMARK  7 active torsions:
REMARK  status: ('A' for Active; 'I' for Inactive)
REMARK    1  A    between atoms: C_5  and  C_2 
REMARK    2  A    between atoms: N_9  and  C_2 
REMARK    3  A    between atoms: C_6  and  C_3 
REMARK    4  A    between atoms: N_12  and  C_3 
REMARK    5  A    between atoms: C_7  and  C_4 
REMARK    6  A    between atoms: C_4  and  N_10 
REMARK    7  A    between atoms: O_14  and  C_6 
ROOT
HETATM    1  C   UNK N   1      29.845  15.942   6.020  0.00  0.00     0.188 C 
HETATM    2  C   UNK N   1      31.372  17.243   7.283  0.00  0.00     0.205 C 
HETATM    3  C   UNK N   1      29.191  17.098   6.664  0.00  0.00     0.246 C 
HETATM    4  N   UNK N   1      31.192  15.930   6.624  0.00  0.00    -0.386 N 
HETATM    5  N   UNK N   1      30.042  17.790   7.416  0.00  0.00    -0.318 N 
HETATM    6  O   UNK N   1      27.995  17.335   6.603  0.00  0.00    -0.271 OA
HETATM    7  H   UNK N   1      31.867  15.165   6.594  0.00  0.00     0.156 HD
ENDROOT
BRANCH   2   8
HETATM    8  C   UNK N   1      32.157  17.123   8.603  0.00  0.00     0.112 C 
HETATM    9  C   UNK N   1      33.654  17.135   8.337  0.00  0.00     0.035 C 
BRANCH   8  10
HETATM   10  N   UNK N   1      31.830  15.868   9.259  0.00  0.00    -0.423 N 
HETATM   11  H   UNK N   1      31.795  15.801  10.276  0.00  0.00     0.150 HD
HETATM   12  H   UNK N   1      31.632  15.042   8.693  0.00  0.00     0.150 HD
ENDBRANCH   8  10
ENDBRANCH   2   8
BRANCH   5  13
HETATM   13  C   UNK N   1      29.583  18.620   8.518  0.00  0.00     0.237 C 
BRANCH  13  14
HETATM   14  C   UNK N   1      28.684  17.903   9.464  0.00  0.00     0.158 C 
HETATM   15  O   UNK N   1      29.150  17.063  10.215  0.00  0.00    -0.649 OA
BRANCH  14  16
HETATM   16  O   UNK N   1      27.357  18.117   9.435  0.00  0.00    -0.775 OA
HETATM   17  H   UNK N   1      26.785  17.735   8.797  0.00  0.00     0.167 HD
ENDBRANCH  14  16
ENDBRANCH  13  14
ENDBRANCH   5  13
BRANCH   1  18
HETATM   18  C   UNK N   1      29.924  16.067   4.506  0.00  0.00     0.145 C 
BRANCH  18  19
HETATM   19  N   UNK N   1      29.577  17.423   4.106  0.00  0.00    -0.428 N 
HETATM   20  H   UNK N   1      29.377  17.631   3.128  0.00  0.00     0.150 HD
HETATM   21  H   UNK N   1      29.533  18.165   4.804  0.00  0.00     0.150 HD
ENDBRANCH  18  19
ENDBRANCH   1  18
TORSDOF 7
ENDMDL
MODEL 9
REMARK VINA RESULT:      -4.3      4.251      5.779
REMARK  7 active torsions:
REMARK  status: ('A' for Active; 'I' for Inactive)
REMARK    1  A    between atoms: C_5  and  C_2 
REMARK    2  A    between atoms: N_9  and  C_2 
REMARK    3  A    between atoms: C_6  and  C_3 
REMARK    4  A    between atoms: N_12  and  C_3 
REMARK    5  A    between atoms: C_7  and  C_4 
REMARK    6  A    between atoms: C_4  and  N_10 
REMARK    7  A    between atoms: O_14  and  C_6 
ROOT
HETATM    1  C   UNK N   1      29.113  17.305   7.404  0.00  0.00     0.188 C 
HETATM    2  C   UNK N   1      31.277  17.401   6.443  0.00  0.00     0.205 C 
HETATM    3  C   UNK N   1      30.178  17.182   8.418  0.00  0.00     0.246 C 
HETATM    4  N   UNK N   1      29.844  17.210   6.126  0.00  0.00    -0.386 N 
HETATM    5  N   UNK N   1      31.388  17.180   7.866  0.00  0.00    -0.318 N 
HETATM    6  O   UNK N   1      29.978  16.999   9.609  0.00  0.00    -0.271 OA
HETATM    7  H   UNK N   1      29.441  17.043   5.203  0.00  0.00     0.156 HD
ENDROOT
BRANCH   2   8
HETATM    8  C   UNK N   1      32.185  16.507   5.577  0.00  0.00     0.112 C 
HETATM    9  C   UNK N   1      32.500  17.187   4.254  0.00  0.00     0.035 C 
BRANCH   8  10
HETATM   10  N   UNK N   1      31.508  15.254   5.286  0.00  0.00    -0.423 N 
HETATM   11  H   UNK N   1      31.967  14.524   4.741  0.00  0.00     0.150 HD
HETATM   12  H   UNK N   1      30.560  15.103   5.631  0.00  0.00     0.150 HD
ENDBRANCH   8  10
ENDBRANCH   2   8
BRANCH   5  13
HETATM   13  C   UNK N   1      32.529  16.578   8.535  0.00  0.00     0.237 C 
BRANCH  13  14
HETATM   14  C   UNK N   1      32.269  15.196   9.023  0.00  0.00     0.158 C 
HETATM   15  O   UNK N   1      32.137  14.291   8.218  0.00  0.00    -0.649 OA
BRANCH  14  16
HETATM   16  O   UNK N   1      32.095  14.960  10.335  0.00  0.00    -0.775 OA
HETATM   17  H   UNK N   1      32.045  15.637  10.981  0.00  0.00     0.167 HD
ENDBRANCH  14  16
ENDBRANCH  13  14
ENDBRANCH   5  13
BRANCH   1  18
HETATM   18  C   UNK N   1      28.345  18.615   7.500  0.00  0.00     0.145 C 
BRANCH  18  19
HETATM   19  N   UNK N   1      27.679  18.701   8.791  0.00  0.00    -0.428 N 
HETATM   20  H   UNK N   1      27.138  17.911   9.141  0.00  0.00     0.150 HD
HETATM   21  H   UNK N   1      27.755  19.553   9.348  0.00  0.00     0.150 HD
ENDBRANCH  18  19
ENDBRANCH   1  18
TORSDOF 7
ENDMDL
