MODEL 1
REMARK VINA RESULT:      -4.9      0.000      0.000
REMARK  6 active torsions:
REMARK  status: ('A' for Active; 'I' for Inactive)
REMARK    1  A    between atoms: C_3  and  C_2 
REMARK    2  A    between atoms: O_8  and  C_2 
REMARK    3  A    between atoms: C_4  and  O_9 
REMARK    4  A    between atoms: C_5  and  O_10 
REMARK    5  A    between atoms: C_6  and  O_11 
REMARK    6  A    between atoms: C_7  and  O_12 
ROOT
HETATM    1  C   UNK N   1      21.943  12.795  10.904  0.00  0.00     0.015 C 
HETATM    2  C   UNK N   1      23.121  12.329  11.353  0.00  0.00    -0.027 C 
HETATM    3  C   UNK N   1      21.743  13.388   9.532  0.00  0.00     0.172 C 
HETATM    4  C   UNK N   1      24.382  12.400  10.493  0.00  0.00     0.180 C 
HETATM    5  C   UNK N   1      22.900  13.056   8.572  0.00  0.00     0.182 C 
HETATM    6  C   UNK N   1      24.224  13.335   9.275  0.00  0.00     0.182 C 
ENDROOT
BRANCH   2   7
HETATM    7  C   UNK N   1      23.124  11.664  12.704  0.00  0.00     0.201 C 
BRANCH   7   8
HETATM    8  O   UNK N   1      23.824  12.402  13.660  0.00  0.00    -0.397 OA
HETATM    9  H   UNK N   1      23.502  13.266  13.960  0.00  0.00     0.209 HD
ENDBRANCH   7   8
ENDBRANCH   2   7
BRANCH   4  10
HETATM   10  O   UNK N   1      25.464  12.857  11.249  0.00  0.00    -0.388 OA
HETATM   11  H   UNK N   1      26.195  12.359  11.647  0.00  0.00     0.210 HD
ENDBRANCH   4  10
BRANCH   3  12
HETATM   12  O   UNK N   1      20.547  12.917   8.991  0.00  0.00    -0.389 OA
HETATM   13  H   UNK N   1      20.303  12.832   8.056  0.00  0.00     0.210 HD
ENDBRANCH   3  12
BRANCH   6  14
HETATM   14  O   UNK N   1      25.297  13.144   8.399  0.00  0.00    -0.390 OA
HETATM   15  H   UNK N   1      25.231  12.635   7.577  0.00  0.00     0.210 HD
ENDBRANCH   6  14
BRANCH   5  16
HETATM   16  O   UNK N   1      22.784  13.838   7.419  0.00  0.00    -0.390 OA
HETATM   17  H   UNK N   1      22.035  13.741   6.810  0.00  0.00     0.210 HD
ENDBRANCH   5  16
TORSDOF 6
ENDMDL
MODEL 2
REMARK VINA RESULT:      -4.9      8.367     10.189
REMARK  6 active torsions:
REMARK  status: ('A' for Active; 'I' for Inactive)
REMARK    1  A    between atoms: C_3  and  C_2 
REMARK    2  A    between atoms: O_8  and  C_2 
REMARK    3  A    between atoms: C_4  and  O_9 
REMARK    4  A    between atoms: C_5  and  O_10 
REMARK    5  A    between atoms: C_6  and  O_11 
REMARK    6  A    between atoms: C_7  and  O_12 
ROOT
HETATM    1  C   UNK N   1      20.250  17.529   2.263  0.00  0.00     0.015 C 
HETATM    2  C   UNK N   1      20.829  17.919   3.412  0.00  0.00    -0.027 C 
HETATM    3  C   UNK N   1      20.067  18.432   1.069  0.00  0.00     0.172 C 
HETATM    4  C   UNK N   1      21.323  19.351   3.606  0.00  0.00     0.180 C 
HETATM    5  C   UNK N   1      20.939  19.697   1.147  0.00  0.00     0.182 C 
HETATM    6  C   UNK N   1      20.788  20.320   2.531  0.00  0.00     0.182 C 
ENDROOT
BRANCH   2   7
HETATM    7  C   UNK N   1      21.038  16.862   4.465  0.00  0.00     0.201 C 
BRANCH   7   8
HETATM    8  O   UNK N   1      22.038  17.207   5.375  0.00  0.00    -0.397 OA
HETATM    9  H   UNK N   1      21.836  17.728   6.167  0.00  0.00     0.209 HD
ENDBRANCH   7   8
ENDBRANCH   2   7
BRANCH   4  10
HETATM   10  O   UNK N   1      20.934  19.838   4.856  0.00  0.00    -0.388 OA
HETATM   11  H   UNK N   1      20.114  19.688   5.351  0.00  0.00     0.210 HD
ENDBRANCH   4  10
BRANCH   3  12
HETATM   12  O   UNK N   1      20.377  17.730  -0.097  0.00  0.00    -0.389 OA
HETATM   13  H   UNK N   1      20.261  16.784  -0.277  0.00  0.00     0.210 HD
ENDBRANCH   3  12
BRANCH   6  14
HETATM   14  O   UNK N   1      21.484  21.530   2.606  0.00  0.00    -0.390 OA
HETATM   15  H   UNK N   1      22.108  21.745   3.316  0.00  0.00     0.210 HD
ENDBRANCH   6  14
BRANCH   5  16
HETATM   16  O   UNK N   1      20.535  20.600   0.158  0.00  0.00    -0.390 OA
HETATM   17  H   UNK N   1      20.977  20.642  -0.705  0.00  0.00     0.210 HD
ENDBRANCH   5  16
TORSDOF 6
ENDMDL
MODEL 3
REMARK VINA RESULT:      -4.9     10.048     11.714
REMARK  6 active torsions:
REMARK  status: ('A' for Active; 'I' for Inactive)
REMARK    1  A    between atoms: C_3  and  C_2 
REMARK    2  A    between atoms: O_8  and  C_2 
REMARK    3  A    between atoms: C_4  and  O_9 
REMARK    4  A    between atoms: C_5  and  O_10 
REMARK    5  A    between atoms: C_6  and  O_11 
REMARK    6  A    between atoms: C_7  and  O_12 
ROOT
HETATM    1  C   UNK N   1      33.069  16.308   7.308  0.00  0.00     0.015 C 
HETATM    2  C   UNK N   1      33.326  15.382   8.248  0.00  0.00    -0.027 C 
HETATM    3  C   UNK N   1      33.665  17.693   7.312  0.00  0.00     0.172 C 
HETATM    4  C   UNK N   1      34.236  15.688   9.436  0.00  0.00     0.180 C 
HETATM    5  C   UNK N   1      34.875  17.813   8.256  0.00  0.00     0.182 C 
HETATM    6  C   UNK N   1      34.515  17.196   9.604  0.00  0.00     0.182 C 
ENDROOT
BRANCH   2   7
HETATM    7  C   UNK N   1      32.741  14.011   8.034  0.00  0.00     0.201 C 
BRANCH   7   8
HETATM    8  O   UNK N   1      32.173  13.486   9.197  0.00  0.00    -0.397 OA
HETATM    9  H   UNK N   1      31.239  13.636   9.409  0.00  0.00     0.209 HD
ENDBRANCH   7   8
ENDBRANCH   2   7
BRANCH   4  10
HETATM   10  O   UNK N   1      33.666  15.221  10.623  0.00  0.00    -0.388 OA
HETATM   11  H   UNK N   1      32.734  15.178  10.886  0.00  0.00     0.210 HD
ENDBRANCH   4  10
BRANCH   3  12
HETATM   12  O   UNK N   1      34.056  18.035   6.017  0.00  0.00    -0.389 OA
HETATM   13  H   UNK N   1      34.638  18.759   5.737  0.00  0.00     0.210 HD
ENDBRANCH   3  12
BRANCH   6  14
HETATM   14  O   UNK N   1      35.554  17.379  10.522  0.00  0.00    -0.390 OA
HETATM   15  H   UNK N   1      35.447  17.849  11.363  0.00  0.00     0.210 HD
ENDBRANCH   6  14
BRANCH   5  16
HETATM   16  O   UNK N   1      35.212  19.161   8.409  0.00  0.00    -0.390 OA
HETATM   17  H   UNK N   1      35.126  19.795   7.679  0.00  0.00     0.210 HD
ENDBRANCH   5  16
TORSDOF 6
ENDMDL
MODEL 4
REMARK VINA RESULT:      -4.8      7.864      9.757
REMARK  6 active torsions:
REMARK  status: ('A' for Active; 'I' for Inactive)
REMARK    1  A    between atoms: C_3  and  C_2 
REMARK    2  A    between atoms: O_8  and  C_2 
REMARK    3  A    between atoms: C_4  and  O_9 
REMARK    4  A    between atoms: C_5  and  O_10 
REMARK    5  A    between atoms: C_6  and  O_11 
REMARK    6  A    between atoms: C_7  and  O_12 
ROOT
HETATM    1  C   UNK N   1      22.083  19.452   3.987  0.00  0.00     0.015 C 
HETATM    2  C   UNK N   1      21.353  18.431   4.469  0.00  0.00    -0.027 C 
HETATM    3  C   UNK N   1      21.834  20.102   2.649  0.00  0.00     0.172 C 
HETATM    4  C   UNK N   1      20.212  17.819   3.658  0.00  0.00     0.180 C 
HETATM    5  C   UNK N   1      20.449  19.755   2.073  0.00  0.00     0.182 C 
HETATM    6  C   UNK N   1      20.232  18.249   2.176  0.00  0.00     0.182 C 
ENDROOT
BRANCH   2   7
HETATM    7  C   UNK N   1      21.660  17.973   5.870  0.00  0.00     0.201 C 
BRANCH   7   8
HETATM    8  O   UNK N   1      21.046  18.770   6.838  0.00  0.00    -0.397 OA
HETATM    9  H   UNK N   1      21.462  18.918   7.701  0.00  0.00     0.209 HD
ENDBRANCH   7   8
ENDBRANCH   2   7
BRANCH   4  10
HETATM   10  O   UNK N   1      20.272  16.424   3.703  0.00  0.00    -0.388 OA
HETATM   11  H   UNK N   1      21.041  15.836   3.639  0.00  0.00     0.210 HD
ENDBRANCH   4  10
BRANCH   3  12
HETATM   12  O   UNK N   1      21.944  21.487   2.778  0.00  0.00    -0.389 OA
HETATM   13  H   UNK N   1      21.606  22.174   2.181  0.00  0.00     0.210 HD
ENDBRANCH   3  12
BRANCH   6  14
HETATM   14  O   UNK N   1      19.028  17.882   1.567  0.00  0.00    -0.390 OA
HETATM   15  H   UNK N   1      18.979  17.340   0.765  0.00  0.00     0.210 HD
ENDBRANCH   6  14
BRANCH   5  16
HETATM   16  O   UNK N   1      20.386  20.168   0.739  0.00  0.00    -0.390 OA
HETATM   17  H   UNK N   1      19.538  20.341   0.298  0.00  0.00     0.210 HD
ENDBRANCH   5  16
TORSDOF 6
ENDMDL
MODEL 5
REMARK VINA RESULT:      -4.7      8.018     10.601
REMARK  6 active torsions:
REMARK  status: ('A' for Active; 'I' for Inactive)
REMARK    1  A    between atoms: C_3  and  C_2 
REMARK    2  A    between atoms: O_8  and  C_2 
REMARK    3  A    between atoms: C_4  and  O_9 
REMARK    4  A    between atoms: C_5  and  O_10 
REMARK    5  A    between atoms: C_6  and  O_11 
REMARK    6  A    between atoms: C_7  and  O_12 
ROOT
HETATM    1  C   UNK N   1      21.803  19.791   3.066  0.00  0.00     0.015 C 
HETATM    2  C   UNK N   1      20.710  19.718   2.287  0.00  0.00    -0.027 C 
HETATM    3  C   UNK N   1      22.221  18.707   4.027  0.00  0.00     0.172 C 
HETATM    4  C   UNK N   1      19.771  18.514   2.348  0.00  0.00     0.180 C 
HETATM    5  C   UNK N   1      21.513  17.369   3.752  0.00  0.00     0.182 C 
HETATM    6  C   UNK N   1      20.018  17.623   3.583  0.00  0.00     0.182 C 
ENDROOT
BRANCH   2   7
HETATM    7  C   UNK N   1      20.497  20.835   1.301  0.00  0.00     0.201 C 
BRANCH   7   8
HETATM    8  O   UNK N   1      20.630  20.411  -0.023  0.00  0.00    -0.397 OA
HETATM    9  H   UNK N   1      21.062  19.570  -0.238  0.00  0.00     0.209 HD
ENDBRANCH   7   8
ENDBRANCH   2   7
BRANCH   4  10
HETATM   10  O   UNK N   1      18.439  18.933   2.379  0.00  0.00    -0.388 OA
HETATM   11  H   UNK N   1      17.629  18.433   2.198  0.00  0.00     0.210 HD
ENDBRANCH   4  10
BRANCH   3  12
HETATM   12  O   UNK N   1      23.602  18.522   3.947  0.00  0.00    -0.389 OA
HETATM   13  H   UNK N   1      24.295  19.197   3.884  0.00  0.00     0.210 HD
ENDBRANCH   3  12
BRANCH   6  14
HETATM   14  O   UNK N   1      19.326  16.418   3.435  0.00  0.00    -0.390 OA
HETATM   15  H   UNK N   1      19.734  15.606   3.095  0.00  0.00     0.210 HD
ENDBRANCH   6  14
BRANCH   5  16
HETATM   16  O   UNK N   1      21.743  16.494   4.818  0.00  0.00    -0.390 OA
HETATM   17  H   UNK N   1      21.589  16.761   5.739  0.00  0.00     0.210 HD
ENDBRANCH   5  16
TORSDOF 6
ENDMDL
MODEL 6
REMARK VINA RESULT:      -4.7     10.051     11.783
REMARK  6 active torsions:
REMARK  status: ('A' for Active; 'I' for Inactive)
REMARK    1  A    between atoms: C_3  and  C_2 
REMARK    2  A    between atoms: O_8  and  C_2 
REMARK    3  A    between atoms: C_4  and  O_9 
REMARK    4  A    between atoms: C_5  and  O_10 
REMARK    5  A    between atoms: C_6  and  O_11 
REMARK    6  A    between atoms: C_7  and  O_12 
ROOT
HETATM    1  C   UNK N   1      32.758  15.452   7.968  0.00  0.00     0.015 C 
HETATM    2  C   UNK N   1      32.677  16.370   6.989  0.00  0.00    -0.027 C 
HETATM    3  C   UNK N   1      33.567  15.638   9.227  0.00  0.00     0.172 C 
HETATM    4  C   UNK N   1      33.448  17.687   7.071  0.00  0.00     0.180 C 
HETATM    5  C   UNK N   1      33.966  17.107   9.460  0.00  0.00     0.182 C 
HETATM    6  C   UNK N   1      34.535  17.678   8.165  0.00  0.00     0.182 C 
ENDROOT
BRANCH   2   7
HETATM    7  C   UNK N   1      31.735  16.077   5.852  0.00  0.00     0.201 C 
BRANCH   7   8
HETATM    8  O   UNK N   1      31.280  17.237   5.223  0.00  0.00    -0.397 OA
HETATM    9  H   UNK N   1      30.789  17.913   5.714  0.00  0.00     0.209 HD
ENDBRANCH   7   8
ENDBRANCH   2   7
BRANCH   4  10
HETATM   10  O   UNK N   1      34.069  17.967   5.850  0.00  0.00    -0.388 OA
HETATM   11  H   UNK N   1      34.982  17.803   5.569  0.00  0.00     0.210 HD
ENDBRANCH   4  10
BRANCH   3  12
HETATM   12  O   UNK N   1      32.834  15.182  10.323  0.00  0.00    -0.389 OA
HETATM   13  H   UNK N   1      32.075  15.605  10.756  0.00  0.00     0.210 HD
ENDBRANCH   3  12
BRANCH   6  14
HETATM   14  O   UNK N   1      35.006  18.979   8.366  0.00  0.00    -0.390 OA
HETATM   15  H   UNK N   1      34.621  19.593   9.010  0.00  0.00     0.210 HD
ENDBRANCH   6  14
BRANCH   5  16
HETATM   16  O   UNK N   1      34.917  17.171  10.483  0.00  0.00    -0.390 OA
HETATM   17  H   UNK N   1      35.869  17.109  10.300  0.00  0.00     0.210 HD
ENDBRANCH   5  16
TORSDOF 6
ENDMDL
MODEL 7
REMARK VINA RESULT:      -4.7      7.993     10.206
REMARK  6 active torsions:
REMARK  status: ('A' for Active; 'I' for Inactive)
REMARK    1  A    between atoms: C_3  and  C_2 
REMARK    2  A    between atoms: O_8  and  C_2 
REMARK    3  A    between atoms: C_4  and  O_9 
REMARK    4  A    between atoms: C_5  and  O_10 
REMARK    5  A    between atoms: C_6  and  O_11 
REMARK    6  A    between atoms: C_7  and  O_12 
ROOT
HETATM    1  C   UNK N   1      22.685  18.521   4.223  0.00  0.00     0.015 C 
HETATM    2  C   UNK N   1      22.841  19.592   3.426  0.00  0.00    -0.027 C 
HETATM    3  C   UNK N   1      21.400  17.740   4.334  0.00  0.00     0.172 C 
HETATM    4  C   UNK N   1      21.687  20.128   2.581  0.00  0.00     0.180 C 
HETATM    5  C   UNK N   1      20.426  18.039   3.180  0.00  0.00     0.182 C 
HETATM    6  C   UNK N   1      20.319  19.550   2.999  0.00  0.00     0.182 C 
ENDROOT
BRANCH   2   7
HETATM    7  C   UNK N   1      24.221  20.188   3.345  0.00  0.00     0.201 C 
BRANCH   7   8
HETATM    8  O   UNK N   1      24.424  20.908   2.166  0.00  0.00    -0.397 OA
HETATM    9  H   UNK N   1      23.683  21.131   1.582  0.00  0.00     0.209 HD
ENDBRANCH   7   8
ENDBRANCH   2   7
BRANCH   4  10
HETATM   10  O   UNK N   1      21.613  21.520   2.679  0.00  0.00    -0.388 OA
HETATM   11  H   UNK N   1      20.903  22.079   3.030  0.00  0.00     0.210 HD
ENDBRANCH   4  10
BRANCH   3  12
HETATM   12  O   UNK N   1      21.685  16.374   4.352  0.00  0.00    -0.389 OA
HETATM   13  H   UNK N   1      21.427  15.715   5.016  0.00  0.00     0.210 HD
ENDBRANCH   3  12
BRANCH   6  14
HETATM   14  O   UNK N   1      19.363  19.864   2.029  0.00  0.00    -0.390 OA
HETATM   15  H   UNK N   1      18.441  20.080   2.238  0.00  0.00     0.210 HD
ENDBRANCH   6  14
BRANCH   5  16
HETATM   16  O   UNK N   1      19.174  17.492   3.477  0.00  0.00    -0.390 OA
HETATM   17  H   UNK N   1      18.490  18.003   3.939  0.00  0.00     0.210 HD
ENDBRANCH   5  16
TORSDOF 6
ENDMDL
MODEL 8
REMARK VINA RESULT:      -4.7      7.307      9.033
REMARK  6 active torsions:
REMARK  status: ('A' for Active; 'I' for Inactive)
REMARK    1  A    between atoms: C_3  and  C_2 
REMARK    2  A    between atoms: O_8  and  C_2 
REMARK    3  A    between atoms: C_4  and  O_9 
REMARK    4  A    between atoms: C_5  and  O_10 
REMARK    5  A    between atoms: C_6  and  O_11 
REMARK    6  A    between atoms: C_7  and  O_12 
ROOT
HETATM    1  C   UNK N   1      29.443  16.845   6.709  0.00  0.00     0.015 C 
HETATM    2  C   UNK N   1      30.678  17.165   7.132  0.00  0.00    -0.027 C 
HETATM    3  C   UNK N   1      28.184  17.180   7.467  0.00  0.00     0.172 C 
HETATM    4  C   UNK N   1      30.900  17.879   8.464  0.00  0.00     0.180 C 
HETATM    5  C   UNK N   1      28.416  18.246   8.553  0.00  0.00     0.182 C 
HETATM    6  C   UNK N   1      29.649  17.866   9.367  0.00  0.00     0.182 C 
ENDROOT
BRANCH   2   7
HETATM    7  C   UNK N   1      31.821  16.859   6.201  0.00  0.00     0.201 C 
BRANCH   7   8
HETATM    8  O   UNK N   1      32.940  17.657   6.449  0.00  0.00    -0.397 OA
HETATM    9  H   UNK N   1      33.837  17.319   6.308  0.00  0.00     0.209 HD
ENDBRANCH   7   8
ENDBRANCH   2   7
BRANCH   4  10
HETATM   10  O   UNK N   1      31.947  17.282   9.172  0.00  0.00    -0.388 OA
HETATM   11  H   UNK N   1      31.917  16.703   9.948  0.00  0.00     0.210 HD
ENDBRANCH   4  10
BRANCH   3  12
HETATM   12  O   UNK N   1      27.211  17.635   6.576  0.00  0.00    -0.389 OA
HETATM   13  H   UNK N   1      27.311  18.279   5.857  0.00  0.00     0.210 HD
ENDBRANCH   3  12
BRANCH   6  14
HETATM   14  O   UNK N   1      29.831  18.756  10.430  0.00  0.00    -0.390 OA
HETATM   15  H   UNK N   1      30.313  19.593  10.350  0.00  0.00     0.210 HD
ENDBRANCH   6  14
BRANCH   5  16
HETATM   16  O   UNK N   1      27.289  18.320   9.378  0.00  0.00    -0.390 OA
HETATM   17  H   UNK N   1      26.453  17.888   9.140  0.00  0.00     0.210 HD
ENDBRANCH   5  16
TORSDOF 6
ENDMDL
MODEL 9
REMARK VINA RESULT:      -4.6     11.002     11.816
REMARK  6 active torsions:
REMARK  status: ('A' for Active; 'I' for Inactive)
REMARK    1  A    between atoms: C_3  and  C_2 
REMARK    2  A    between atoms: O_8  and  C_2 
REMARK    3  A    between atoms: C_4  and  O_9 
REMARK    4  A    between atoms: C_5  and  O_10 
REMARK    5  A    between atoms: C_6  and  O_11 
REMARK    6  A    between atoms: C_7  and  O_12 
ROOT
HETATM    1  C   UNK N   1      33.745  14.939   8.406  0.00  0.00     0.015 C 
HETATM    2  C   UNK N   1      34.472  15.267   9.489  0.00  0.00    -0.027 C 
HETATM    3  C   UNK N   1      33.494  15.874   7.250  0.00  0.00     0.172 C 
HETATM    4  C   UNK N   1      35.083  16.659   9.642  0.00  0.00     0.180 C 
HETATM    5  C   UNK N   1      34.456  17.076   7.245  0.00  0.00     0.182 C 
HETATM    6  C   UNK N   1      34.502  17.682   8.644  0.00  0.00     0.182 C 
ENDROOT
BRANCH   2   7
HETATM    7  C   UNK N   1      34.721  14.180  10.500  0.00  0.00     0.201 C 
BRANCH   7   8
HETATM    8  O   UNK N   1      33.972  14.353  11.665  0.00  0.00    -0.397 OA
HETATM    9  H   UNK N   1      34.377  14.254  12.540  0.00  0.00     0.209 HD
ENDBRANCH   7   8
ENDBRANCH   2   7
BRANCH   4  10
HETATM   10  O   UNK N   1      34.868  17.148  10.933  0.00  0.00    -0.388 OA
HETATM   11  H   UNK N   1      34.880  16.680  11.782  0.00  0.00     0.210 HD
ENDBRANCH   4  10
BRANCH   3  12
HETATM   12  O   UNK N   1      33.626  15.175   6.050  0.00  0.00    -0.389 OA
HETATM   13  H   UNK N   1      32.952  14.660   5.578  0.00  0.00     0.210 HD
ENDBRANCH   3  12
BRANCH   6  14
HETATM   14  O   UNK N   1      35.284  18.840   8.654  0.00  0.00    -0.390 OA
HETATM   15  H   UNK N   1      36.240  18.838   8.819  0.00  0.00     0.210 HD
ENDBRANCH   6  14
BRANCH   5  16
HETATM   16  O   UNK N   1      34.010  18.022   6.317  0.00  0.00    -0.390 OA
HETATM   17  H   UNK N   1      34.298  18.003   5.390  0.00  0.00     0.210 HD
ENDBRANCH   5  16
TORSDOF 6
ENDMDL
