REMARK  6 active torsions:
REMARK  status: ('A' for Active; 'I' for Inactive)
REMARK    1  A    between atoms: O_1  and  P_2 
REMARK    2  A    between atoms: P_2  and  O_3 
REMARK    3  A    between atoms: P_2  and  C_5 
REMARK    4  A    between atoms: C_5  and  C_6 
REMARK    5  A    between atoms: C_6  and  C_7 
REMARK    6  A    between atoms: C_7  and  C_9 
ROOT
HETATM    1  P   UNK N   1       1.642   1.325   0.601  0.00  0.00     0.236 P 
HETATM    2  O   UNK N   1       0.948   2.328  -0.357  0.00  0.00    -0.653 OA
ENDROOT
BRANCH   1   3
HETATM    3  O   UNK N   1       0.400   0.274  -0.004  0.00  0.00    -0.329 OA
HETATM    4  H   UNK N   1      -0.455   0.582  -0.342  0.00  0.00     0.220 HD
ENDBRANCH   1   3
BRANCH   1   5
HETATM    5  O   UNK N   1       2.478   0.225  -0.452  0.00  0.00    -0.329 OA
HETATM    6  H   UNK N   1       2.180  -0.486  -1.040  0.00  0.00     0.220 HD
ENDBRANCH   1   5
BRANCH   1   7
HETATM    7  C   UNK N   1       3.025   2.093  -0.371  0.00  0.00     0.129 C 
BRANCH   7   8
HETATM    8  C   UNK N   1       4.053   2.693   0.571  0.00  0.00     0.052 C 
BRANCH   8   9
HETATM    9  C   UNK N   1       5.427   2.329   0.114  0.00  0.00    -0.029 C 
HETATM   10  C   UNK N   1       6.272   3.293  -0.248  0.00  0.00     0.022 C 
BRANCH   9  11
HETATM   11  C   UNK N   1       5.840   0.912   0.105  0.00  0.00     0.264 C 
HETATM   12  O   UNK N   1       6.962   0.581  -0.250  0.00  0.00    -0.302 OA
ENDBRANCH   9  11
ENDBRANCH   8   9
ENDBRANCH   7   8
ENDBRANCH   1   7
TORSDOF 6
