REMARK  0 active torsions:
REMARK  status: ('A' for Active; 'I' for Inactive)
ROOT
HETATM    1  C   UNK N   1       4.016  -0.131  -0.000  0.00  0.00     0.048 C 
HETATM    2  C   UNK N   1       2.785   0.698  -0.000  0.00  0.00    -0.060 A 
HETATM    3  C   UNK N   1       1.529   0.067  -0.000  0.00  0.00     0.038 A 
HETATM    4  C   UNK N   1       0.405   0.879  -0.000  0.00  0.00     0.060 A 
HETATM    5  C   UNK N   1       0.485   2.233   0.000  0.00  0.00     0.060 A 
HETATM    6  C   UNK N   1       1.707   2.902   0.000  0.00  0.00     0.032 A 
HETATM    7  C   UNK N   1       2.876   2.113   0.000  0.00  0.00     0.009 A 
HETATM    8  N   UNK N   1      -0.747   2.756   0.000  0.00  0.00    -0.351 N 
ATOM      9  HN  UNK N   1      -1.008   3.742   0.000  1.00  0.00     0.166 HD
HETATM   10  C   UNK N   1      -1.572   1.674  -0.000  0.00  0.00     0.181 A 
HETATM   11  N   UNK N   1      -0.881   0.504  -0.000  0.00  0.00    -0.350 N 
HETATM   12  H   UNK N   1      -1.243  -0.411  -0.000  0.00  0.00     0.166 HD
ENDROOT
TORSDOF 0
