REMARK  4 active torsions:
REMARK  status: ('A' for Active; 'I' for Inactive)
REMARK    1  A    between atoms: C_4  and  O_5 
REMARK    2  A    between atoms: C_6  and  O_7 
REMARK    3  A    between atoms: C_8  and  O_9 
REMARK    4  A    between atoms: C_10  and  O_11 
ROOT
HETATM    1  C   UNK N   1      -2.792   2.113   0.000  0.00  0.00     0.042 C 
HETATM    2  C   UNK N   1      -1.513   1.300  -0.000  0.00  0.00     0.152 A 
HETATM    3  O   UNK N   1      -0.301   2.050   0.000  0.00  0.00    -0.351 OA
HETATM    4  C   UNK N   1       0.893   1.280  -0.000  0.00  0.00     0.288 A 
HETATM    5  C   UNK N   1       0.963  -0.245   0.000  0.00  0.00     0.204 A 
HETATM    6  C   UNK N   1      -0.310  -1.022  -0.000  0.00  0.00     0.182 A 
HETATM    7  C   UNK N   1      -1.572  -0.230   0.000  0.00  0.00     0.178 A 
ENDROOT
BRANCH   4   8
HETATM    8  O   UNK N   1       2.083   2.015   0.000  0.00  0.00    -0.369 OA
HETATM    9  H   UNK N   1       2.937   1.555   0.000  0.00  0.00     0.212 HD
ENDBRANCH   4   8
BRANCH   5  10
HETATM   10  O   UNK N   1       2.188  -0.909  -0.000  0.00  0.00    -0.388 OA
HETATM   11  H   UNK N   1       2.214  -1.878  -0.000  0.00  0.00     0.210 HD
ENDBRANCH   5  10
BRANCH   6  12
HETATM   12  O   UNK N   1      -0.317  -2.416   0.000  0.00  0.00    -0.390 OA
HETATM   13  H   UNK N   1      -1.159  -2.897   0.000  0.00  0.00     0.210 HD
ENDBRANCH   6  12
BRANCH   7  14
HETATM   14  O   UNK N   1      -2.801  -0.896  -0.000  0.00  0.00    -0.390 OA
HETATM   15  H   UNK N   1      -3.628  -0.389  -0.000  0.00  0.00     0.210 HD
ENDBRANCH   7  14
TORSDOF 4
