MODEL 1
REMARK VINA RESULT:      -5.2      0.000      0.000
REMARK  4 active torsions:
REMARK  status: ('A' for Active; 'I' for Inactive)
REMARK    1  A    between atoms: C_4  and  O_5 
REMARK    2  A    between atoms: C_6  and  O_7 
REMARK    3  A    between atoms: C_8  and  O_9 
REMARK    4  A    between atoms: C_10  and  O_11 
ROOT
HETATM    1  C   UNK N   1      20.279  15.774   2.154  0.00  0.00     0.042 C 
HETATM    2  C   UNK N   1      20.475  17.270   2.299  0.00  0.00     0.152 A 
HETATM    3  O   UNK N   1      20.669  17.743   3.630  0.00  0.00    -0.351 OA
HETATM    4  C   UNK N   1      20.852  19.147   3.757  0.00  0.00     0.288 A 
HETATM    5  C   UNK N   1      20.853  20.147   2.605  0.00  0.00     0.204 A 
HETATM    6  C   UNK N   1      20.649  19.643   1.216  0.00  0.00     0.182 A 
HETATM    7  C   UNK N   1      20.456  18.174   1.064  0.00  0.00     0.178 A 
ENDROOT
BRANCH   4   8
HETATM    8  O   UNK N   1      21.043  19.612   5.062  0.00  0.00    -0.369 OA
HETATM    9  H   UNK N   1      20.295  19.647   5.679  0.00  0.00     0.212 HD
ENDBRANCH   4   8
BRANCH   5  10
HETATM   10  O   UNK N   1      21.041  21.509   2.834  0.00  0.00    -0.388 OA
HETATM   11  H   UNK N   1      21.935  21.858   2.974  0.00  0.00     0.210 HD
ENDBRANCH   5  10
BRANCH   6  12
HETATM   12  O   UNK N   1      20.640  20.503   0.119  0.00  0.00    -0.390 OA
HETATM   13  H   UNK N   1      21.453  20.960  -0.147  0.00  0.00     0.210 HD
ENDBRANCH   6  12
BRANCH   7  14
HETATM   14  O   UNK N   1      20.260  17.635  -0.211  0.00  0.00    -0.390 OA
HETATM   15  H   UNK N   1      21.010  17.268  -0.704  0.00  0.00     0.210 HD
ENDBRANCH   7  14
TORSDOF 4
ENDMDL
MODEL 2
REMARK VINA RESULT:      -5.2      0.958      3.221
REMARK  4 active torsions:
REMARK  status: ('A' for Active; 'I' for Inactive)
REMARK    1  A    between atoms: C_4  and  O_5 
REMARK    2  A    between atoms: C_6  and  O_7 
REMARK    3  A    between atoms: C_8  and  O_9 
REMARK    4  A    between atoms: C_10  and  O_11 
ROOT
HETATM    1  C   UNK N   1      20.519  16.827   4.578  0.00  0.00     0.042 C 
HETATM    2  C   UNK N   1      20.580  17.804   3.421  0.00  0.00     0.152 A 
HETATM    3  O   UNK N   1      20.364  17.247   2.127  0.00  0.00    -0.351 OA
HETATM    4  C   UNK N   1      20.423  18.169   1.048  0.00  0.00     0.288 A 
HETATM    5  C   UNK N   1      20.693  19.666   1.177  0.00  0.00     0.204 A 
HETATM    6  C   UNK N   1      20.919  20.241   2.535  0.00  0.00     0.182 A 
HETATM    7  C   UNK N   1      20.860  19.287   3.678  0.00  0.00     0.178 A 
ENDROOT
BRANCH   4   8
HETATM    8  O   UNK N   1      20.210  17.624  -0.222  0.00  0.00    -0.369 OA
HETATM    9  H   UNK N   1      20.546  16.738  -0.432  0.00  0.00     0.212 HD
ENDBRANCH   4   8
BRANCH   5  10
HETATM   10  O   UNK N   1      20.731  20.490   0.054  0.00  0.00    -0.388 OA
HETATM   11  H   UNK N   1      21.481  20.440  -0.559  0.00  0.00     0.210 HD
ENDBRANCH   5  10
BRANCH   6  12
HETATM   12  O   UNK N   1      21.171  21.599   2.723  0.00  0.00    -0.390 OA
HETATM   13  H   UNK N   1      21.664  21.897   3.503  0.00  0.00     0.210 HD
ENDBRANCH   6  12
BRANCH   7  14
HETATM   14  O   UNK N   1      21.063  19.759   4.978  0.00  0.00    -0.390 OA
HETATM   15  H   UNK N   1      20.411  20.349   5.387  0.00  0.00     0.210 HD
ENDBRANCH   7  14
TORSDOF 4
ENDMDL
MODEL 3
REMARK VINA RESULT:      -5.1      0.921      3.024
REMARK  4 active torsions:
REMARK  status: ('A' for Active; 'I' for Inactive)
REMARK    1  A    between atoms: C_4  and  O_5 
REMARK    2  A    between atoms: C_6  and  O_7 
REMARK    3  A    between atoms: C_8  and  O_9 
REMARK    4  A    between atoms: C_10  and  O_11 
ROOT
HETATM    1  C   UNK N   1      19.840  16.546   0.560  0.00  0.00     0.042 C 
HETATM    2  C   UNK N   1      20.252  17.880   1.150  0.00  0.00     0.152 A 
HETATM    3  O   UNK N   1      20.500  18.923   0.212  0.00  0.00    -0.351 OA
HETATM    4  C   UNK N   1      20.886  20.170   0.773  0.00  0.00     0.288 A 
HETATM    5  C   UNK N   1      21.047  20.458   2.264  0.00  0.00     0.204 A 
HETATM    6  C   UNK N   1      20.785  19.360   3.239  0.00  0.00     0.182 A 
HETATM    7  C   UNK N   1      20.379  18.046   2.667  0.00  0.00     0.178 A 
ENDROOT
BRANCH   4   8
HETATM    8  O   UNK N   1      21.130  21.195  -0.147  0.00  0.00    -0.369 OA
HETATM    9  H   UNK N   1      20.638  21.224  -0.982  0.00  0.00     0.212 HD
ENDBRANCH   4   8
BRANCH   5  10
HETATM   10  O   UNK N   1      21.430  21.719   2.716  0.00  0.00    -0.388 OA
HETATM   11  H   UNK N   1      21.408  21.921   3.664  0.00  0.00     0.210 HD
ENDBRANCH   5  10
BRANCH   6  12
HETATM   12  O   UNK N   1      20.913  19.556   4.614  0.00  0.00    -0.390 OA
HETATM   13  H   UNK N   1      20.362  19.048   5.229  0.00  0.00     0.210 HD
ENDBRANCH   6  12
BRANCH   7  14
HETATM   14  O   UNK N   1      20.118  16.974   3.526  0.00  0.00    -0.390 OA
HETATM   15  H   UNK N   1      19.786  17.140   4.422  0.00  0.00     0.210 HD
ENDBRANCH   7  14
TORSDOF 4
ENDMDL
MODEL 4
REMARK VINA RESULT:      -5.1     13.790     14.809
REMARK  4 active torsions:
REMARK  status: ('A' for Active; 'I' for Inactive)
REMARK    1  A    between atoms: C_4  and  O_5 
REMARK    2  A    between atoms: C_6  and  O_7 
REMARK    3  A    between atoms: C_8  and  O_9 
REMARK    4  A    between atoms: C_10  and  O_11 
ROOT
HETATM    1  C   UNK N   1      33.077  17.191   4.950  0.00  0.00     0.042 C 
HETATM    2  C   UNK N   1      33.511  17.163   6.402  0.00  0.00     0.152 A 
HETATM    3  O   UNK N   1      34.283  18.278   6.841  0.00  0.00    -0.351 OA
HETATM    4  C   UNK N   1      34.685  18.243   8.203  0.00  0.00     0.288 A 
HETATM    5  C   UNK N   1      34.357  17.129   9.195  0.00  0.00     0.204 A 
HETATM    6  C   UNK N   1      33.549  15.966   8.727  0.00  0.00     0.182 A 
HETATM    7  C   UNK N   1      33.119  15.987   7.301  0.00  0.00     0.178 A 
ENDROOT
BRANCH   4   8
HETATM    8  O   UNK N   1      35.442  19.337   8.635  0.00  0.00    -0.369 OA
HETATM    9  H   UNK N   1      35.855  19.324   9.513  0.00  0.00     0.212 HD
ENDBRANCH   4   8
BRANCH   5  10
HETATM   10  O   UNK N   1      34.800  17.189  10.515  0.00  0.00    -0.388 OA
HETATM   11  H   UNK N   1      35.342  17.936  10.811  0.00  0.00     0.210 HD
ENDBRANCH   5  10
BRANCH   6  12
HETATM   12  O   UNK N   1      33.215  14.916   9.581  0.00  0.00    -0.390 OA
HETATM   13  H   UNK N   1      32.636  15.075  10.342  0.00  0.00     0.210 HD
ENDBRANCH   6  12
BRANCH   7  14
HETATM   14  O   UNK N   1      32.359  14.927   6.797  0.00  0.00    -0.390 OA
HETATM   15  H   UNK N   1      32.083  14.926   5.867  0.00  0.00     0.210 HD
ENDBRANCH   7  14
TORSDOF 4
ENDMDL
MODEL 5
REMARK VINA RESULT:      -5.0      9.630     11.478
REMARK  4 active torsions:
REMARK  status: ('A' for Active; 'I' for Inactive)
REMARK    1  A    between atoms: C_4  and  O_5 
REMARK    2  A    between atoms: C_6  and  O_7 
REMARK    3  A    between atoms: C_8  and  O_9 
REMARK    4  A    between atoms: C_10  and  O_11 
ROOT
HETATM    1  C   UNK N   1      25.096  13.414   9.067  0.00  0.00     0.042 C 
HETATM    2  C   UNK N   1      23.844  13.010   9.820  0.00  0.00     0.152 A 
HETATM    3  O   UNK N   1      22.608  13.355   9.200  0.00  0.00    -0.351 OA
HETATM    4  C   UNK N   1      21.440  12.973   9.912  0.00  0.00     0.288 A 
HETATM    5  C   UNK N   1      21.420  12.243  11.252  0.00  0.00     0.204 A 
HETATM    6  C   UNK N   1      22.717  11.886  11.895  0.00  0.00     0.182 A 
HETATM    7  C   UNK N   1      23.953  12.279  11.161  0.00  0.00     0.178 A 
ENDROOT
BRANCH   4   8
HETATM    8  O   UNK N   1      20.227  13.312   9.304  0.00  0.00    -0.369 OA
HETATM    9  H   UNK N   1      20.068  14.223   9.011  0.00  0.00     0.212 HD
ENDBRANCH   4   8
BRANCH   5  10
HETATM   10  O   UNK N   1      20.217  11.911  11.873  0.00  0.00    -0.388 OA
HETATM   11  H   UNK N   1      19.377  12.207  11.490  0.00  0.00     0.210 HD
ENDBRANCH   5  10
BRANCH   6  12
HETATM   12  O   UNK N   1      22.770  11.219  13.118  0.00  0.00    -0.390 OA
HETATM   13  H   UNK N   1      23.168  11.650  13.889  0.00  0.00     0.210 HD
ENDBRANCH   6  12
BRANCH   7  14
HETATM   14  O   UNK N   1      25.203  11.974  11.707  0.00  0.00    -0.390 OA
HETATM   15  H   UNK N   1      25.798  12.688  11.986  0.00  0.00     0.210 HD
ENDBRANCH   7  14
TORSDOF 4
ENDMDL
MODEL 6
REMARK VINA RESULT:      -4.7      9.240     10.973
REMARK  4 active torsions:
REMARK  status: ('A' for Active; 'I' for Inactive)
REMARK    1  A    between atoms: C_4  and  O_5 
REMARK    2  A    between atoms: C_6  and  O_7 
REMARK    3  A    between atoms: C_8  and  O_9 
REMARK    4  A    between atoms: C_10  and  O_11 
ROOT
HETATM    1  C   UNK N   1      23.183  13.696   7.586  0.00  0.00     0.042 C 
HETATM    2  C   UNK N   1      23.032  13.118   8.979  0.00  0.00     0.152 A 
HETATM    3  O   UNK N   1      24.246  12.779   9.645  0.00  0.00    -0.351 OA
HETATM    4  C   UNK N   1      24.095  12.238  10.950  0.00  0.00     0.288 A 
HETATM    5  C   UNK N   1      22.766  12.003  11.663  0.00  0.00     0.204 A 
HETATM    6  C   UNK N   1      21.501  12.360  10.959  0.00  0.00     0.182 A 
HETATM    7  C   UNK N   1      21.641  12.929   9.589  0.00  0.00     0.178 A 
ENDROOT
BRANCH   4   8
HETATM    8  O   UNK N   1      25.286  11.906  11.605  0.00  0.00    -0.369 OA
HETATM    9  H   UNK N   1      26.065  12.477  11.514  0.00  0.00     0.212 HD
ENDBRANCH   4   8
BRANCH   5  10
HETATM   10  O   UNK N   1      22.724  11.465  12.948  0.00  0.00    -0.388 OA
HETATM   11  H   UNK N   1      22.431  10.551  13.081  0.00  0.00     0.210 HD
ENDBRANCH   5  10
BRANCH   6  12
HETATM   12  O   UNK N   1      20.254  12.170  11.552  0.00  0.00    -0.390 OA
HETATM   13  H   UNK N   1      19.993  12.709  12.315  0.00  0.00     0.210 HD
ENDBRANCH   6  12
BRANCH   7  14
HETATM   14  O   UNK N   1      20.494  13.285   8.873  0.00  0.00    -0.390 OA
HETATM   15  H   UNK N   1      19.898  13.968   9.218  0.00  0.00     0.210 HD
ENDBRANCH   7  14
TORSDOF 4
ENDMDL
MODEL 7
REMARK VINA RESULT:      -4.7     14.281     15.333
REMARK  4 active torsions:
REMARK  status: ('A' for Active; 'I' for Inactive)
REMARK    1  A    between atoms: C_4  and  O_5 
REMARK    2  A    between atoms: C_6  and  O_7 
REMARK    3  A    between atoms: C_8  and  O_9 
REMARK    4  A    between atoms: C_10  and  O_11 
ROOT
HETATM    1  C   UNK N   1      32.759  13.754   7.932  0.00  0.00     0.042 C 
HETATM    2  C   UNK N   1      33.403  15.114   8.111  0.00  0.00     0.152 A 
HETATM    3  O   UNK N   1      33.464  15.929   6.943  0.00  0.00    -0.351 OA
HETATM    4  C   UNK N   1      34.069  17.203   7.120  0.00  0.00     0.288 A 
HETATM    5  C   UNK N   1      34.639  17.738   8.431  0.00  0.00     0.204 A 
HETATM    6  C   UNK N   1      34.570  16.878   9.648  0.00  0.00     0.182 A 
HETATM    7  C   UNK N   1      33.938  15.539   9.481  0.00  0.00     0.178 A 
ENDROOT
BRANCH   4   8
HETATM    8  O   UNK N   1      34.130  18.004   5.975  0.00  0.00    -0.369 OA
HETATM    9  H   UNK N   1      34.632  18.834   5.991  0.00  0.00     0.212 HD
ENDBRANCH   4   8
BRANCH   5  10
HETATM   10  O   UNK N   1      35.214  19.005   8.502  0.00  0.00    -0.388 OA
HETATM   11  H   UNK N   1      35.639  19.389   7.720  0.00  0.00     0.210 HD
ENDBRANCH   5  10
BRANCH   6  12
HETATM   12  O   UNK N   1      35.071  17.306  10.877  0.00  0.00    -0.390 OA
HETATM   13  H   UNK N   1      35.599  16.703  11.422  0.00  0.00     0.210 HD
ENDBRANCH   6  12
BRANCH   7  14
HETATM   14  O   UNK N   1      33.842  14.683  10.581  0.00  0.00    -0.390 OA
HETATM   15  H   UNK N   1      33.298  14.933  11.345  0.00  0.00     0.210 HD
ENDBRANCH   7  14
TORSDOF 4
ENDMDL
MODEL 8
REMARK VINA RESULT:      -4.6     22.394     22.812
REMARK  4 active torsions:
REMARK  status: ('A' for Active; 'I' for Inactive)
REMARK    1  A    between atoms: C_4  and  O_5 
REMARK    2  A    between atoms: C_6  and  O_7 
REMARK    3  A    between atoms: C_8  and  O_9 
REMARK    4  A    between atoms: C_10  and  O_11 
ROOT
HETATM    1  C   UNK N   1      42.498  18.924   2.790  0.00  0.00     0.042 C 
HETATM    2  C   UNK N   1      42.935  20.369   2.921  0.00  0.00     0.152 A 
HETATM    3  O   UNK N   1      44.197  20.581   3.549  0.00  0.00    -0.351 OA
HETATM    4  C   UNK N   1      44.599  21.939   3.668  0.00  0.00     0.288 A 
HETATM    5  C   UNK N   1      43.797  23.145   3.184  0.00  0.00     0.204 A 
HETATM    6  C   UNK N   1      42.478  22.914   2.528  0.00  0.00     0.182 A 
HETATM    7  C   UNK N   1      42.041  21.495   2.396  0.00  0.00     0.178 A 
ENDROOT
BRANCH   4   8
HETATM    8  O   UNK N   1      45.837  22.148   4.284  0.00  0.00    -0.369 OA
HETATM    9  H   UNK N   1      46.648  21.819   3.866  0.00  0.00     0.212 HD
ENDBRANCH   4   8
BRANCH   5  10
HETATM   10  O   UNK N   1      44.280  24.442   3.348  0.00  0.00    -0.388 OA
HETATM   11  H   UNK N   1      45.171  24.586   3.700  0.00  0.00     0.210 HD
ENDBRANCH   5  10
BRANCH   6  12
HETATM   12  O   UNK N   1      41.696  23.970   2.064  0.00  0.00    -0.390 OA
HETATM   13  H   UNK N   1      42.079  24.632   1.468  0.00  0.00     0.210 HD
ENDBRANCH   6  12
BRANCH   7  14
HETATM   14  O   UNK N   1      40.814  21.208   1.790  0.00  0.00    -0.390 OA
HETATM   15  H   UNK N   1      40.261  21.928   1.448  0.00  0.00     0.210 HD
ENDBRANCH   7  14
TORSDOF 4
ENDMDL
MODEL 9
REMARK VINA RESULT:      -4.6     13.999     15.189
REMARK  4 active torsions:
REMARK  status: ('A' for Active; 'I' for Inactive)
REMARK    1  A    between atoms: C_4  and  O_5 
REMARK    2  A    between atoms: C_6  and  O_7 
REMARK    3  A    between atoms: C_8  and  O_9 
REMARK    4  A    between atoms: C_10  and  O_11 
ROOT
HETATM    1  C   UNK N   1      33.553  17.434   5.695  0.00  0.00     0.042 C 
HETATM    2  C   UNK N   1      33.587  16.795   7.069  0.00  0.00     0.152 A 
HETATM    3  O   UNK N   1      32.876  15.567   7.199  0.00  0.00    -0.351 OA
HETATM    4  C   UNK N   1      32.912  14.975   8.491  0.00  0.00     0.288 A 
HETATM    5  C   UNK N   1      33.637  15.547   9.706  0.00  0.00     0.204 A 
HETATM    6  C   UNK N   1      34.379  16.833   9.561  0.00  0.00     0.182 A 
HETATM    7  C   UNK N   1      34.351  17.467   8.213  0.00  0.00     0.178 A 
ENDROOT
BRANCH   4   8
HETATM    8  O   UNK N   1      32.215  13.770   8.620  0.00  0.00    -0.369 OA
HETATM    9  H   UNK N   1      32.287  13.091   7.931  0.00  0.00     0.212 HD
ENDBRANCH   4   8
BRANCH   5  10
HETATM   10  O   UNK N   1      33.613  14.888  10.934  0.00  0.00    -0.388 OA
HETATM   11  H   UNK N   1      34.442  14.604  11.348  0.00  0.00     0.210 HD
ENDBRANCH   5  10
BRANCH   6  12
HETATM   12  O   UNK N   1      35.062  17.409  10.631  0.00  0.00    -0.390 OA
HETATM   13  H   UNK N   1      35.864  16.990  10.976  0.00  0.00     0.210 HD
ENDBRANCH   6  12
BRANCH   7  14
HETATM   14  O   UNK N   1      35.026  18.674   8.008  0.00  0.00    -0.390 OA
HETATM   15  H   UNK N   1      35.665  18.991   8.665  0.00  0.00     0.210 HD
ENDBRANCH   7  14
TORSDOF 4
ENDMDL
