MODEL 1
REMARK VINA RESULT:      -7.6      0.000      0.000
REMARK  23 active torsions:
REMARK  status: ('A' for Active; 'I' for Inactive)
REMARK    1  A    between atoms: C_9  and  C_4 
REMARK    2  A    between atoms: O_44  and  C_4 
REMARK    3  A    between atoms: C_10  and  C_5 
REMARK    4  A    between atoms: O_45  and  C_5 
REMARK    5  A    between atoms: C_8  and  O_48 
REMARK    6  A    between atoms: O_31  and  C_11 
REMARK    7  A    between atoms: C_12  and  N_29 
REMARK    8  A    between atoms: C_14  and  O_32 
REMARK    9  A    between atoms: C_15  and  O_49 
REMARK   10  A    between atoms: N_20  and  C_16 
REMARK   11  A    between atoms: C_18  and  N_30 
REMARK   12  A    between atoms: P_51  and  O_34 
REMARK   13  A    between atoms: P_51  and  O_35 
REMARK   14  A    between atoms: P_52  and  O_37 
REMARK   15  A    between atoms: P_52  and  O_38 
REMARK   16  A    between atoms: P_53  and  O_40 
REMARK   17  A    between atoms: P_54  and  O_42 
REMARK   18  A    between atoms: P_51  and  O_44 
REMARK   19  A    between atoms: P_53  and  O_45 
REMARK   20  A    between atoms: P_54  and  O_48 
REMARK   21  A    between atoms: P_52  and  O_49 
REMARK   22  A    between atoms: P_53  and  O_50 
REMARK   23  A    between atoms: P_54  and  O_50 
ROOT
HETATM    1  O   UNK N   1      28.369  16.917   7.037  0.00  0.00    -0.631 OA
HETATM    2  P   UNK N   1      28.536  18.174   7.933  0.00  0.00     0.401 P 
ENDROOT
BRANCH   2   3
HETATM    3  O   UNK N   1      27.537  17.950   9.335  0.00  0.00    -0.307 OA
HETATM    4  H   UNK N   1      27.634  18.522  10.112  0.00  0.00     0.222 HD
ENDBRANCH   2   3
BRANCH   2   5
HETATM    5  O   UNK N   1      30.185  18.328   8.409  0.00  0.00    -0.294 OA
BRANCH   5   6
HETATM    6  C   UNK N   1      30.687  17.020   8.336  0.00  0.00     0.215 C 
BRANCH   6   7
HETATM    7  C   UNK N   1      32.086  17.042   7.762  0.00  0.00     0.180 C 
HETATM    8  C   UNK N   1      32.170  16.336   6.395  0.00  0.00     0.197 C 
HETATM    9  C   UNK N   1      33.540  15.679   6.484  0.00  0.00     0.199 C 
HETATM   10  C   UNK N   1      33.369  15.214   7.946  0.00  0.00     0.262 C 
HETATM   11  O   UNK N   1      32.931  16.346   8.655  0.00  0.00    -0.353 OA
BRANCH   8  12
HETATM   12  O   UNK N   1      31.714  17.083   5.273  0.00  0.00    -0.286 OA
BRANCH  12  13
HETATM   13  P   UNK N   1      31.606  16.219   3.765  0.00  0.00     0.391 P 
HETATM   14  O   UNK N   1      30.256  16.507   3.053  0.00  0.00    -0.632 OA
BRANCH  13  15
HETATM   15  O   UNK N   1      31.659  17.915   3.388  0.00  0.00    -0.307 OA
HETATM   16  H   UNK N   1      31.102  18.603   3.781  0.00  0.00     0.222 HD
ENDBRANCH  13  15
BRANCH  13  17
HETATM   17  O   UNK N   1      30.385  15.671   4.876  0.00  0.00    -0.307 OA
HETATM   18  H   UNK N   1      29.534  15.226   5.011  0.00  0.00     0.222 HD
ENDBRANCH  13  17
ENDBRANCH  12  13
ENDBRANCH   8  12
BRANCH   9  19
HETATM   19  O   UNK N   1      34.570  16.620   6.401  0.00  0.00    -0.388 OA
HETATM   20  H   UNK N   1      34.897  17.478   6.086  0.00  0.00     0.210 HD
ENDBRANCH   9  19
BRANCH  10  21
HETATM   21  N   UNK N   1      34.495  14.596   8.635  0.00  0.00    -0.297 N 
HETATM   22  C   UNK N   1      35.292  13.663   8.049  0.00  0.00     0.188 A 
HETATM   23  N   UNK N   1      36.312  13.290   8.864  0.00  0.00    -0.346 N 
HETATM   24  C   UNK N   1      36.132  14.027   9.972  0.00  0.00     0.122 A 
ATOM     25  HN  UNK N   1      37.047  12.608   8.677  1.00  0.00     0.167 HD
HETATM   26  C   UNK N   1      36.898  14.089  11.117  0.00  0.00     0.131 A 
HETATM   27  C   UNK N   1      35.037  14.804   9.841  0.00  0.00     0.142 A 
HETATM   28  N   UNK N   1      36.508  14.951  12.101  0.00  0.00    -0.337 N 
HETATM   29  C   UNK N   1      35.385  15.733  11.952  0.00  0.00     0.183 A 
ATOM     30  HN  UNK N   1      37.055  15.017  12.960  1.00  0.00     0.168 HD
HETATM   31  N   UNK N   1      34.639  15.668  10.804  0.00  0.00    -0.336 N 
ATOM     32  HN  UNK N   1      33.812  16.252  10.681  1.00  0.00     0.168 HD
BRANCH  26  33
HETATM   33  N   UNK N   1      38.062  13.306  11.260  0.00  0.00    -0.383 N 
HETATM   34  H   UNK N   1      38.068  12.532  11.869  0.00  0.00     0.157 HD
HETATM   35  H   UNK N   1      38.872  13.535  10.750  0.00  0.00     0.157 HD
ENDBRANCH  26  33
ENDBRANCH  10  21
ENDBRANCH   6   7
ENDBRANCH   5   6
ENDBRANCH   2   5
BRANCH   2  36
HETATM   36  O   UNK N   1      28.037  19.592   7.063  0.00  0.00    -0.195 OA
BRANCH  36  37
HETATM   37  P   UNK N   1      27.718  19.172   5.409  0.00  0.00     0.402 P 
HETATM   38  O   UNK N   1      27.389  20.430   4.588  0.00  0.00    -0.631 OA
BRANCH  37  39
HETATM   39  O   UNK N   1      29.097  18.427   4.655  0.00  0.00    -0.307 OA
HETATM   40  H   UNK N   1      29.676  18.030   3.986  0.00  0.00     0.222 HD
ENDBRANCH  37  39
BRANCH  37  41
HETATM   41  O   UNK N   1      26.294  18.146   5.395  0.00  0.00    -0.288 OA
BRANCH  41  42
HETATM   42  C   UNK N   1      25.474  18.586   4.346  0.00  0.00     0.169 C 
HETATM   43  C   UNK N   1      24.157  19.046   4.905  0.00  0.00     0.089 C 
HETATM   44  C   UNK N   1      23.264  17.801   4.809  0.00  0.00     0.235 C 
HETATM   45  O   UNK N   1      23.938  16.820   4.063  0.00  0.00    -0.356 OA
HETATM   46  C   UNK N   1      25.010  17.447   3.426  0.00  0.00     0.178 C 
BRANCH  44  47
HETATM   47  N   UNK N   1      21.963  18.057   4.164  0.00  0.00    -0.282 N 
HETATM   48  C   UNK N   1      21.768  19.171   3.395  0.00  0.00     0.102 A 
HETATM   49  C   UNK N   1      20.551  19.388   2.756  0.00  0.00     0.073 A 
HETATM   50  C   UNK N   1      19.537  18.449   2.903  0.00  0.00     0.144 A 
HETATM   51  N   UNK N   1      19.740  17.348   3.668  0.00  0.00    -0.289 N 
HETATM   52  C   UNK N   1      20.934  17.141   4.302  0.00  0.00     0.330 A 
ATOM     53  HN  UNK N   1      18.991  16.663   3.772  1.00  0.00     0.172 HD
HETATM   54  O   UNK N   1      21.087  16.131   4.971  0.00  0.00    -0.246 OA
BRANCH  50  55
HETATM   55  O   UNK N   1      18.359  18.627   2.286  0.00  0.00    -0.346 OA
HETATM   56  H   UNK N   1      17.875  19.421   2.394  0.00  0.00     0.219 HD
ENDBRANCH  50  55
ENDBRANCH  44  47
BRANCH  46  57
HETATM   57  C   UNK N   1      26.024  16.361   3.023  0.00  0.00     0.215 C 
BRANCH  57  58
HETATM   58  O   UNK N   1      25.862  15.208   3.821  0.00  0.00    -0.294 OA
BRANCH  58  59
HETATM   59  P   UNK N   1      27.284  14.221   3.597  0.00  0.00     0.390 P 
HETATM   60  O   UNK N   1      27.988  13.815   4.918  0.00  0.00    -0.632 OA
BRANCH  59  61
HETATM   61  O   UNK N   1      27.724  15.699   4.399  0.00  0.00    -0.307 OA
HETATM   62  H   UNK N   1      27.684  16.307   5.154  0.00  0.00     0.222 HD
ENDBRANCH  59  61
BRANCH  59  63
HETATM   63  O   UNK N   1      26.129  13.220   4.421  0.00  0.00    -0.307 OA
HETATM   64  H   UNK N   1      25.494  12.690   3.913  0.00  0.00     0.222 HD
ENDBRANCH  59  63
ENDBRANCH  58  59
ENDBRANCH  57  58
ENDBRANCH  46  57
ENDBRANCH  41  42
ENDBRANCH  37  41
ENDBRANCH  36  37
ENDBRANCH   2  36
TORSDOF 23
ENDMDL
MODEL 2
REMARK VINA RESULT:      -7.3      3.359      5.816
REMARK  23 active torsions:
REMARK  status: ('A' for Active; 'I' for Inactive)
REMARK    1  A    between atoms: C_9  and  C_4 
REMARK    2  A    between atoms: O_44  and  C_4 
REMARK    3  A    between atoms: C_10  and  C_5 
REMARK    4  A    between atoms: O_45  and  C_5 
REMARK    5  A    between atoms: C_8  and  O_48 
REMARK    6  A    between atoms: O_31  and  C_11 
REMARK    7  A    between atoms: C_12  and  N_29 
REMARK    8  A    between atoms: C_14  and  O_32 
REMARK    9  A    between atoms: C_15  and  O_49 
REMARK   10  A    between atoms: N_20  and  C_16 
REMARK   11  A    between atoms: C_18  and  N_30 
REMARK   12  A    between atoms: P_51  and  O_34 
REMARK   13  A    between atoms: P_51  and  O_35 
REMARK   14  A    between atoms: P_52  and  O_37 
REMARK   15  A    between atoms: P_52  and  O_38 
REMARK   16  A    between atoms: P_53  and  O_40 
REMARK   17  A    between atoms: P_54  and  O_42 
REMARK   18  A    between atoms: P_51  and  O_44 
REMARK   19  A    between atoms: P_53  and  O_45 
REMARK   20  A    between atoms: P_54  and  O_48 
REMARK   21  A    between atoms: P_52  and  O_49 
REMARK   22  A    between atoms: P_53  and  O_50 
REMARK   23  A    between atoms: P_54  and  O_50 
ROOT
HETATM    1  O   UNK N   1      34.894  18.684   8.272  0.00  0.00    -0.631 OA
HETATM    2  P   UNK N   1      34.131  17.348   8.067  0.00  0.00     0.401 P 
ENDROOT
BRANCH   2   3
HETATM    3  O   UNK N   1      34.939  16.476   6.802  0.00  0.00    -0.307 OA
HETATM    4  H   UNK N   1      34.507  15.731   6.355  0.00  0.00     0.222 HD
ENDBRANCH   2   3
BRANCH   2   5
HETATM    5  O   UNK N   1      34.172  16.432   9.526  0.00  0.00    -0.294 OA
BRANCH   5   6
HETATM    6  C   UNK N   1      35.224  17.001  10.259  0.00  0.00     0.215 C 
BRANCH   6   7
HETATM    7  C   UNK N   1      36.225  15.930  10.631  0.00  0.00     0.180 C 
HETATM    8  C   UNK N   1      36.000  14.621   9.849  0.00  0.00     0.197 C 
HETATM    9  C   UNK N   1      36.344  13.582  10.905  0.00  0.00     0.199 C 
HETATM   10  C   UNK N   1      35.611  14.310  12.052  0.00  0.00     0.262 C 
HETATM   11  O   UNK N   1      36.060  15.641  12.004  0.00  0.00    -0.353 OA
BRANCH   8  12
HETATM   12  O   UNK N   1      36.491  14.595   8.513  0.00  0.00    -0.286 OA
BRANCH  12  13
HETATM   13  P   UNK N   1      36.189  13.138   7.611  0.00  0.00     0.391 P 
HETATM   14  O   UNK N   1      35.278  13.419   6.384  0.00  0.00    -0.632 OA
BRANCH  13  15
HETATM   15  O   UNK N   1      37.129  14.190   6.596  0.00  0.00    -0.307 OA
HETATM   16  H   UNK N   1      38.081  14.355   6.674  0.00  0.00     0.222 HD
ENDBRANCH  13  15
BRANCH  13  17
HETATM   17  O   UNK N   1      34.710  13.762   8.281  0.00  0.00    -0.307 OA
HETATM   18  H   UNK N   1      33.743  13.713   8.332  0.00  0.00     0.222 HD
ENDBRANCH  13  17
ENDBRANCH  12  13
ENDBRANCH   8  12
BRANCH   9  19
HETATM   19  O   UNK N   1      37.718  13.545  11.166  0.00  0.00    -0.388 OA
HETATM   20  H   UNK N   1      38.447  13.446  11.798  0.00  0.00     0.210 HD
ENDBRANCH   9  19
BRANCH  10  21
HETATM   21  N   UNK N   1      35.719  13.794  13.411  0.00  0.00    -0.297 N 
HETATM   22  C   UNK N   1      36.437  14.423  14.380  0.00  0.00     0.188 A 
HETATM   23  N   UNK N   1      36.328  13.791  15.577  0.00  0.00    -0.346 N 
HETATM   24  C   UNK N   1      35.513  12.753  15.325  0.00  0.00     0.122 A 
ATOM     25  HN  UNK N   1      36.764  14.045  16.462  1.00  0.00     0.167 HD
HETATM   26  C   UNK N   1      35.024  11.795  16.188  0.00  0.00     0.131 A 
HETATM   27  C   UNK N   1      35.155  12.748  14.025  0.00  0.00     0.142 A 
HETATM   28  N   UNK N   1      34.180  10.849  15.680  0.00  0.00    -0.337 N 
HETATM   29  C   UNK N   1      33.828  10.856  14.350  0.00  0.00     0.183 A 
ATOM     30  HN  UNK N   1      33.804  10.127  16.295  1.00  0.00     0.168 HD
HETATM   31  N   UNK N   1      34.314  11.822  13.507  0.00  0.00    -0.336 N 
ATOM     32  HN  UNK N   1      34.051  11.841  12.522  1.00  0.00     0.168 HD
BRANCH  26  33
HETATM   33  N   UNK N   1      35.365  11.801  17.556  0.00  0.00    -0.383 N 
HETATM   34  H   UNK N   1      36.001  11.140  17.913  0.00  0.00     0.157 HD
HETATM   35  H   UNK N   1      34.964  12.470  18.157  0.00  0.00     0.157 HD
ENDBRANCH  26  33
ENDBRANCH  10  21
ENDBRANCH   6   7
ENDBRANCH   5   6
ENDBRANCH   2   5
BRANCH   2  36
HETATM   36  O   UNK N   1      32.484  17.668   7.616  0.00  0.00    -0.195 OA
BRANCH  36  37
HETATM   37  P   UNK N   1      31.498  16.299   8.025  0.00  0.00     0.402 P 
HETATM   38  O   UNK N   1      32.333  15.007   8.004  0.00  0.00    -0.631 OA
BRANCH  37  39
HETATM   39  O   UNK N   1      30.833  16.439   9.627  0.00  0.00    -0.307 OA
HETATM   40  H   UNK N   1      30.630  16.254  10.557  0.00  0.00     0.222 HD
ENDBRANCH  37  39
BRANCH  37  41
HETATM   41  O   UNK N   1      30.266  16.150   6.784  0.00  0.00    -0.288 OA
BRANCH  41  42
HETATM   42  C   UNK N   1      29.947  17.447   6.358  0.00  0.00     0.169 C 
HETATM   43  C   UNK N   1      28.454  17.619   6.367  0.00  0.00     0.089 C 
HETATM   44  C   UNK N   1      28.035  17.263   4.934  0.00  0.00     0.235 C 
HETATM   45  O   UNK N   1      29.190  17.133   4.146  0.00  0.00    -0.356 OA
HETATM   46  C   UNK N   1      30.249  17.683   4.870  0.00  0.00     0.178 C 
BRANCH  44  47
HETATM   47  N   UNK N   1      27.162  18.273   4.307  0.00  0.00    -0.282 N 
HETATM   48  C   UNK N   1      27.562  19.577   4.200  0.00  0.00     0.102 A 
HETATM   49  C   UNK N   1      26.751  20.519   3.572  0.00  0.00     0.073 A 
HETATM   50  C   UNK N   1      25.531  20.112   3.047  0.00  0.00     0.144 A 
HETATM   51  N   UNK N   1      25.143  18.818   3.158  0.00  0.00    -0.289 N 
HETATM   52  C   UNK N   1      25.937  17.896   3.783  0.00  0.00     0.330 A 
ATOM     53  HN  UNK N   1      24.246  18.526   2.770  1.00  0.00     0.172 HD
HETATM   54  O   UNK N   1      25.563  16.735   3.853  0.00  0.00    -0.246 OA
BRANCH  50  55
HETATM   55  O   UNK N   1      24.737  20.996   2.424  0.00  0.00    -0.346 OA
HETATM   56  H   UNK N   1      23.807  20.964   2.528  0.00  0.00     0.219 HD
ENDBRANCH  50  55
ENDBRANCH  44  47
BRANCH  46  57
HETATM   57  C   UNK N   1      31.562  17.130   4.285  0.00  0.00     0.215 C 
BRANCH  57  58
HETATM   58  O   UNK N   1      31.327  15.925   3.586  0.00  0.00    -0.294 OA
BRANCH  58  59
HETATM   59  P   UNK N   1      32.865  15.118   3.418  0.00  0.00     0.390 P 
HETATM   60  O   UNK N   1      33.965  15.646   4.375  0.00  0.00    -0.632 OA
BRANCH  59  61
HETATM   61  O   UNK N   1      33.056  16.810   3.068  0.00  0.00    -0.307 OA
HETATM   62  H   UNK N   1      33.324  17.709   3.313  0.00  0.00     0.222 HD
ENDBRANCH  59  61
BRANCH  59  63
HETATM   63  O   UNK N   1      32.288  14.729   5.009  0.00  0.00    -0.307 OA
HETATM   64  H   UNK N   1      31.339  14.768   5.205  0.00  0.00     0.222 HD
ENDBRANCH  59  63
ENDBRANCH  58  59
ENDBRANCH  57  58
ENDBRANCH  46  57
ENDBRANCH  41  42
ENDBRANCH  37  41
ENDBRANCH  36  37
ENDBRANCH   2  36
TORSDOF 23
ENDMDL
MODEL 3
REMARK VINA RESULT:      -7.2      6.319     12.591
REMARK  23 active torsions:
REMARK  status: ('A' for Active; 'I' for Inactive)
REMARK    1  A    between atoms: C_9  and  C_4 
REMARK    2  A    between atoms: O_44  and  C_4 
REMARK    3  A    between atoms: C_10  and  C_5 
REMARK    4  A    between atoms: O_45  and  C_5 
REMARK    5  A    between atoms: C_8  and  O_48 
REMARK    6  A    between atoms: O_31  and  C_11 
REMARK    7  A    between atoms: C_12  and  N_29 
REMARK    8  A    between atoms: C_14  and  O_32 
REMARK    9  A    between atoms: C_15  and  O_49 
REMARK   10  A    between atoms: N_20  and  C_16 
REMARK   11  A    between atoms: C_18  and  N_30 
REMARK   12  A    between atoms: P_51  and  O_34 
REMARK   13  A    between atoms: P_51  and  O_35 
REMARK   14  A    between atoms: P_52  and  O_37 
REMARK   15  A    between atoms: P_52  and  O_38 
REMARK   16  A    between atoms: P_53  and  O_40 
REMARK   17  A    between atoms: P_54  and  O_42 
REMARK   18  A    between atoms: P_51  and  O_44 
REMARK   19  A    between atoms: P_53  and  O_45 
REMARK   20  A    between atoms: P_54  and  O_48 
REMARK   21  A    between atoms: P_52  and  O_49 
REMARK   22  A    between atoms: P_53  and  O_50 
REMARK   23  A    between atoms: P_54  and  O_50 
ROOT
HETATM    1  O   UNK N   1      32.306  11.881   6.382  0.00  0.00    -0.631 OA
HETATM    2  P   UNK N   1      33.439  11.355   7.303  0.00  0.00     0.401 P 
ENDROOT
BRANCH   2   3
HETATM    3  O   UNK N   1      34.576  10.510   6.299  0.00  0.00    -0.307 OA
HETATM    4  H   UNK N   1      35.355  10.962   5.939  0.00  0.00     0.222 HD
ENDBRANCH   2   3
BRANCH   2   5
HETATM    5  O   UNK N   1      34.217  12.684   8.076  0.00  0.00    -0.294 OA
BRANCH   5   6
HETATM    6  C   UNK N   1      34.604  13.518   7.017  0.00  0.00     0.215 C 
BRANCH   6   7
HETATM    7  C   UNK N   1      34.440  14.966   7.422  0.00  0.00     0.180 C 
HETATM    8  C   UNK N   1      34.324  15.138   8.949  0.00  0.00     0.197 C 
HETATM    9  C   UNK N   1      33.318  16.276   9.044  0.00  0.00     0.199 C 
HETATM   10  C   UNK N   1      32.396  15.731   7.932  0.00  0.00     0.262 C 
HETATM   11  O   UNK N   1      33.242  15.444   6.846  0.00  0.00    -0.353 OA
BRANCH   8  12
HETATM   12  O   UNK N   1      35.544  15.087   9.681  0.00  0.00    -0.286 OA
BRANCH  12  13
HETATM   13  P   UNK N   1      35.437  15.456  11.379  0.00  0.00     0.391 P 
HETATM   14  O   UNK N   1      36.474  14.635  12.194  0.00  0.00    -0.632 OA
BRANCH  13  15
HETATM   15  O   UNK N   1      36.984  16.020  10.822  0.00  0.00    -0.307 OA
HETATM   16  H   UNK N   1      37.802  16.045  11.341  0.00  0.00     0.222 HD
ENDBRANCH  13  15
BRANCH  13  17
HETATM   17  O   UNK N   1      35.025  13.792  11.086  0.00  0.00    -0.307 OA
HETATM   18  H   UNK N   1      34.578  12.988  11.391  0.00  0.00     0.222 HD
ENDBRANCH  13  17
ENDBRANCH  12  13
ENDBRANCH   8  12
BRANCH   9  19
HETATM   19  O   UNK N   1      33.877  17.494   8.645  0.00  0.00    -0.388 OA
HETATM   20  H   UNK N   1      33.785  18.449   8.497  0.00  0.00     0.210 HD
ENDBRANCH   9  19
BRANCH  10  21
HETATM   21  N   UNK N   1      31.264  16.533   7.486  0.00  0.00    -0.297 N 
HETATM   22  C   UNK N   1      30.985  16.742   6.172  0.00  0.00     0.188 A 
HETATM   23  N   UNK N   1      29.843  17.458   6.008  0.00  0.00    -0.346 N 
HETATM   24  C   UNK N   1      29.414  17.680   7.261  0.00  0.00     0.122 A 
ATOM     25  HN  UNK N   1      29.411  17.758   5.135  1.00  0.00     0.167 HD
HETATM   26  C   UNK N   1      28.275  18.325   7.695  0.00  0.00     0.131 A 
HETATM   27  C   UNK N   1      30.269  17.134   8.150  0.00  0.00     0.142 A 
HETATM   28  N   UNK N   1      28.053  18.395   9.041  0.00  0.00    -0.337 N 
HETATM   29  C   UNK N   1      28.939  17.836   9.933  0.00  0.00     0.183 A 
ATOM     30  HN  UNK N   1      27.219  18.867   9.391  1.00  0.00     0.168 HD
HETATM   31  N   UNK N   1      30.062  17.188   9.486  0.00  0.00    -0.336 N 
ATOM     32  HN  UNK N   1      30.718  16.762  10.140  1.00  0.00     0.168 HD
BRANCH  26  33
HETATM   33  N   UNK N   1      27.354  18.877   6.781  0.00  0.00    -0.383 N 
HETATM   34  H   UNK N   1      27.609  19.012   5.840  0.00  0.00     0.157 HD
HETATM   35  H   UNK N   1      26.453  19.129   7.086  0.00  0.00     0.157 HD
ENDBRANCH  26  33
ENDBRANCH  10  21
ENDBRANCH   6   7
ENDBRANCH   5   6
ENDBRANCH   2   5
BRANCH   2  36
HETATM   36  O   UNK N   1      32.781  10.279   8.498  0.00  0.00    -0.195 OA
BRANCH  36  37
HETATM   37  P   UNK N   1      34.064   9.679   9.502  0.00  0.00     0.402 P 
HETATM   38  O   UNK N   1      33.682   8.318  10.108  0.00  0.00    -0.631 OA
BRANCH  37  39
HETATM   39  O   UNK N   1      35.529   9.431   8.598  0.00  0.00    -0.307 OA
HETATM   40  H   UNK N   1      36.350   9.033   8.268  0.00  0.00     0.222 HD
ENDBRANCH  37  39
BRANCH  37  41
HETATM   41  O   UNK N   1      34.263  10.809  10.830  0.00  0.00    -0.288 OA
BRANCH  41  42
HETATM   42  C   UNK N   1      34.645  10.066  11.955  0.00  0.00     0.169 C 
HETATM   43  C   UNK N   1      33.797  10.470  13.128  0.00  0.00     0.089 C 
HETATM   44  C   UNK N   1      34.624  11.562  13.820  0.00  0.00     0.235 C 
HETATM   45  O   UNK N   1      35.900  11.600  13.233  0.00  0.00    -0.356 OA
HETATM   46  C   UNK N   1      36.042  10.436  12.475  0.00  0.00     0.178 C 
BRANCH  44  47
HETATM   47  N   UNK N   1      34.791  11.346  15.269  0.00  0.00    -0.282 N 
HETATM   48  C   UNK N   1      34.678  10.095  15.810  0.00  0.00     0.102 A 
HETATM   49  C   UNK N   1      34.875   9.889  17.173  0.00  0.00     0.073 A 
HETATM   50  C   UNK N   1      35.200  10.976  17.976  0.00  0.00     0.144 A 
HETATM   51  N   UNK N   1      35.310  12.213  17.431  0.00  0.00    -0.289 N 
HETATM   52  C   UNK N   1      35.107  12.413  16.093  0.00  0.00     0.330 A 
ATOM     53  HN  UNK N   1      35.547  13.006  18.027  1.00  0.00     0.172 HD
HETATM   54  O   UNK N   1      35.228  13.538  15.633  0.00  0.00    -0.246 OA
BRANCH  50  55
HETATM   55  O   UNK N   1      35.409  10.804  19.290  0.00  0.00    -0.346 OA
HETATM   56  H   UNK N   1      34.989  11.354  19.920  0.00  0.00     0.219 HD
ENDBRANCH  50  55
ENDBRANCH  44  47
BRANCH  46  57
HETATM   57  C   UNK N   1      37.173  10.668  11.457  0.00  0.00     0.215 C 
BRANCH  57  58
HETATM   58  O   UNK N   1      37.423  12.049  11.295  0.00  0.00    -0.294 OA
BRANCH  58  59
HETATM   59  P   UNK N   1      38.341  12.238   9.824  0.00  0.00     0.390 P 
HETATM   60  O   UNK N   1      38.013  13.533   9.035  0.00  0.00    -0.632 OA
BRANCH  59  61
HETATM   61  O   UNK N   1      36.646  12.172   9.445  0.00  0.00    -0.307 OA
HETATM   62  H   UNK N   1      35.861  12.493   8.973  0.00  0.00     0.222 HD
ENDBRANCH  59  61
BRANCH  59  63
HETATM   63  O   UNK N   1      38.839  13.531  10.871  0.00  0.00    -0.307 OA
HETATM   64  H   UNK N   1      39.774  13.785  10.919  0.00  0.00     0.222 HD
ENDBRANCH  59  63
ENDBRANCH  58  59
ENDBRANCH  57  58
ENDBRANCH  46  57
ENDBRANCH  41  42
ENDBRANCH  37  41
ENDBRANCH  36  37
ENDBRANCH   2  36
TORSDOF 23
ENDMDL
MODEL 4
REMARK VINA RESULT:      -7.1      3.031     11.255
REMARK  23 active torsions:
REMARK  status: ('A' for Active; 'I' for Inactive)
REMARK    1  A    between atoms: C_9  and  C_4 
REMARK    2  A    between atoms: O_44  and  C_4 
REMARK    3  A    between atoms: C_10  and  C_5 
REMARK    4  A    between atoms: O_45  and  C_5 
REMARK    5  A    between atoms: C_8  and  O_48 
REMARK    6  A    between atoms: O_31  and  C_11 
REMARK    7  A    between atoms: C_12  and  N_29 
REMARK    8  A    between atoms: C_14  and  O_32 
REMARK    9  A    between atoms: C_15  and  O_49 
REMARK   10  A    between atoms: N_20  and  C_16 
REMARK   11  A    between atoms: C_18  and  N_30 
REMARK   12  A    between atoms: P_51  and  O_34 
REMARK   13  A    between atoms: P_51  and  O_35 
REMARK   14  A    between atoms: P_52  and  O_37 
REMARK   15  A    between atoms: P_52  and  O_38 
REMARK   16  A    between atoms: P_53  and  O_40 
REMARK   17  A    between atoms: P_54  and  O_42 
REMARK   18  A    between atoms: P_51  and  O_44 
REMARK   19  A    between atoms: P_53  and  O_45 
REMARK   20  A    between atoms: P_54  and  O_48 
REMARK   21  A    between atoms: P_52  and  O_49 
REMARK   22  A    between atoms: P_53  and  O_50 
REMARK   23  A    between atoms: P_54  and  O_50 
ROOT
HETATM    1  O   UNK N   1      26.596  20.512   3.105  0.00  0.00    -0.631 OA
HETATM    2  P   UNK N   1      26.894  19.759   4.430  0.00  0.00     0.401 P 
ENDROOT
BRANCH   2   3
HETATM    3  O   UNK N   1      27.099  20.953   5.673  0.00  0.00    -0.307 OA
HETATM    4  H   UNK N   1      27.889  20.958   6.235  0.00  0.00     0.222 HD
ENDBRANCH   2   3
BRANCH   2   5
HETATM    5  O   UNK N   1      25.566  18.732   4.820  0.00  0.00    -0.294 OA
BRANCH   5   6
HETATM    6  C   UNK N   1      24.453  19.388   4.275  0.00  0.00     0.215 C 
BRANCH   6   7
HETATM    7  C   UNK N   1      23.321  18.403   4.088  0.00  0.00     0.180 C 
HETATM    8  C   UNK N   1      21.990  19.097   3.738  0.00  0.00     0.197 C 
HETATM    9  C   UNK N   1      20.994  18.222   4.484  0.00  0.00     0.199 C 
HETATM   10  C   UNK N   1      21.858  18.092   5.757  0.00  0.00     0.262 C 
HETATM   11  O   UNK N   1      23.137  17.718   5.310  0.00  0.00    -0.353 OA
BRANCH   8  12
HETATM   12  O   UNK N   1      21.835  19.510   2.385  0.00  0.00    -0.286 OA
BRANCH  12  13
HETATM   13  P   UNK N   1      20.511  20.593   2.059  0.00  0.00     0.391 P 
HETATM   14  O   UNK N   1      20.894  21.630   0.968  0.00  0.00    -0.632 OA
BRANCH  13  15
HETATM   15  O   UNK N   1      20.772  19.647   0.625  0.00  0.00    -0.307 OA
HETATM   16  H   UNK N   1      20.369  18.788   0.428  0.00  0.00     0.222 HD
ENDBRANCH  13  15
BRANCH  13  17
HETATM   17  O   UNK N   1      21.867  21.461   2.718  0.00  0.00    -0.307 OA
HETATM   18  H   UNK N   1      22.613  21.478   3.337  0.00  0.00     0.222 HD
ENDBRANCH  13  17
ENDBRANCH  12  13
ENDBRANCH   8  12
BRANCH   9  19
HETATM   19  O   UNK N   1      20.849  16.971   3.877  0.00  0.00    -0.388 OA
HETATM   20  H   UNK N   1      21.185  16.075   3.717  0.00  0.00     0.210 HD
ENDBRANCH   9  19
BRANCH  10  21
HETATM   21  N   UNK N   1      21.423  17.206   6.829  0.00  0.00    -0.297 N 
HETATM   22  C   UNK N   1      20.371  17.497   7.640  0.00  0.00     0.188 A 
HETATM   23  N   UNK N   1      20.115  16.489   8.513  0.00  0.00    -0.346 N 
HETATM   24  C   UNK N   1      21.034  15.557   8.213  0.00  0.00     0.122 A 
ATOM     25  HN  UNK N   1      19.392  16.449   9.230  1.00  0.00     0.167 HD
HETATM   26  C   UNK N   1      21.218  14.302   8.756  0.00  0.00     0.131 A 
HETATM   27  C   UNK N   1      21.826  15.988   7.210  0.00  0.00     0.142 A 
HETATM   28  N   UNK N   1      22.222  13.528   8.250  0.00  0.00    -0.337 N 
HETATM   29  C   UNK N   1      23.023  13.986   7.230  0.00  0.00     0.183 A 
ATOM     30  HN  UNK N   1      22.383  12.596   8.634  1.00  0.00     0.168 HD
HETATM   31  N   UNK N   1      22.821  15.231   6.693  0.00  0.00    -0.336 N 
ATOM     32  HN  UNK N   1      23.403  15.575   5.929  1.00  0.00     0.168 HD
BRANCH  26  33
HETATM   33  N   UNK N   1      20.383  13.822   9.786  0.00  0.00    -0.383 N 
HETATM   34  H   UNK N   1      19.675  14.395  10.160  0.00  0.00     0.157 HD
HETATM   35  H   UNK N   1      20.509  12.909  10.132  0.00  0.00     0.157 HD
ENDBRANCH  26  33
ENDBRANCH  10  21
ENDBRANCH   6   7
ENDBRANCH   5   6
ENDBRANCH   2   5
BRANCH   2  36
HETATM   36  O   UNK N   1      28.343  18.815   4.263  0.00  0.00    -0.195 OA
BRANCH  36  37
HETATM   37  P   UNK N   1      28.570  17.851   5.689  0.00  0.00     0.402 P 
HETATM   38  O   UNK N   1      28.214  18.659   6.948  0.00  0.00    -0.631 OA
BRANCH  37  39
HETATM   39  O   UNK N   1      27.545  16.446   5.688  0.00  0.00    -0.307 OA
HETATM   40  H   UNK N   1      27.170  15.582   5.457  0.00  0.00     0.222 HD
ENDBRANCH  37  39
BRANCH  37  41
HETATM   41  O   UNK N   1      30.277  17.451   5.784  0.00  0.00    -0.288 OA
BRANCH  41  42
HETATM   42  C   UNK N   1      30.476  16.765   6.990  0.00  0.00     0.169 C 
HETATM   43  C   UNK N   1      31.404  17.559   7.866  0.00  0.00     0.089 C 
HETATM   44  C   UNK N   1      32.791  16.986   7.545  0.00  0.00     0.235 C 
HETATM   45  O   UNK N   1      32.632  15.838   6.751  0.00  0.00    -0.356 OA
HETATM   46  C   UNK N   1      31.287  15.471   6.819  0.00  0.00     0.178 C 
BRANCH  44  47
HETATM   47  N   UNK N   1      33.566  16.612   8.743  0.00  0.00    -0.282 N 
HETATM   48  C   UNK N   1      33.330  15.432   9.391  0.00  0.00     0.102 A 
HETATM   49  C   UNK N   1      34.090  15.065  10.498  0.00  0.00     0.073 A 
HETATM   50  C   UNK N   1      35.103  15.914  10.929  0.00  0.00     0.144 A 
HETATM   51  N   UNK N   1      35.329  17.082  10.280  0.00  0.00    -0.289 N 
HETATM   52  C   UNK N   1      34.575  17.445   9.198  0.00  0.00     0.330 A 
ATOM     53  HN  UNK N   1      36.074  17.701  10.603  1.00  0.00     0.172 HD
HETATM   54  O   UNK N   1      34.816  18.498   8.628  0.00  0.00    -0.246 OA
BRANCH  50  55
HETATM   55  O   UNK N   1      35.860  15.578  11.984  0.00  0.00    -0.346 OA
HETATM   56  H   UNK N   1      36.543  16.143  12.286  0.00  0.00     0.219 HD
ENDBRANCH  50  55
ENDBRANCH  44  47
BRANCH  46  57
HETATM   57  C   UNK N   1      30.982  14.560   5.616  0.00  0.00     0.215 C 
BRANCH  57  58
HETATM   58  O   UNK N   1      29.623  14.175   5.615  0.00  0.00    -0.294 OA
BRANCH  58  59
HETATM   59  P   UNK N   1      29.308  13.397   4.086  0.00  0.00     0.390 P 
HETATM   60  O   UNK N   1      28.660  11.993   4.211  0.00  0.00    -0.632 OA
BRANCH  59  61
HETATM   61  O   UNK N   1      30.408  12.424   5.016  0.00  0.00    -0.307 OA
HETATM   62  H   UNK N   1      30.701  12.025   5.851  0.00  0.00     0.222 HD
ENDBRANCH  59  61
BRANCH  59  63
HETATM   63  O   UNK N   1      27.755  13.691   4.804  0.00  0.00    -0.307 OA
HETATM   64  H   UNK N   1      27.694  14.126   5.669  0.00  0.00     0.222 HD
ENDBRANCH  59  63
ENDBRANCH  58  59
ENDBRANCH  57  58
ENDBRANCH  46  57
ENDBRANCH  41  42
ENDBRANCH  37  41
ENDBRANCH  36  37
ENDBRANCH   2  36
TORSDOF 23
ENDMDL
MODEL 5
REMARK VINA RESULT:      -7.0      2.798      5.110
REMARK  23 active torsions:
REMARK  status: ('A' for Active; 'I' for Inactive)
REMARK    1  A    between atoms: C_9  and  C_4 
REMARK    2  A    between atoms: O_44  and  C_4 
REMARK    3  A    between atoms: C_10  and  C_5 
REMARK    4  A    between atoms: O_45  and  C_5 
REMARK    5  A    between atoms: C_8  and  O_48 
REMARK    6  A    between atoms: O_31  and  C_11 
REMARK    7  A    between atoms: C_12  and  N_29 
REMARK    8  A    between atoms: C_14  and  O_32 
REMARK    9  A    between atoms: C_15  and  O_49 
REMARK   10  A    between atoms: N_20  and  C_16 
REMARK   11  A    between atoms: C_18  and  N_30 
REMARK   12  A    between atoms: P_51  and  O_34 
REMARK   13  A    between atoms: P_51  and  O_35 
REMARK   14  A    between atoms: P_52  and  O_37 
REMARK   15  A    between atoms: P_52  and  O_38 
REMARK   16  A    between atoms: P_53  and  O_40 
REMARK   17  A    between atoms: P_54  and  O_42 
REMARK   18  A    between atoms: P_51  and  O_44 
REMARK   19  A    between atoms: P_53  and  O_45 
REMARK   20  A    between atoms: P_54  and  O_48 
REMARK   21  A    between atoms: P_52  and  O_49 
REMARK   22  A    between atoms: P_53  and  O_50 
REMARK   23  A    between atoms: P_54  and  O_50 
ROOT
HETATM    1  O   UNK N   1      33.506  14.515   5.884  0.00  0.00    -0.631 OA
HETATM    2  P   UNK N   1      32.113  14.510   6.570  0.00  0.00     0.401 P 
ENDROOT
BRANCH   2   3
HETATM    3  O   UNK N   1      31.086  13.451   5.656  0.00  0.00    -0.307 OA
HETATM    4  H   UNK N   1      30.626  12.711   6.082  0.00  0.00     0.222 HD
ENDBRANCH   2   3
BRANCH   2   5
HETATM    5  O   UNK N   1      32.269  13.923   8.183  0.00  0.00    -0.294 OA
BRANCH   5   6
HETATM    6  C   UNK N   1      33.654  13.878   8.400  0.00  0.00     0.215 C 
BRANCH   6   7
HETATM    7  C   UNK N   1      34.019  14.792   9.548  0.00  0.00     0.180 C 
HETATM    8  C   UNK N   1      35.420  15.413   9.381  0.00  0.00     0.197 C 
HETATM    9  C   UNK N   1      35.910  15.432  10.821  0.00  0.00     0.199 C 
HETATM   10  C   UNK N   1      35.371  14.027  11.164  0.00  0.00     0.262 C 
HETATM   11  O   UNK N   1      34.033  14.019  10.730  0.00  0.00    -0.353 OA
BRANCH   8  12
HETATM   12  O   UNK N   1      35.515  16.519   8.490  0.00  0.00    -0.286 OA
BRANCH  12  13
HETATM   13  P   UNK N   1      34.130  17.571   8.421  0.00  0.00     0.391 P 
HETATM   14  O   UNK N   1      34.489  18.922   7.745  0.00  0.00    -0.632 OA
BRANCH  13  15
HETATM   15  O   UNK N   1      34.543  17.150   6.786  0.00  0.00    -0.307 OA
HETATM   16  H   UNK N   1      33.930  17.109   6.036  0.00  0.00     0.222 HD
ENDBRANCH  13  15
BRANCH  13  17
HETATM   17  O   UNK N   1      35.374  18.259   9.422  0.00  0.00    -0.307 OA
HETATM   18  H   UNK N   1      35.677  19.002   9.968  0.00  0.00     0.222 HD
ENDBRANCH  13  17
ENDBRANCH  12  13
ENDBRANCH   8  12
BRANCH   9  19
HETATM   19  O   UNK N   1      35.242  16.397  11.581  0.00  0.00    -0.388 OA
HETATM   20  H   UNK N   1      35.084  16.826  12.437  0.00  0.00     0.210 HD
ENDBRANCH   9  19
BRANCH  10  21
HETATM   21  N   UNK N   1      35.455  13.545  12.537  0.00  0.00    -0.297 N 
HETATM   22  C   UNK N   1      36.070  14.247  13.525  0.00  0.00     0.188 A 
HETATM   23  N   UNK N   1      35.956  13.627  14.728  0.00  0.00    -0.346 N 
HETATM   24  C   UNK N   1      35.242  12.522  14.460  0.00  0.00     0.122 A 
ATOM     25  HN  UNK N   1      36.327  13.931  15.628  1.00  0.00     0.167 HD
HETATM   26  C   UNK N   1      34.792  11.541  15.318  0.00  0.00     0.131 A 
HETATM   27  C   UNK N   1      34.948  12.465  13.144  0.00  0.00     0.142 A 
HETATM   28  N   UNK N   1      34.053  10.520  14.791  0.00  0.00    -0.337 N 
HETATM   29  C   UNK N   1      33.767  10.477  13.446  0.00  0.00     0.183 A 
ATOM     30  HN  UNK N   1      33.708   9.780  15.402  1.00  0.00     0.168 HD
HETATM   31  N   UNK N   1      34.213  11.465  12.607  0.00  0.00    -0.336 N 
ATOM     32  HN  UNK N   1      33.996  11.446  11.610  1.00  0.00     0.168 HD
BRANCH  26  33
HETATM   33  N   UNK N   1      35.064  11.597  16.700  0.00  0.00    -0.383 N 
HETATM   34  H   UNK N   1      35.960  11.852  17.020  0.00  0.00     0.157 HD
HETATM   35  H   UNK N   1      34.356  11.381  17.348  0.00  0.00     0.157 HD
ENDBRANCH  26  33
ENDBRANCH  10  21
ENDBRANCH   6   7
ENDBRANCH   5   6
ENDBRANCH   2   5
BRANCH   2  36
HETATM   36  O   UNK N   1      31.453  16.116   6.587  0.00  0.00    -0.195 OA
BRANCH  36  37
HETATM   37  P   UNK N   1      31.422  16.743   4.968  0.00  0.00     0.402 P 
HETATM   38  O   UNK N   1      32.704  17.541   4.674  0.00  0.00    -0.631 OA
BRANCH  37  39
HETATM   39  O   UNK N   1      31.340  15.470   3.785  0.00  0.00    -0.307 OA
HETATM   40  H   UNK N   1      31.054  14.937   3.026  0.00  0.00     0.222 HD
ENDBRANCH  37  39
BRANCH  37  41
HETATM   41  O   UNK N   1      30.071  17.860   4.865  0.00  0.00    -0.288 OA
BRANCH  41  42
HETATM   42  C   UNK N   1      28.897  17.105   4.992  0.00  0.00     0.169 C 
HETATM   43  C   UNK N   1      28.003  17.377   3.815  0.00  0.00     0.089 C 
HETATM   44  C   UNK N   1      27.087  18.508   4.304  0.00  0.00     0.235 C 
HETATM   45  O   UNK N   1      27.292  18.689   5.682  0.00  0.00    -0.356 OA
HETATM   46  C   UNK N   1      27.999  17.578   6.145  0.00  0.00     0.178 C 
BRANCH  44  47
HETATM   47  N   UNK N   1      25.653  18.244   4.083  0.00  0.00    -0.282 N 
HETATM   48  C   UNK N   1      25.184  16.963   3.978  0.00  0.00     0.102 A 
HETATM   49  C   UNK N   1      23.824  16.717   3.809  0.00  0.00     0.073 A 
HETATM   50  C   UNK N   1      22.948  17.794   3.757  0.00  0.00     0.144 A 
HETATM   51  N   UNK N   1      23.422  19.060   3.861  0.00  0.00    -0.289 N 
HETATM   52  C   UNK N   1      24.760  19.299   4.019  0.00  0.00     0.330 A 
ATOM     53  HN  UNK N   1      22.773  19.845   3.821  1.00  0.00     0.172 HD
HETATM   54  O   UNK N   1      25.151  20.452   4.124  0.00  0.00    -0.246 OA
BRANCH  50  55
HETATM   55  O   UNK N   1      21.631  17.585   3.608  0.00  0.00    -0.346 OA
HETATM   56  H   UNK N   1      21.113  17.258   4.317  0.00  0.00     0.219 HD
ENDBRANCH  50  55
ENDBRANCH  44  47
BRANCH  46  57
HETATM   57  C   UNK N   1      28.655  17.958   7.485  0.00  0.00     0.215 C 
BRANCH  57  58
HETATM   58  O   UNK N   1      28.743  16.833   8.333  0.00  0.00    -0.294 OA
BRANCH  58  59
HETATM   59  P   UNK N   1      29.121  17.420   9.932  0.00  0.00     0.390 P 
HETATM   60  O   UNK N   1      29.441  18.936   9.991  0.00  0.00    -0.632 OA
BRANCH  59  61
HETATM   61  O   UNK N   1      30.481  17.680   8.881  0.00  0.00    -0.307 OA
HETATM   62  H   UNK N   1      31.162  17.361   8.268  0.00  0.00     0.222 HD
ENDBRANCH  59  61
BRANCH  59  63
HETATM   63  O   UNK N   1      27.640  18.201   9.471  0.00  0.00    -0.307 OA
HETATM   64  H   UNK N   1      26.906  18.263  10.103  0.00  0.00     0.222 HD
ENDBRANCH  59  63
ENDBRANCH  58  59
ENDBRANCH  57  58
ENDBRANCH  46  57
ENDBRANCH  41  42
ENDBRANCH  37  41
ENDBRANCH  36  37
ENDBRANCH   2  36
TORSDOF 23
ENDMDL
MODEL 6
REMARK VINA RESULT:      -7.0      4.123      6.071
REMARK  23 active torsions:
REMARK  status: ('A' for Active; 'I' for Inactive)
REMARK    1  A    between atoms: C_9  and  C_4 
REMARK    2  A    between atoms: O_44  and  C_4 
REMARK    3  A    between atoms: C_10  and  C_5 
REMARK    4  A    between atoms: O_45  and  C_5 
REMARK    5  A    between atoms: C_8  and  O_48 
REMARK    6  A    between atoms: O_31  and  C_11 
REMARK    7  A    between atoms: C_12  and  N_29 
REMARK    8  A    between atoms: C_14  and  O_32 
REMARK    9  A    between atoms: C_15  and  O_49 
REMARK   10  A    between atoms: N_20  and  C_16 
REMARK   11  A    between atoms: C_18  and  N_30 
REMARK   12  A    between atoms: P_51  and  O_34 
REMARK   13  A    between atoms: P_51  and  O_35 
REMARK   14  A    between atoms: P_52  and  O_37 
REMARK   15  A    between atoms: P_52  and  O_38 
REMARK   16  A    between atoms: P_53  and  O_40 
REMARK   17  A    between atoms: P_54  and  O_42 
REMARK   18  A    between atoms: P_51  and  O_44 
REMARK   19  A    between atoms: P_53  and  O_45 
REMARK   20  A    between atoms: P_54  and  O_48 
REMARK   21  A    between atoms: P_52  and  O_49 
REMARK   22  A    between atoms: P_53  and  O_50 
REMARK   23  A    between atoms: P_54  and  O_50 
ROOT
HETATM    1  O   UNK N   1      34.280  11.375   4.877  0.00  0.00    -0.631 OA
HETATM    2  P   UNK N   1      33.566  12.240   5.951  0.00  0.00     0.401 P 
ENDROOT
BRANCH   2   3
HETATM    3  O   UNK N   1      31.857  12.035   5.733  0.00  0.00    -0.307 OA
HETATM    4  H   UNK N   1      31.484  11.861   4.855  0.00  0.00     0.222 HD
ENDBRANCH   2   3
BRANCH   2   5
HETATM    5  O   UNK N   1      34.024  11.699   7.523  0.00  0.00    -0.294 OA
BRANCH   5   6
HETATM    6  C   UNK N   1      34.860  12.716   8.006  0.00  0.00     0.215 C 
BRANCH   6   7
HETATM    7  C   UNK N   1      34.170  13.452   9.132  0.00  0.00     0.180 C 
HETATM    8  C   UNK N   1      34.586  14.934   9.206  0.00  0.00     0.197 C 
HETATM    9  C   UNK N   1      34.604  15.163  10.710  0.00  0.00     0.199 C 
HETATM   10  C   UNK N   1      35.286  13.819  11.041  0.00  0.00     0.262 C 
HETATM   11  O   UNK N   1      34.552  12.840  10.347  0.00  0.00    -0.353 OA
BRANCH   8  12
HETATM   12  O   UNK N   1      33.961  15.808   8.272  0.00  0.00    -0.286 OA
BRANCH  12  13
HETATM   13  P   UNK N   1      34.474  17.471   8.314  0.00  0.00     0.391 P 
HETATM   14  O   UNK N   1      33.604  18.347   7.371  0.00  0.00    -0.632 OA
BRANCH  13  15
HETATM   15  O   UNK N   1      32.878  17.404   8.998  0.00  0.00    -0.307 OA
HETATM   16  H   UNK N   1      32.506  18.027   9.640  0.00  0.00     0.222 HD
ENDBRANCH  13  15
BRANCH  13  17
HETATM   17  O   UNK N   1      34.709  16.797   6.728  0.00  0.00    -0.307 OA
HETATM   18  H   UNK N   1      34.503  16.094   6.093  0.00  0.00     0.222 HD
ENDBRANCH  13  17
ENDBRANCH  12  13
ENDBRANCH   8  12
BRANCH   9  19
HETATM   19  O   UNK N   1      33.312  15.186  11.245  0.00  0.00    -0.388 OA
HETATM   20  H   UNK N   1      32.620  15.650  11.741  0.00  0.00     0.210 HD
ENDBRANCH   9  19
BRANCH  10  21
HETATM   21  N   UNK N   1      35.452  13.425  12.434  0.00  0.00    -0.297 N 
HETATM   22  C   UNK N   1      36.161  14.167  13.327  0.00  0.00     0.188 A 
HETATM   23  N   UNK N   1      36.112  13.634  14.575  0.00  0.00    -0.346 N 
HETATM   24  C   UNK N   1      35.344  12.542  14.434  0.00  0.00     0.122 A 
ATOM     25  HN  UNK N   1      36.557  13.983  15.423  1.00  0.00     0.167 HD
HETATM   26  C   UNK N   1      34.924  11.638  15.387  0.00  0.00     0.131 A 
HETATM   27  C   UNK N   1      34.955  12.409  13.149  0.00  0.00     0.142 A 
HETATM   28  N   UNK N   1      34.116  10.614  14.983  0.00  0.00    -0.337 N 
HETATM   29  C   UNK N   1      33.732  10.492  13.668  0.00  0.00     0.183 A 
ATOM     30  HN  UNK N   1      33.791   9.929  15.666  1.00  0.00     0.168 HD
HETATM   31  N   UNK N   1      34.149  11.404  12.734  0.00  0.00    -0.336 N 
ATOM     32  HN  UNK N   1      33.861  11.328  11.758  1.00  0.00     0.168 HD
BRANCH  26  33
HETATM   33  N   UNK N   1      35.297  11.775  16.739  0.00  0.00    -0.383 N 
HETATM   34  H   UNK N   1      35.631  10.999  17.244  0.00  0.00     0.157 HD
HETATM   35  H   UNK N   1      35.222  12.652  17.181  0.00  0.00     0.157 HD
ENDBRANCH  26  33
ENDBRANCH  10  21
ENDBRANCH   6   7
ENDBRANCH   5   6
ENDBRANCH   2   5
BRANCH   2  36
HETATM   36  O   UNK N   1      33.999  13.911   5.752  0.00  0.00    -0.195 OA
BRANCH  36  37
HETATM   37  P   UNK N   1      32.953  14.640   4.574  0.00  0.00     0.402 P 
HETATM   38  O   UNK N   1      33.553  15.962   4.066  0.00  0.00    -0.631 OA
BRANCH  37  39
HETATM   39  O   UNK N   1      32.739  13.619   3.182  0.00  0.00    -0.307 OA
HETATM   40  H   UNK N   1      32.523  12.852   2.629  0.00  0.00     0.222 HD
ENDBRANCH  37  39
BRANCH  37  41
HETATM   41  O   UNK N   1      31.442  15.023   5.380  0.00  0.00    -0.288 OA
BRANCH  41  42
HETATM   42  C   UNK N   1      31.089  16.327   5.005  0.00  0.00     0.169 C 
HETATM   43  C   UNK N   1      30.707  17.109   6.230  0.00  0.00     0.089 C 
HETATM   44  C   UNK N   1      29.184  16.939   6.314  0.00  0.00     0.235 C 
HETATM   45  O   UNK N   1      28.735  16.324   5.134  0.00  0.00    -0.356 OA
HETATM   46  C   UNK N   1      29.777  16.391   4.209  0.00  0.00     0.178 C 
BRANCH  44  47
HETATM   47  N   UNK N   1      28.457  18.211   6.476  0.00  0.00    -0.282 N 
HETATM   48  C   UNK N   1      28.156  18.990   5.392  0.00  0.00     0.102 A 
HETATM   49  C   UNK N   1      27.435  20.171   5.545  0.00  0.00     0.073 A 
HETATM   50  C   UNK N   1      27.015  20.542   6.817  0.00  0.00     0.144 A 
HETATM   51  N   UNK N   1      27.318  19.764   7.885  0.00  0.00    -0.289 N 
HETATM   52  C   UNK N   1      28.034  18.609   7.733  0.00  0.00     0.330 A 
ATOM     53  HN  UNK N   1      27.007  20.044   8.815  1.00  0.00     0.172 HD
HETATM   54  O   UNK N   1      28.277  17.924   8.715  0.00  0.00    -0.246 OA
BRANCH  50  55
HETATM   55  O   UNK N   1      26.306  21.668   6.990  0.00  0.00    -0.346 OA
HETATM   56  H   UNK N   1      26.634  22.366   7.520  0.00  0.00     0.219 HD
ENDBRANCH  50  55
ENDBRANCH  44  47
BRANCH  46  57
HETATM   57  C   UNK N   1      29.518  15.329   3.124  0.00  0.00     0.215 C 
BRANCH  57  58
HETATM   58  O   UNK N   1      28.495  14.444   3.528  0.00  0.00    -0.294 OA
BRANCH  58  59
HETATM   59  P   UNK N   1      28.731  12.951   2.656  0.00  0.00     0.390 P 
HETATM   60  O   UNK N   1      30.120  12.826   1.979  0.00  0.00    -0.632 OA
BRANCH  59  61
HETATM   61  O   UNK N   1      28.869  14.291   1.559  0.00  0.00    -0.307 OA
HETATM   62  H   UNK N   1      28.524  14.855   0.849  0.00  0.00     0.222 HD
ENDBRANCH  59  61
BRANCH  59  63
HETATM   63  O   UNK N   1      29.862  12.923   3.974  0.00  0.00    -0.307 OA
HETATM   64  H   UNK N   1      30.332  13.733   4.228  0.00  0.00     0.222 HD
ENDBRANCH  59  63
ENDBRANCH  58  59
ENDBRANCH  57  58
ENDBRANCH  46  57
ENDBRANCH  41  42
ENDBRANCH  37  41
ENDBRANCH  36  37
ENDBRANCH   2  36
TORSDOF 23
ENDMDL
MODEL 7
REMARK VINA RESULT:      -7.0      4.339     10.153
REMARK  23 active torsions:
REMARK  status: ('A' for Active; 'I' for Inactive)
REMARK    1  A    between atoms: C_9  and  C_4 
REMARK    2  A    between atoms: O_44  and  C_4 
REMARK    3  A    between atoms: C_10  and  C_5 
REMARK    4  A    between atoms: O_45  and  C_5 
REMARK    5  A    between atoms: C_8  and  O_48 
REMARK    6  A    between atoms: O_31  and  C_11 
REMARK    7  A    between atoms: C_12  and  N_29 
REMARK    8  A    between atoms: C_14  and  O_32 
REMARK    9  A    between atoms: C_15  and  O_49 
REMARK   10  A    between atoms: N_20  and  C_16 
REMARK   11  A    between atoms: C_18  and  N_30 
REMARK   12  A    between atoms: P_51  and  O_34 
REMARK   13  A    between atoms: P_51  and  O_35 
REMARK   14  A    between atoms: P_52  and  O_37 
REMARK   15  A    between atoms: P_52  and  O_38 
REMARK   16  A    between atoms: P_53  and  O_40 
REMARK   17  A    between atoms: P_54  and  O_42 
REMARK   18  A    between atoms: P_51  and  O_44 
REMARK   19  A    between atoms: P_53  and  O_45 
REMARK   20  A    between atoms: P_54  and  O_48 
REMARK   21  A    between atoms: P_52  and  O_49 
REMARK   22  A    between atoms: P_53  and  O_50 
REMARK   23  A    between atoms: P_54  and  O_50 
ROOT
HETATM    1  O   UNK N   1      24.103  11.529   3.362  0.00  0.00    -0.631 OA
HETATM    2  P   UNK N   1      24.476  13.022   3.155  0.00  0.00     0.401 P 
ENDROOT
BRANCH   2   3
HETATM    3  O   UNK N   1      25.041  13.195   1.523  0.00  0.00    -0.307 OA
HETATM    4  H   UNK N   1      25.448  14.022   1.221  0.00  0.00     0.222 HD
ENDBRANCH   2   3
BRANCH   2   5
HETATM    5  O   UNK N   1      23.080  14.003   3.397  0.00  0.00    -0.294 OA
BRANCH   5   6
HETATM    6  C   UNK N   1      22.187  13.167   4.083  0.00  0.00     0.215 C 
BRANCH   6   7
HETATM    7  C   UNK N   1      21.730  13.844   5.355  0.00  0.00     0.180 C 
HETATM    8  C   UNK N   1      22.276  15.280   5.485  0.00  0.00     0.197 C 
HETATM    9  C   UNK N   1      22.527  15.367   6.983  0.00  0.00     0.199 C 
HETATM   10  C   UNK N   1      23.132  13.952   7.099  0.00  0.00     0.262 C 
HETATM   11  O   UNK N   1      22.227  13.098   6.446  0.00  0.00    -0.353 OA
BRANCH   8  12
HETATM   12  O   UNK N   1      21.602  16.279   4.728  0.00  0.00    -0.286 OA
BRANCH  12  13
HETATM   13  P   UNK N   1      22.201  17.905   4.895  0.00  0.00     0.391 P 
HETATM   14  O   UNK N   1      22.396  18.573   3.507  0.00  0.00    -0.632 OA
BRANCH  13  15
HETATM   15  O   UNK N   1      20.600  18.009   4.226  0.00  0.00    -0.307 OA
HETATM   16  H   UNK N   1      20.020  18.784   4.256  0.00  0.00     0.222 HD
ENDBRANCH  13  15
BRANCH  13  17
HETATM   17  O   UNK N   1      23.362  16.904   4.073  0.00  0.00    -0.307 OA
HETATM   18  H   UNK N   1      24.167  16.366   4.121  0.00  0.00     0.222 HD
ENDBRANCH  13  17
ENDBRANCH  12  13
ENDBRANCH   8  12
BRANCH   9  19
HETATM   19  O   UNK N   1      21.330  15.434   7.704  0.00  0.00    -0.388 OA
HETATM   20  H   UNK N   1      20.869  15.513   8.554  0.00  0.00     0.210 HD
ENDBRANCH   9  19
BRANCH  10  21
HETATM   21  N   UNK N   1      23.461  13.421   8.417  0.00  0.00    -0.297 N 
HETATM   22  C   UNK N   1      24.733  13.384   8.896  0.00  0.00     0.188 A 
HETATM   23  N   UNK N   1      24.776  12.914  10.169  0.00  0.00    -0.346 N 
HETATM   24  C   UNK N   1      23.491  12.668  10.471  0.00  0.00     0.122 A 
ATOM     25  HN  UNK N   1      25.596  12.778  10.760  1.00  0.00     0.167 HD
HETATM   26  C   UNK N   1      22.940  12.215  11.651  0.00  0.00     0.131 A 
HETATM   27  C   UNK N   1      22.701  12.963   9.418  0.00  0.00     0.142 A 
HETATM   28  N   UNK N   1      21.583  12.072  11.709  0.00  0.00    -0.337 N 
HETATM   29  C   UNK N   1      20.793  12.373  10.624  0.00  0.00     0.183 A 
ATOM     30  HN  UNK N   1      21.148  11.737  12.569  1.00  0.00     0.168 HD
HETATM   31  N   UNK N   1      21.354  12.833   9.461  0.00  0.00    -0.336 N 
ATOM     32  HN  UNK N   1      20.776  13.069   8.655  1.00  0.00     0.168 HD
BRANCH  26  33
HETATM   33  N   UNK N   1      23.746  11.928  12.772  0.00  0.00    -0.383 N 
HETATM   34  H   UNK N   1      23.345  11.861  13.668  0.00  0.00     0.157 HD
HETATM   35  H   UNK N   1      24.714  11.796  12.657  0.00  0.00     0.157 HD
ENDBRANCH  26  33
ENDBRANCH  10  21
ENDBRANCH   6   7
ENDBRANCH   5   6
ENDBRANCH   2   5
BRANCH   2  36
HETATM   36  O   UNK N   1      25.724  13.483   4.272  0.00  0.00    -0.195 OA
BRANCH  36  37
HETATM   37  P   UNK N   1      26.599  14.839   3.632  0.00  0.00     0.402 P 
HETATM   38  O   UNK N   1      27.764  14.361   2.750  0.00  0.00    -0.631 OA
BRANCH  37  39
HETATM   39  O   UNK N   1      25.590  15.842   2.630  0.00  0.00    -0.307 OA
HETATM   40  H   UNK N   1      25.177  16.240   1.848  0.00  0.00     0.222 HD
ENDBRANCH  37  39
BRANCH  37  41
HETATM   41  O   UNK N   1      27.289  15.706   4.993  0.00  0.00    -0.288 OA
BRANCH  41  42
HETATM   42  C   UNK N   1      28.587  16.088   4.627  0.00  0.00     0.169 C 
HETATM   43  C   UNK N   1      29.555  15.629   5.680  0.00  0.00     0.089 C 
HETATM   44  C   UNK N   1      29.681  16.839   6.616  0.00  0.00     0.235 C 
HETATM   45  O   UNK N   1      29.035  17.937   6.021  0.00  0.00    -0.356 OA
HETATM   46  C   UNK N   1      28.806  17.608   4.685  0.00  0.00     0.178 C 
BRANCH  44  47
HETATM   47  N   UNK N   1      31.076  17.224   6.898  0.00  0.00    -0.282 N 
HETATM   48  C   UNK N   1      32.042  17.117   5.935  0.00  0.00     0.102 A 
HETATM   49  C   UNK N   1      33.350  17.519   6.193  0.00  0.00     0.073 A 
HETATM   50  C   UNK N   1      33.658  18.040   7.444  0.00  0.00     0.144 A 
HETATM   51  N   UNK N   1      32.694  18.143   8.392  0.00  0.00    -0.289 N 
HETATM   52  C   UNK N   1      31.412  17.739   8.138  0.00  0.00     0.330 A 
ATOM     53  HN  UNK N   1      32.928  18.526   9.307  1.00  0.00     0.172 HD
HETATM   54  O   UNK N   1      30.565  17.859   9.011  0.00  0.00    -0.246 OA
BRANCH  50  55
HETATM   55  O   UNK N   1      34.907  18.448   7.714  0.00  0.00    -0.346 OA
HETATM   56  H   UNK N   1      35.105  19.358   7.816  0.00  0.00     0.219 HD
ENDBRANCH  50  55
ENDBRANCH  44  47
BRANCH  46  57
HETATM   57  C   UNK N   1      27.700  18.536   4.150  0.00  0.00     0.215 C 
BRANCH  57  58
HETATM   58  O   UNK N   1      26.847  18.948   5.198  0.00  0.00    -0.294 OA
BRANCH  58  59
HETATM   59  P   UNK N   1      25.677  20.044   4.509  0.00  0.00     0.390 P 
HETATM   60  O   UNK N   1      26.051  20.565   3.097  0.00  0.00    -0.632 OA
BRANCH  59  61
HETATM   61  O   UNK N   1      27.206  20.853   4.669  0.00  0.00    -0.307 OA
HETATM   62  H   UNK N   1      27.846  21.381   5.173  0.00  0.00     0.222 HD
ENDBRANCH  59  61
BRANCH  59  63
HETATM   63  O   UNK N   1      25.664  18.630   3.500  0.00  0.00    -0.307 OA
HETATM   64  H   UNK N   1      24.839  18.138   3.364  0.00  0.00     0.222 HD
ENDBRANCH  59  63
ENDBRANCH  58  59
ENDBRANCH  57  58
ENDBRANCH  46  57
ENDBRANCH  41  42
ENDBRANCH  37  41
ENDBRANCH  36  37
ENDBRANCH   2  36
TORSDOF 23
ENDMDL
MODEL 8
REMARK VINA RESULT:      -6.9      5.193      8.793
REMARK  23 active torsions:
REMARK  status: ('A' for Active; 'I' for Inactive)
REMARK    1  A    between atoms: C_9  and  C_4 
REMARK    2  A    between atoms: O_44  and  C_4 
REMARK    3  A    between atoms: C_10  and  C_5 
REMARK    4  A    between atoms: O_45  and  C_5 
REMARK    5  A    between atoms: C_8  and  O_48 
REMARK    6  A    between atoms: O_31  and  C_11 
REMARK    7  A    between atoms: C_12  and  N_29 
REMARK    8  A    between atoms: C_14  and  O_32 
REMARK    9  A    between atoms: C_15  and  O_49 
REMARK   10  A    between atoms: N_20  and  C_16 
REMARK   11  A    between atoms: C_18  and  N_30 
REMARK   12  A    between atoms: P_51  and  O_34 
REMARK   13  A    between atoms: P_51  and  O_35 
REMARK   14  A    between atoms: P_52  and  O_37 
REMARK   15  A    between atoms: P_52  and  O_38 
REMARK   16  A    between atoms: P_53  and  O_40 
REMARK   17  A    between atoms: P_54  and  O_42 
REMARK   18  A    between atoms: P_51  and  O_44 
REMARK   19  A    between atoms: P_53  and  O_45 
REMARK   20  A    between atoms: P_54  and  O_48 
REMARK   21  A    between atoms: P_52  and  O_49 
REMARK   22  A    between atoms: P_53  and  O_50 
REMARK   23  A    between atoms: P_54  and  O_50 
ROOT
HETATM    1  O   UNK N   1      20.006  17.212   2.443  0.00  0.00    -0.631 OA
HETATM    2  P   UNK N   1      20.561  16.173   3.455  0.00  0.00     0.401 P 
ENDROOT
BRANCH   2   3
HETATM    3  O   UNK N   1      21.617  15.108   2.580  0.00  0.00    -0.307 OA
HETATM    4  H   UNK N   1      21.475  14.149   2.587  0.00  0.00     0.222 HD
ENDBRANCH   2   3
BRANCH   2   5
HETATM    5  O   UNK N   1      21.445  16.988   4.690  0.00  0.00    -0.294 OA
BRANCH   5   6
HETATM    6  C   UNK N   1      22.773  16.591   4.480  0.00  0.00     0.215 C 
BRANCH   6   7
HETATM    7  C   UNK N   1      23.712  17.599   5.105  0.00  0.00     0.180 C 
HETATM    8  C   UNK N   1      23.949  18.821   4.196  0.00  0.00     0.197 C 
HETATM    9  C   UNK N   1      25.415  19.119   4.476  0.00  0.00     0.199 C 
HETATM   10  C   UNK N   1      25.857  17.640   4.459  0.00  0.00     0.262 C 
HETATM   11  O   UNK N   1      24.958  16.966   5.304  0.00  0.00    -0.353 OA
BRANCH   8  12
HETATM   12  O   UNK N   1      22.921  19.805   4.185  0.00  0.00    -0.286 OA
BRANCH  12  13
HETATM   13  P   UNK N   1      22.159  20.104   2.649  0.00  0.00     0.391 P 
HETATM   14  O   UNK N   1      21.356  21.434   2.674  0.00  0.00    -0.632 OA
BRANCH  13  15
HETATM   15  O   UNK N   1      23.358  21.340   2.881  0.00  0.00    -0.307 OA
HETATM   16  H   UNK N   1      23.306  22.253   2.560  0.00  0.00     0.222 HD
ENDBRANCH  13  15
BRANCH  13  17
HETATM   17  O   UNK N   1      20.965  19.886   3.895  0.00  0.00    -0.307 OA
HETATM   18  H   UNK N   1      20.352  20.289   4.528  0.00  0.00     0.222 HD
ENDBRANCH  13  17
ENDBRANCH  12  13
ENDBRANCH   8  12
BRANCH   9  19
HETATM   19  O   UNK N   1      25.597  19.655   5.755  0.00  0.00    -0.388 OA
HETATM   20  H   UNK N   1      25.291  20.233   6.472  0.00  0.00     0.210 HD
ENDBRANCH   9  19
BRANCH  10  21
HETATM   21  N   UNK N   1      27.229  17.300   4.813  0.00  0.00    -0.297 N 
HETATM   22  C   UNK N   1      28.172  16.992   3.883  0.00  0.00     0.188 A 
HETATM   23  N   UNK N   1      29.388  16.782   4.451  0.00  0.00    -0.346 N 
HETATM   24  C   UNK N   1      29.175  16.978   5.762  0.00  0.00     0.122 A 
ATOM     25  HN  UNK N   1      30.262  16.533   3.988  1.00  0.00     0.167 HD
HETATM   26  C   UNK N   1      30.070  16.937   6.811  0.00  0.00     0.131 A 
HETATM   27  C   UNK N   1      27.878  17.280   5.983  0.00  0.00     0.142 A 
HETATM   28  N   UNK N   1      29.598  17.202   8.064  0.00  0.00    -0.337 N 
HETATM   29  C   UNK N   1      28.272  17.504   8.271  0.00  0.00     0.183 A 
ATOM     30  HN  UNK N   1      30.237  17.177   8.859  1.00  0.00     0.168 HD
HETATM   31  N   UNK N   1      27.396  17.551   7.218  0.00  0.00    -0.336 N 
ATOM     32  HN  UNK N   1      26.413  17.785   7.361  1.00  0.00     0.168 HD
BRANCH  26  33
HETATM   33  N   UNK N   1      31.434  16.651   6.596  0.00  0.00    -0.383 N 
HETATM   34  H   UNK N   1      31.707  16.054   5.863  0.00  0.00     0.157 HD
HETATM   35  H   UNK N   1      32.115  17.051   7.183  0.00  0.00     0.157 HD
ENDBRANCH  26  33
ENDBRANCH  10  21
ENDBRANCH   6   7
ENDBRANCH   5   6
ENDBRANCH   2   5
BRANCH   2  36
HETATM   36  O   UNK N   1      19.253  15.273   4.160  0.00  0.00    -0.195 OA
BRANCH  36  37
HETATM   37  P   UNK N   1      19.687  13.594   4.240  0.00  0.00     0.402 P 
HETATM   38  O   UNK N   1      18.636  12.804   5.039  0.00  0.00    -0.631 OA
BRANCH  37  39
HETATM   39  O   UNK N   1      19.763  12.871   2.659  0.00  0.00    -0.307 OA
HETATM   40  H   UNK N   1      19.573  12.674   1.728  0.00  0.00     0.222 HD
ENDBRANCH  37  39
BRANCH  37  41
HETATM   41  O   UNK N   1      21.204  13.485   5.115  0.00  0.00    -0.288 OA
BRANCH  41  42
HETATM   42  C   UNK N   1      20.961  12.744   6.280  0.00  0.00     0.169 C 
HETATM   43  C   UNK N   1      21.264  13.594   7.481  0.00  0.00     0.089 C 
HETATM   44  C   UNK N   1      22.724  13.254   7.812  0.00  0.00     0.235 C 
HETATM   45  O   UNK N   1      23.120  12.159   7.026  0.00  0.00    -0.356 OA
HETATM   46  C   UNK N   1      21.963  11.598   6.484  0.00  0.00     0.178 C 
BRANCH  44  47
HETATM   47  N   UNK N   1      22.941  12.905   9.229  0.00  0.00    -0.282 N 
HETATM   48  C   UNK N   1      21.911  12.450  10.005  0.00  0.00     0.102 A 
HETATM   49  C   UNK N   1      22.128  12.085  11.331  0.00  0.00     0.073 A 
HETATM   50  C   UNK N   1      23.414  12.180  11.851  0.00  0.00     0.144 A 
HETATM   51  N   UNK N   1      24.428  12.632  11.074  0.00  0.00    -0.289 N 
HETATM   52  C   UNK N   1      24.210  12.998   9.775  0.00  0.00     0.330 A 
ATOM     53  HN  UNK N   1      25.368  12.699  11.464  1.00  0.00     0.172 HD
HETATM   54  O   UNK N   1      25.150  13.387   9.098  0.00  0.00    -0.246 OA
BRANCH  50  55
HETATM   55  O   UNK N   1      23.654  11.821  13.122  0.00  0.00    -0.346 OA
HETATM   56  H   UNK N   1      24.366  11.251  13.334  0.00  0.00     0.219 HD
ENDBRANCH  50  55
ENDBRANCH  44  47
BRANCH  46  57
HETATM   57  C   UNK N   1      22.373  10.748   5.267  0.00  0.00     0.215 C 
BRANCH  57  58
HETATM   58  O   UNK N   1      23.632  11.157   4.775  0.00  0.00    -0.294 OA
BRANCH  58  59
HETATM   59  P   UNK N   1      23.558  11.071   3.034  0.00  0.00     0.390 P 
HETATM   60  O   UNK N   1      22.164  11.404   2.443  0.00  0.00    -0.632 OA
BRANCH  59  61
HETATM   61  O   UNK N   1      22.443   9.928   3.719  0.00  0.00    -0.307 OA
HETATM   62  H   UNK N   1      21.576   9.692   4.086  0.00  0.00     0.222 HD
ENDBRANCH  59  61
BRANCH  59  63
HETATM   63  O   UNK N   1      23.291  12.737   3.446  0.00  0.00    -0.307 OA
HETATM   64  H   UNK N   1      24.036  13.359   3.464  0.00  0.00     0.222 HD
ENDBRANCH  59  63
ENDBRANCH  58  59
ENDBRANCH  57  58
ENDBRANCH  46  57
ENDBRANCH  41  42
ENDBRANCH  37  41
ENDBRANCH  36  37
ENDBRANCH   2  36
TORSDOF 23
ENDMDL
MODEL 9
REMARK VINA RESULT:      -6.9      3.660     10.642
REMARK  23 active torsions:
REMARK  status: ('A' for Active; 'I' for Inactive)
REMARK    1  A    between atoms: C_9  and  C_4 
REMARK    2  A    between atoms: O_44  and  C_4 
REMARK    3  A    between atoms: C_10  and  C_5 
REMARK    4  A    between atoms: O_45  and  C_5 
REMARK    5  A    between atoms: C_8  and  O_48 
REMARK    6  A    between atoms: O_31  and  C_11 
REMARK    7  A    between atoms: C_12  and  N_29 
REMARK    8  A    between atoms: C_14  and  O_32 
REMARK    9  A    between atoms: C_15  and  O_49 
REMARK   10  A    between atoms: N_20  and  C_16 
REMARK   11  A    between atoms: C_18  and  N_30 
REMARK   12  A    between atoms: P_51  and  O_34 
REMARK   13  A    between atoms: P_51  and  O_35 
REMARK   14  A    between atoms: P_52  and  O_37 
REMARK   15  A    between atoms: P_52  and  O_38 
REMARK   16  A    between atoms: P_53  and  O_40 
REMARK   17  A    between atoms: P_54  and  O_42 
REMARK   18  A    between atoms: P_51  and  O_44 
REMARK   19  A    between atoms: P_53  and  O_45 
REMARK   20  A    between atoms: P_54  and  O_48 
REMARK   21  A    between atoms: P_52  and  O_49 
REMARK   22  A    between atoms: P_53  and  O_50 
REMARK   23  A    between atoms: P_54  and  O_50 
ROOT
HETATM    1  O   UNK N   1      27.169  17.607   3.915  0.00  0.00    -0.631 OA
HETATM    2  P   UNK N   1      27.151  18.999   4.601  0.00  0.00     0.401 P 
ENDROOT
BRANCH   2   3
HETATM    3  O   UNK N   1      27.495  20.185   3.382  0.00  0.00    -0.307 OA
HETATM    4  H   UNK N   1      26.950  20.982   3.293  0.00  0.00     0.222 HD
ENDBRANCH   2   3
BRANCH   2   5
HETATM    5  O   UNK N   1      25.591  19.289   5.274  0.00  0.00    -0.294 OA
BRANCH   5   6
HETATM    6  C   UNK N   1      24.811  19.680   4.176  0.00  0.00     0.215 C 
BRANCH   6   7
HETATM    7  C   UNK N   1      23.810  18.594   3.850  0.00  0.00     0.180 C 
HETATM    8  C   UNK N   1      22.389  19.151   3.636  0.00  0.00     0.197 C 
HETATM    9  C   UNK N   1      21.542  18.044   4.246  0.00  0.00     0.199 C 
HETATM   10  C   UNK N   1      22.461  17.831   5.468  0.00  0.00     0.262 C 
HETATM   11  O   UNK N   1      23.761  17.707   4.947  0.00  0.00    -0.353 OA
BRANCH   8  12
HETATM   12  O   UNK N   1      22.132  19.749   2.370  0.00  0.00    -0.286 OA
BRANCH  12  13
HETATM   13  P   UNK N   1      20.618  20.592   2.211  0.00  0.00     0.391 P 
HETATM   14  O   UNK N   1      20.693  21.667   1.092  0.00  0.00    -0.632 OA
BRANCH  13  15
HETATM   15  O   UNK N   1      20.864  19.688   0.747  0.00  0.00    -0.307 OA
HETATM   16  H   UNK N   1      20.816  18.724   0.658  0.00  0.00     0.222 HD
ENDBRANCH  13  15
BRANCH  13  17
HETATM   17  O   UNK N   1      21.877  21.681   2.715  0.00  0.00    -0.307 OA
HETATM   18  H   UNK N   1      22.276  22.563   2.657  0.00  0.00     0.222 HD
ENDBRANCH  13  17
ENDBRANCH  12  13
ENDBRANCH   8  12
BRANCH   9  19
HETATM   19  O   UNK N   1      21.539  16.897   3.447  0.00  0.00    -0.388 OA
HETATM   20  H   UNK N   1      21.717  15.949   3.343  0.00  0.00     0.210 HD
ENDBRANCH   9  19
BRANCH  10  21
HETATM   21  N   UNK N   1      22.183  16.737   6.389  0.00  0.00    -0.297 N 
HETATM   22  C   UNK N   1      21.034  16.660   7.113  0.00  0.00     0.188 A 
HETATM   23  N   UNK N   1      20.975  15.516   7.842  0.00  0.00    -0.346 N 
HETATM   24  C   UNK N   1      22.118  14.879   7.543  0.00  0.00     0.122 A 
ATOM     25  HN  UNK N   1      20.233  15.212   8.472  1.00  0.00     0.167 HD
HETATM   26  C   UNK N   1      22.570  13.646   7.967  0.00  0.00     0.131 A 
HETATM   27  C   UNK N   1      22.849  15.613   6.679  0.00  0.00     0.142 A 
HETATM   28  N   UNK N   1      23.772  13.207   7.489  0.00  0.00    -0.337 N 
HETATM   29  C   UNK N   1      24.505  13.972   6.612  0.00  0.00     0.183 A 
ATOM     30  HN  UNK N   1      24.131  12.300   7.786  1.00  0.00     0.168 HD
HETATM   31  N   UNK N   1      24.039  15.190   6.192  0.00  0.00    -0.336 N 
ATOM     32  HN  UNK N   1      24.571  15.759   5.533  1.00  0.00     0.168 HD
BRANCH  26  33
HETATM   33  N   UNK N   1      21.808  12.851   8.847  0.00  0.00    -0.383 N 
HETATM   34  H   UNK N   1      20.826  12.826   8.770  0.00  0.00     0.157 HD
HETATM   35  H   UNK N   1      22.259  12.320   9.542  0.00  0.00     0.157 HD
ENDBRANCH  26  33
ENDBRANCH  10  21
ENDBRANCH   6   7
ENDBRANCH   5   6
ENDBRANCH   2   5
BRANCH   2  36
HETATM   36  O   UNK N   1      28.355  19.060   5.852  0.00  0.00    -0.195 OA
BRANCH  36  37
HETATM   37  P   UNK N   1      28.005  17.852   7.049  0.00  0.00     0.402 P 
HETATM   38  O   UNK N   1      27.828  18.500   8.432  0.00  0.00    -0.631 OA
BRANCH  37  39
HETATM   39  O   UNK N   1      26.526  17.006   6.698  0.00  0.00    -0.307 OA
HETATM   40  H   UNK N   1      25.869  16.296   6.620  0.00  0.00     0.222 HD
ENDBRANCH  37  39
BRANCH  37  41
HETATM   41  O   UNK N   1      29.397  16.786   7.140  0.00  0.00    -0.288 OA
BRANCH  41  42
HETATM   42  C   UNK N   1      30.221  17.084   6.045  0.00  0.00     0.169 C 
HETATM   43  C   UNK N   1      30.106  15.986   5.026  0.00  0.00     0.089 C 
HETATM   44  C   UNK N   1      31.260  15.036   5.377  0.00  0.00     0.235 C 
HETATM   45  O   UNK N   1      32.073  15.655   6.342  0.00  0.00    -0.356 OA
HETATM   46  C   UNK N   1      31.718  17.004   6.380  0.00  0.00     0.178 C 
BRANCH  44  47
HETATM   47  N   UNK N   1      32.105  14.682   4.222  0.00  0.00    -0.282 N 
HETATM   48  C   UNK N   1      33.205  15.428   3.902  0.00  0.00     0.102 A 
HETATM   49  C   UNK N   1      34.023  15.067   2.834  0.00  0.00     0.073 A 
HETATM   50  C   UNK N   1      33.708  13.928   2.103  0.00  0.00     0.144 A 
HETATM   51  N   UNK N   1      32.615  13.195   2.427  0.00  0.00    -0.289 N 
HETATM   52  C   UNK N   1      31.809  13.557   3.471  0.00  0.00     0.330 A 
ATOM     53  HN  UNK N   1      32.390  12.360   1.885  1.00  0.00     0.172 HD
HETATM   54  O   UNK N   1      30.840  12.865   3.745  0.00  0.00    -0.246 OA
BRANCH  50  55
HETATM   55  O   UNK N   1      34.486  13.550   1.078  0.00  0.00    -0.346 OA
HETATM   56  H   UNK N   1      34.761  12.659   0.986  0.00  0.00     0.219 HD
ENDBRANCH  50  55
ENDBRANCH  44  47
BRANCH  46  57
HETATM   57  C   UNK N   1      32.209  17.586   7.718  0.00  0.00     0.215 C 
BRANCH  57  58
HETATM   58  O   UNK N   1      33.451  18.236   7.552  0.00  0.00    -0.294 OA
BRANCH  58  59
HETATM   59  P   UNK N   1      34.653  17.271   8.370  0.00  0.00     0.390 P 
HETATM   60  O   UNK N   1      34.891  17.675   9.848  0.00  0.00    -0.632 OA
BRANCH  59  61
HETATM   61  O   UNK N   1      35.157  18.934   8.354  0.00  0.00    -0.307 OA
HETATM   62  H   UNK N   1      35.029  19.865   8.111  0.00  0.00     0.222 HD
ENDBRANCH  59  61
BRANCH  59  63
HETATM   63  O   UNK N   1      33.146  16.938   9.165  0.00  0.00    -0.307 OA
HETATM   64  H   UNK N   1      32.307  17.088   8.700  0.00  0.00     0.222 HD
ENDBRANCH  59  63
ENDBRANCH  58  59
ENDBRANCH  57  58
ENDBRANCH  46  57
ENDBRANCH  41  42
ENDBRANCH  37  41
ENDBRANCH  36  37
ENDBRANCH   2  36
TORSDOF 23
ENDMDL
