REMARK  5 active torsions:
REMARK  status: ('A' for Active; 'I' for Inactive)
REMARK    1  A    between atoms: C_3  and  C_2 
REMARK    2  A    between atoms: C_4  and  C_3 
REMARK    3  A    between atoms: C_6  and  C_4 
REMARK    4  A    between atoms: C_6  and  C_5 
REMARK    5  A    between atoms: C_6  and  N_7 
ROOT
HETATM    1  C   UNK N   1       1.082  -1.414   0.154  0.00  0.00     0.136 C 
ENDROOT
BRANCH   1   2
HETATM    2  C   UNK N   1      -0.211  -1.759  -0.572  0.00  0.00     0.032 C 
BRANCH   2   3
HETATM    3  C   UNK N   1      -1.422  -1.211   0.167  0.00  0.00     0.002 C 
BRANCH   3   4
HETATM    4  C   UNK N   1      -2.688  -1.795  -0.422  0.00  0.00    -0.004 C 
HETATM    5  C   UNK N   1      -3.882  -1.016   0.087  0.00  0.00     0.005 C 
ENDBRANCH   3   4
ENDBRANCH   2   3
ENDBRANCH   1   2
BRANCH   1   6
HETATM    6  C   UNK N   1       2.237  -1.934  -0.636  0.00  0.00     0.255 C 
HETATM    7  O   UNK N   1       3.382  -1.776  -0.236  0.00  0.00    -0.305 OA
ENDBRANCH   1   6
BRANCH   1   8
HETATM    8  N   UNK N   1       1.207   0.028   0.299  0.00  0.00    -0.420 N 
HETATM    9  H   UNK N   1       2.126   0.458   0.400  0.00  0.00     0.150 HD
HETATM   10  H   UNK N   1       0.371   0.612   0.299  0.00  0.00     0.150 HD
ENDBRANCH   1   8
TORSDOF 5
