REMARK  5 active torsions:
REMARK  status: ('A' for Active; 'I' for Inactive)
REMARK    1  A    between atoms: C_2  and  N_1 
REMARK    2  A    between atoms: C_2  and  C_3 
REMARK    3  A    between atoms: C_2  and  C_14 
REMARK    4  A    between atoms: C_3  and  C_4 
REMARK    5  A    between atoms: C_14  and  O_15 
ROOT
HETATM    1  C   UNK N   1      -0.172  -0.219   0.000  0.00  0.00    -0.028 A 
HETATM    2  C   UNK N   1      -0.901  -1.408  -0.000  0.00  0.00     0.096 A 
HETATM    3  N   UNK N   1      -0.043  -2.465  -0.000  0.00  0.00    -0.365 N 
HETATM    4  C   UNK N   1       1.195  -1.938  -0.000  0.00  0.00     0.043 A 
HETATM    5  C   UNK N   1       1.147  -0.577   0.000  0.00  0.00     0.001 A 
HETATM    6  C   UNK N   1       2.293   0.210   0.000  0.00  0.00     0.056 A 
HETATM    7  C   UNK N   1       3.534  -0.445   0.000  0.00  0.00     0.117 A 
HETATM    8  F   UNK N   1       4.675   0.284   0.000  0.00  0.00    -0.206 F 
HETATM    9  C   UNK N   1       3.594  -1.859  -0.000  0.00  0.00     0.044 A 
HETATM   10  C   UNK N   1       2.409  -2.624  -0.000  0.00  0.00     0.033 A 
HETATM   11  H   UNK N   1      -0.280  -3.420  -0.001  0.00  0.00     0.165 HD
ENDROOT
BRANCH   1  12
HETATM   12  C   UNK N   1      -0.633   1.208   0.002  0.00  0.00     0.076 C 
BRANCH  12  13
HETATM   13  C   UNK N   1      -2.126   1.525  -0.005  0.00  0.00     0.177 C 
BRANCH  13  14
HETATM   14  N   UNK N   1      -3.127   0.470   0.003  0.00  0.00    -0.417 N 
HETATM   15  H   UNK N   1      -4.118   0.708   0.008  0.00  0.00     0.150 HD
HETATM   16  H   UNK N   1      -2.837  -0.508   0.003  0.00  0.00     0.150 HD
ENDBRANCH  13  14
BRANCH  13  17
HETATM   17  C   UNK N   1      -2.585   2.950  -0.000  0.00  0.00     0.163 C 
HETATM   18  O   UNK N   1      -1.765   3.855   0.000  0.00  0.00    -0.648 OA
BRANCH  17  19
HETATM   19  O   UNK N   1      -3.899   3.242   0.001  0.00  0.00    -0.775 OA
HETATM   20  H   UNK N   1      -4.180   4.136   0.001  0.00  0.00     0.167 HD
ENDBRANCH  17  19
ENDBRANCH  13  17
ENDBRANCH  12  13
ENDBRANCH   1  12
TORSDOF 5
