MODEL 1
REMARK VINA RESULT:      -6.4      0.000      0.000
REMARK  12 active torsions:
REMARK  status: ('A' for Active; 'I' for Inactive)
REMARK    1  A    between atoms: C_2  and  C_11 
REMARK    2  A    between atoms: C_3  and  O_10 
REMARK    3  A    between atoms: C_4  and  O_9 
REMARK    4  A    between atoms: C_5  and  O_8 
REMARK    5  A    between atoms: C_6  and  O_7 
REMARK    6  A    between atoms: C_15  and  O_7 
REMARK    7  A    between atoms: C_11  and  O_12 
REMARK    8  A    between atoms: C_14  and  C_22 
REMARK    9  A    between atoms: C_16  and  O_21 
REMARK   10  A    between atoms: C_17  and  O_20 
REMARK   11  A    between atoms: C_18  and  O_19 
REMARK   12  A    between atoms: C_22  and  O_23 
ROOT
HETATM    1  O   UNK N   1      32.063  17.214   8.554  0.00  0.00    -0.348 OA
ENDROOT
BRANCH   1   2
HETATM    2  C   UNK N   1      30.758  16.975   8.104  0.00  0.00     0.292 C 
HETATM    3  C   UNK N   1      29.774  17.710   9.033  0.00  0.00     0.204 C 
HETATM    4  C   UNK N   1      28.356  17.590   8.489  0.00  0.00     0.183 C 
HETATM    5  C   UNK N   1      28.316  18.008   7.023  0.00  0.00     0.180 C 
HETATM    6  C   UNK N   1      29.387  17.196   6.276  0.00  0.00     0.179 C 
HETATM    7  O   UNK N   1      30.648  17.520   6.805  0.00  0.00    -0.348 OA
BRANCH   3   8
HETATM    8  O   UNK N   1      29.818  17.170  10.319  0.00  0.00    -0.388 OA
HETATM    9  H   UNK N   1      29.235  17.429  11.049  0.00  0.00     0.210 HD
ENDBRANCH   3   8
BRANCH   4  10
HETATM   10  O   UNK N   1      27.489  18.388   9.239  0.00  0.00    -0.390 OA
HETATM   11  H   UNK N   1      26.892  19.032   8.827  0.00  0.00     0.210 HD
ENDBRANCH   4  10
BRANCH   5  12
HETATM   12  O   UNK N   1      27.043  17.760   6.510  0.00  0.00    -0.390 OA
HETATM   13  H   UNK N   1      26.792  17.442   5.628  0.00  0.00     0.210 HD
ENDBRANCH   5  12
BRANCH   6  14
HETATM   14  C   UNK N   1      29.405  17.533   4.790  0.00  0.00     0.198 C 
BRANCH  14  15
HETATM   15  O   UNK N   1      28.893  18.811   4.562  0.00  0.00    -0.398 OA
HETATM   16  H   UNK N   1      28.033  19.229   4.725  0.00  0.00     0.209 HD
ENDBRANCH  14  15
ENDBRANCH   6  14
ENDBRANCH   1   2
BRANCH   1  17
HETATM   17  C   UNK N   1      32.785  16.008   8.532  0.00  0.00     0.187 C 
HETATM   18  C   UNK N   1      34.207  16.269   7.971  0.00  0.00     0.180 C 
HETATM   19  O   UNK N   1      35.019  15.134   8.155  0.00  0.00    -0.349 OA
HETATM   20  C   UNK N   1      35.270  15.047   9.531  0.00  0.00     0.288 C 
HETATM   21  C   UNK N   1      34.017  14.503  10.202  0.00  0.00     0.204 C 
HETATM   22  C   UNK N   1      32.903  15.524   9.988  0.00  0.00     0.183 C 
BRANCH  18  23
HETATM   23  C   UNK N   1      34.186  16.590   6.484  0.00  0.00     0.198 C 
BRANCH  23  24
HETATM   24  O   UNK N   1      34.183  17.967   6.276  0.00  0.00    -0.398 OA
HETATM   25  H   UNK N   1      33.529  18.657   6.082  0.00  0.00     0.209 HD
ENDBRANCH  23  24
ENDBRANCH  18  23
BRANCH  20  26
HETATM   26  O   UNK N   1      36.353  14.194   9.754  0.00  0.00    -0.369 OA
HETATM   27  H   UNK N   1      36.460  13.347   9.293  0.00  0.00     0.212 HD
ENDBRANCH  20  26
BRANCH  21  28
HETATM   28  O   UNK N   1      34.234  14.336  11.571  0.00  0.00    -0.388 OA
HETATM   29  H   UNK N   1      34.023  14.995  12.250  0.00  0.00     0.210 HD
ENDBRANCH  21  28
BRANCH  22  30
HETATM   30  O   UNK N   1      31.692  14.997  10.435  0.00  0.00    -0.390 OA
HETATM   31  H   UNK N   1      31.614  14.286  11.091  0.00  0.00     0.210 HD
ENDBRANCH  22  30
ENDBRANCH   1  17
TORSDOF 12
ENDMDL
MODEL 2
REMARK VINA RESULT:      -6.3      1.922      3.367
REMARK  12 active torsions:
REMARK  status: ('A' for Active; 'I' for Inactive)
REMARK    1  A    between atoms: C_2  and  C_11 
REMARK    2  A    between atoms: C_3  and  O_10 
REMARK    3  A    between atoms: C_4  and  O_9 
REMARK    4  A    between atoms: C_5  and  O_8 
REMARK    5  A    between atoms: C_6  and  O_7 
REMARK    6  A    between atoms: C_15  and  O_7 
REMARK    7  A    between atoms: C_11  and  O_12 
REMARK    8  A    between atoms: C_14  and  C_22 
REMARK    9  A    between atoms: C_16  and  O_21 
REMARK   10  A    between atoms: C_17  and  O_20 
REMARK   11  A    between atoms: C_18  and  O_19 
REMARK   12  A    between atoms: C_22  and  O_23 
ROOT
HETATM    1  O   UNK N   1      31.320  15.946   6.169  0.00  0.00    -0.348 OA
ENDROOT
BRANCH   1   2
HETATM    2  C   UNK N   1      30.576  17.115   6.374  0.00  0.00     0.292 C 
HETATM    3  C   UNK N   1      29.498  17.212   5.279  0.00  0.00     0.204 C 
HETATM    4  C   UNK N   1      28.579  18.395   5.556  0.00  0.00     0.183 C 
HETATM    5  C   UNK N   1      28.061  18.337   6.988  0.00  0.00     0.180 C 
HETATM    6  C   UNK N   1      29.276  18.205   7.921  0.00  0.00     0.179 C 
HETATM    7  O   UNK N   1      29.938  17.000   7.629  0.00  0.00    -0.348 OA
BRANCH   3   8
HETATM    8  O   UNK N   1      30.087  17.373   4.024  0.00  0.00    -0.388 OA
HETATM    9  H   UNK N   1      30.123  16.690   3.337  0.00  0.00     0.210 HD
ENDBRANCH   3   8
BRANCH   4  10
HETATM   10  O   UNK N   1      27.510  18.389   4.658  0.00  0.00    -0.390 OA
HETATM   11  H   UNK N   1      27.640  18.324   3.700  0.00  0.00     0.210 HD
ENDBRANCH   4  10
BRANCH   5  12
HETATM   12  O   UNK N   1      27.338  19.498   7.262  0.00  0.00    -0.390 OA
HETATM   13  H   UNK N   1      26.547  19.609   7.813  0.00  0.00     0.210 HD
ENDBRANCH   5  12
BRANCH   6  14
HETATM   14  C   UNK N   1      28.854  18.162   9.384  0.00  0.00     0.198 C 
BRANCH  14  15
HETATM   15  O   UNK N   1      27.479  17.953   9.500  0.00  0.00    -0.398 OA
HETATM   16  H   UNK N   1      26.776  18.380  10.014  0.00  0.00     0.209 HD
ENDBRANCH  14  15
ENDBRANCH   6  14
ENDBRANCH   1   2
BRANCH   1  17
HETATM   17  C   UNK N   1      32.664  16.192   6.495  0.00  0.00     0.187 C 
HETATM   18  C   UNK N   1      33.088  17.574   5.933  0.00  0.00     0.180 C 
HETATM   19  O   UNK N   1      34.348  17.941   6.442  0.00  0.00    -0.349 OA
HETATM   20  C   UNK N   1      34.154  18.236   7.799  0.00  0.00     0.288 C 
HETATM   21  C   UNK N   1      34.017  16.918   8.548  0.00  0.00     0.204 C 
HETATM   22  C   UNK N   1      32.759  16.226   8.032  0.00  0.00     0.183 C 
BRANCH  18  23
HETATM   23  C   UNK N   1      33.183  17.569   4.414  0.00  0.00     0.198 C 
BRANCH  23  24
HETATM   24  O   UNK N   1      32.933  16.296   3.908  0.00  0.00    -0.398 OA
HETATM   25  H   UNK N   1      33.160  15.381   4.137  0.00  0.00     0.209 HD
ENDBRANCH  23  24
ENDBRANCH  18  23
BRANCH  20  26
HETATM   26  O   UNK N   1      35.248  18.959   8.278  0.00  0.00    -0.369 OA
HETATM   27  H   UNK N   1      35.719  18.724   9.094  0.00  0.00     0.212 HD
ENDBRANCH  20  26
BRANCH  21  28
HETATM   28  O   UNK N   1      33.885  17.152   9.918  0.00  0.00    -0.388 OA
HETATM   29  H   UNK N   1      34.611  17.118  10.560  0.00  0.00     0.210 HD
ENDBRANCH  21  28
BRANCH  22  30
HETATM   30  O   UNK N   1      32.680  14.940   8.562  0.00  0.00    -0.390 OA
HETATM   31  H   UNK N   1      31.867  14.545   8.917  0.00  0.00     0.210 HD
ENDBRANCH  22  30
ENDBRANCH   1  17
TORSDOF 12
ENDMDL
MODEL 3
REMARK VINA RESULT:      -6.1      6.506      9.914
REMARK  12 active torsions:
REMARK  status: ('A' for Active; 'I' for Inactive)
REMARK    1  A    between atoms: C_2  and  C_11 
REMARK    2  A    between atoms: C_3  and  O_10 
REMARK    3  A    between atoms: C_4  and  O_9 
REMARK    4  A    between atoms: C_5  and  O_8 
REMARK    5  A    between atoms: C_6  and  O_7 
REMARK    6  A    between atoms: C_15  and  O_7 
REMARK    7  A    between atoms: C_11  and  O_12 
REMARK    8  A    between atoms: C_14  and  C_22 
REMARK    9  A    between atoms: C_16  and  O_21 
REMARK   10  A    between atoms: C_17  and  O_20 
REMARK   11  A    between atoms: C_18  and  O_19 
REMARK   12  A    between atoms: C_22  and  O_23 
ROOT
HETATM    1  O   UNK N   1      23.314  18.784   4.502  0.00  0.00    -0.348 OA
ENDROOT
BRANCH   1   2
HETATM    2  C   UNK N   1      22.295  18.405   3.619  0.00  0.00     0.292 C 
HETATM    3  C   UNK N   1      21.222  17.632   4.408  0.00  0.00     0.204 C 
HETATM    4  C   UNK N   1      20.030  17.331   3.508  0.00  0.00     0.183 C 
HETATM    5  C   UNK N   1      19.553  18.605   2.820  0.00  0.00     0.180 C 
HETATM    6  C   UNK N   1      20.767  19.244   2.126  0.00  0.00     0.179 C 
HETATM    7  O   UNK N   1      21.716  19.587   3.104  0.00  0.00    -0.348 OA
BRANCH   3   8
HETATM    8  O   UNK N   1      21.741  16.433   4.897  0.00  0.00    -0.388 OA
HETATM    9  H   UNK N   1      21.922  15.647   4.359  0.00  0.00     0.210 HD
ENDBRANCH   3   8
BRANCH   4  10
HETATM   10  O   UNK N   1      18.993  16.776   4.260  0.00  0.00    -0.390 OA
HETATM   11  H   UNK N   1      19.149  16.092   4.930  0.00  0.00     0.210 HD
ENDBRANCH   4  10
BRANCH   5  12
HETATM   12  O   UNK N   1      18.556  18.283   1.899  0.00  0.00    -0.390 OA
HETATM   13  H   UNK N   1      17.728  17.796   2.040  0.00  0.00     0.210 HD
ENDBRANCH   5  12
BRANCH   6  14
HETATM   14  C   UNK N   1      20.378  20.520   1.388  0.00  0.00     0.198 C 
BRANCH  14  15
HETATM   15  O   UNK N   1      20.669  20.417   0.027  0.00  0.00    -0.398 OA
HETATM   16  H   UNK N   1      20.125  20.378  -0.775  0.00  0.00     0.209 HD
ENDBRANCH  14  15
ENDBRANCH   6  14
ENDBRANCH   1   2
BRANCH   1  17
HETATM   17  C   UNK N   1      24.557  18.428   3.950  0.00  0.00     0.187 C 
HETATM   18  C   UNK N   1      25.410  19.704   3.731  0.00  0.00     0.180 C 
HETATM   19  O   UNK N   1      26.733  19.356   3.401  0.00  0.00    -0.349 OA
HETATM   20  C   UNK N   1      27.306  18.831   4.567  0.00  0.00     0.288 C 
HETATM   21  C   UNK N   1      26.772  17.418   4.755  0.00  0.00     0.204 C 
HETATM   22  C   UNK N   1      25.265  17.523   4.975  0.00  0.00     0.183 C 
BRANCH  18  23
HETATM   23  C   UNK N   1      24.863  20.573   2.607  0.00  0.00     0.198 C 
BRANCH  23  24
HETATM   24  O   UNK N   1      23.788  21.339   3.054  0.00  0.00    -0.398 OA
HETATM   25  H   UNK N   1      22.838  21.215   3.201  0.00  0.00     0.209 HD
ENDBRANCH  23  24
ENDBRANCH  18  23
BRANCH  20  26
HETATM   26  O   UNK N   1      28.696  18.814   4.436  0.00  0.00    -0.369 OA
HETATM   27  H   UNK N   1      29.145  18.854   3.577  0.00  0.00     0.212 HD
ENDBRANCH  20  26
BRANCH  21  28
HETATM   28  O   UNK N   1      27.360  16.823   5.872  0.00  0.00    -0.388 OA
HETATM   29  H   UNK N   1      26.981  16.084   6.372  0.00  0.00     0.210 HD
ENDBRANCH  21  28
BRANCH  22  30
HETATM   30  O   UNK N   1      24.702  16.248   4.983  0.00  0.00    -0.390 OA
HETATM   31  H   UNK N   1      23.977  15.975   5.567  0.00  0.00     0.210 HD
ENDBRANCH  22  30
ENDBRANCH   1  17
TORSDOF 12
ENDMDL
MODEL 4
REMARK VINA RESULT:      -5.9     11.372     13.417
REMARK  12 active torsions:
REMARK  status: ('A' for Active; 'I' for Inactive)
REMARK    1  A    between atoms: C_2  and  C_11 
REMARK    2  A    between atoms: C_3  and  O_10 
REMARK    3  A    between atoms: C_4  and  O_9 
REMARK    4  A    between atoms: C_5  and  O_8 
REMARK    5  A    between atoms: C_6  and  O_7 
REMARK    6  A    between atoms: C_15  and  O_7 
REMARK    7  A    between atoms: C_11  and  O_12 
REMARK    8  A    between atoms: C_14  and  C_22 
REMARK    9  A    between atoms: C_16  and  O_21 
REMARK   10  A    between atoms: C_17  and  O_20 
REMARK   11  A    between atoms: C_18  and  O_19 
REMARK   12  A    between atoms: C_22  and  O_23 
ROOT
HETATM    1  O   UNK N   1      19.732  17.498   3.757  0.00  0.00    -0.348 OA
ENDROOT
BRANCH   1   2
HETATM    2  C   UNK N   1      20.248  16.290   4.244  0.00  0.00     0.292 C 
HETATM    3  C   UNK N   1      20.293  16.357   5.781  0.00  0.00     0.204 C 
HETATM    4  C   UNK N   1      20.714  15.007   6.349  0.00  0.00     0.183 C 
HETATM    5  C   UNK N   1      19.852  13.896   5.763  0.00  0.00     0.180 C 
HETATM    6  C   UNK N   1      19.906  14.020   4.231  0.00  0.00     0.179 C 
HETATM    7  O   UNK N   1      19.360  15.261   3.861  0.00  0.00    -0.348 OA
BRANCH   3   8
HETATM    8  O   UNK N   1      21.196  17.333   6.204  0.00  0.00    -0.388 OA
HETATM    9  H   UNK N   1      21.587  17.382   7.090  0.00  0.00     0.210 HD
ENDBRANCH   3   8
BRANCH   4  10
HETATM   10  O   UNK N   1      20.600  15.019   7.741  0.00  0.00    -0.390 OA
HETATM   11  H   UNK N   1      20.885  14.273   8.290  0.00  0.00     0.210 HD
ENDBRANCH   4  10
BRANCH   5  12
HETATM   12  O   UNK N   1      20.343  12.661   6.187  0.00  0.00    -0.390 OA
HETATM   13  H   UNK N   1      20.390  12.299   7.086  0.00  0.00     0.210 HD
ENDBRANCH   5  12
BRANCH   6  14
HETATM   14  C   UNK N   1      19.086  12.929   3.554  0.00  0.00     0.198 C 
BRANCH  14  15
HETATM   15  O   UNK N   1      17.905  12.685   4.256  0.00  0.00    -0.398 OA
HETATM   16  H   UNK N   1      17.224  13.256   4.644  0.00  0.00     0.209 HD
ENDBRANCH  14  15
ENDBRANCH   6  14
ENDBRANCH   1   2
BRANCH   1  17
HETATM   17  C   UNK N   1      20.640  18.050   2.838  0.00  0.00     0.187 C 
HETATM   18  C   UNK N   1      19.976  18.127   1.439  0.00  0.00     0.180 C 
HETATM   19  O   UNK N   1      20.775  18.883   0.561  0.00  0.00    -0.349 OA
HETATM   20  C   UNK N   1      20.681  20.214   0.990  0.00  0.00     0.288 C 
HETATM   21  C   UNK N   1      21.552  20.368   2.230  0.00  0.00     0.204 C 
HETATM   22  C   UNK N   1      20.960  19.478   3.319  0.00  0.00     0.183 C 
BRANCH  18  23
HETATM   23  C   UNK N   1      19.782  16.750   0.821  0.00  0.00     0.198 C 
BRANCH  23  24
HETATM   24  O   UNK N   1      18.590  16.694   0.102  0.00  0.00    -0.398 OA
HETATM   25  H   UNK N   1      18.305  16.824  -0.816  0.00  0.00     0.209 HD
ENDBRANCH  23  24
ENDBRANCH  18  23
BRANCH  20  26
HETATM   26  O   UNK N   1      21.124  21.063  -0.025  0.00  0.00    -0.369 OA
HETATM   27  H   UNK N   1      21.643  21.865   0.147  0.00  0.00     0.212 HD
ENDBRANCH  20  26
BRANCH  21  28
HETATM   28  O   UNK N   1      21.545  21.694   2.665  0.00  0.00    -0.388 OA
HETATM   29  H   UNK N   1      21.455  22.467   2.086  0.00  0.00     0.210 HD
ENDBRANCH  21  28
BRANCH  22  30
HETATM   30  O   UNK N   1      21.815  19.450   4.419  0.00  0.00    -0.390 OA
HETATM   31  H   UNK N   1      21.674  18.901   5.207  0.00  0.00     0.210 HD
ENDBRANCH  22  30
ENDBRANCH   1  17
TORSDOF 12
ENDMDL
MODEL 5
REMARK VINA RESULT:      -5.9      8.386     12.703
REMARK  12 active torsions:
REMARK  status: ('A' for Active; 'I' for Inactive)
REMARK    1  A    between atoms: C_2  and  C_11 
REMARK    2  A    between atoms: C_3  and  O_10 
REMARK    3  A    between atoms: C_4  and  O_9 
REMARK    4  A    between atoms: C_5  and  O_8 
REMARK    5  A    between atoms: C_6  and  O_7 
REMARK    6  A    between atoms: C_15  and  O_7 
REMARK    7  A    between atoms: C_11  and  O_12 
REMARK    8  A    between atoms: C_14  and  C_22 
REMARK    9  A    between atoms: C_16  and  O_21 
REMARK   10  A    between atoms: C_17  and  O_20 
REMARK   11  A    between atoms: C_18  and  O_19 
REMARK   12  A    between atoms: C_22  and  O_23 
ROOT
HETATM    1  O   UNK N   1      19.771  17.321   3.935  0.00  0.00    -0.348 OA
ENDROOT
BRANCH   1   2
HETATM    2  C   UNK N   1      20.504  16.852   5.033  0.00  0.00     0.292 C 
HETATM    3  C   UNK N   1      19.814  15.591   5.584  0.00  0.00     0.204 C 
HETATM    4  C   UNK N   1      20.664  14.972   6.687  0.00  0.00     0.183 C 
HETATM    5  C   UNK N   1      22.098  14.783   6.205  0.00  0.00     0.180 C 
HETATM    6  C   UNK N   1      22.591  16.134   5.662  0.00  0.00     0.179 C 
HETATM    7  O   UNK N   1      21.790  16.499   4.567  0.00  0.00    -0.348 OA
BRANCH   3   8
HETATM    8  O   UNK N   1      18.555  15.904   6.097  0.00  0.00    -0.388 OA
HETATM    9  H   UNK N   1      18.383  16.583   6.767  0.00  0.00     0.210 HD
ENDBRANCH   3   8
BRANCH   4  10
HETATM   10  O   UNK N   1      20.123  13.745   7.074  0.00  0.00    -0.390 OA
HETATM   11  H   UNK N   1      19.695  13.146   6.442  0.00  0.00     0.210 HD
ENDBRANCH   4  10
BRANCH   5  12
HETATM   12  O   UNK N   1      22.886  14.348   7.270  0.00  0.00    -0.390 OA
HETATM   13  H   UNK N   1      22.753  13.586   7.857  0.00  0.00     0.210 HD
ENDBRANCH   5  12
BRANCH   6  14
HETATM   14  C   UNK N   1      24.033  16.046   5.176  0.00  0.00     0.198 C 
BRANCH  14  15
HETATM   15  O   UNK N   1      24.927  16.199   6.236  0.00  0.00    -0.398 OA
HETATM   16  H   UNK N   1      25.319  16.968   6.679  0.00  0.00     0.209 HD
ENDBRANCH  14  15
ENDBRANCH   6  14
ENDBRANCH   1   2
BRANCH   1  17
HETATM   17  C   UNK N   1      20.648  17.926   3.019  0.00  0.00     0.187 C 
HETATM   18  C   UNK N   1      20.047  17.836   1.592  0.00  0.00     0.180 C 
HETATM   19  O   UNK N   1      20.790  18.631   0.700  0.00  0.00    -0.349 OA
HETATM   20  C   UNK N   1      20.516  19.964   1.038  0.00  0.00     0.288 C 
HETATM   21  C   UNK N   1      21.302  20.297   2.298  0.00  0.00     0.204 C 
HETATM   22  C   UNK N   1      20.771  19.407   3.418  0.00  0.00     0.183 C 
BRANCH  18  23
HETATM   23  C   UNK N   1      20.050  16.411   1.058  0.00  0.00     0.198 C 
BRANCH  23  24
HETATM   24  O   UNK N   1      20.876  15.596   1.830  0.00  0.00    -0.398 OA
HETATM   25  H   UNK N   1      21.721  15.132   1.722  0.00  0.00     0.209 HD
ENDBRANCH  23  24
ENDBRANCH  18  23
BRANCH  20  26
HETATM   26  O   UNK N   1      20.902  20.799  -0.013  0.00  0.00    -0.369 OA
HETATM   27  H   UNK N   1      20.648  20.637  -0.936  0.00  0.00     0.212 HD
ENDBRANCH  20  26
BRANCH  21  28
HETATM   28  O   UNK N   1      21.115  21.637   2.645  0.00  0.00    -0.388 OA
HETATM   29  H   UNK N   1      20.662  21.944   3.445  0.00  0.00     0.210 HD
ENDBRANCH  21  28
BRANCH  22  30
HETATM   30  O   UNK N   1      21.570  19.551   4.551  0.00  0.00    -0.390 OA
HETATM   31  H   UNK N   1      22.539  19.510   4.544  0.00  0.00     0.210 HD
ENDBRANCH  22  30
ENDBRANCH   1  17
TORSDOF 12
ENDMDL
MODEL 6
REMARK VINA RESULT:      -5.8      1.211      6.106
REMARK  12 active torsions:
REMARK  status: ('A' for Active; 'I' for Inactive)
REMARK    1  A    between atoms: C_2  and  C_11 
REMARK    2  A    between atoms: C_3  and  O_10 
REMARK    3  A    between atoms: C_4  and  O_9 
REMARK    4  A    between atoms: C_5  and  O_8 
REMARK    5  A    between atoms: C_6  and  O_7 
REMARK    6  A    between atoms: C_15  and  O_7 
REMARK    7  A    between atoms: C_11  and  O_12 
REMARK    8  A    between atoms: C_14  and  C_22 
REMARK    9  A    between atoms: C_16  and  O_21 
REMARK   10  A    between atoms: C_17  and  O_20 
REMARK   11  A    between atoms: C_18  and  O_19 
REMARK   12  A    between atoms: C_22  and  O_23 
ROOT
HETATM    1  O   UNK N   1      30.962  15.732   7.839  0.00  0.00    -0.348 OA
ENDROOT
BRANCH   1   2
HETATM    2  C   UNK N   1      32.277  15.813   8.314  0.00  0.00     0.292 C 
HETATM    3  C   UNK N   1      32.434  14.841   9.498  0.00  0.00     0.204 C 
HETATM    4  C   UNK N   1      33.890  14.797   9.946  0.00  0.00     0.183 C 
HETATM    5  C   UNK N   1      34.802  14.536   8.753  0.00  0.00     0.180 C 
HETATM    6  C   UNK N   1      34.468  15.578   7.672  0.00  0.00     0.179 C 
HETATM    7  O   UNK N   1      33.133  15.398   7.270  0.00  0.00    -0.348 OA
BRANCH   3   8
HETATM    8  O   UNK N   1      31.637  15.241  10.571  0.00  0.00    -0.388 OA
HETATM    9  H   UNK N   1      30.673  15.342  10.538  0.00  0.00     0.210 HD
ENDBRANCH   3   8
BRANCH   4  10
HETATM   10  O   UNK N   1      34.062  13.800  10.908  0.00  0.00    -0.390 OA
HETATM   11  H   UNK N   1      34.441  13.984  11.781  0.00  0.00     0.210 HD
ENDBRANCH   4  10
BRANCH   5  12
HETATM   12  O   UNK N   1      36.132  14.638   9.160  0.00  0.00    -0.390 OA
HETATM   13  H   UNK N   1      36.925  14.789   8.622  0.00  0.00     0.210 HD
ENDBRANCH   5  12
BRANCH   6  14
HETATM   14  C   UNK N   1      35.352  15.407   6.443  0.00  0.00     0.198 C 
BRANCH  14  15
HETATM   15  O   UNK N   1      34.766  15.995   5.322  0.00  0.00    -0.398 OA
HETATM   16  H   UNK N   1      34.050  16.638   5.197  0.00  0.00     0.209 HD
ENDBRANCH  14  15
ENDBRANCH   6  14
ENDBRANCH   1   2
BRANCH   1  17
HETATM   17  C   UNK N   1      30.474  17.030   7.610  0.00  0.00     0.187 C 
HETATM   18  C   UNK N   1      29.771  17.081   6.229  0.00  0.00     0.180 C 
HETATM   19  O   UNK N   1      29.078  18.297   6.080  0.00  0.00    -0.349 OA
HETATM   20  C   UNK N   1      27.983  18.237   6.952  0.00  0.00     0.288 C 
HETATM   21  C   UNK N   1      28.497  18.477   8.365  0.00  0.00     0.204 C 
HETATM   22  C   UNK N   1      29.439  17.327   8.710  0.00  0.00     0.183 C 
BRANCH  18  23
HETATM   23  C   UNK N   1      30.760  16.965   5.078  0.00  0.00     0.198 C 
BRANCH  23  24
HETATM   24  O   UNK N   1      32.022  17.409   5.465  0.00  0.00    -0.398 OA
HETATM   25  H   UNK N   1      32.446  17.733   6.275  0.00  0.00     0.209 HD
ENDBRANCH  23  24
ENDBRANCH  18  23
BRANCH  20  26
HETATM   26  O   UNK N   1      27.052  19.216   6.598  0.00  0.00    -0.369 OA
HETATM   27  H   UNK N   1      26.346  19.063   5.950  0.00  0.00     0.212 HD
ENDBRANCH  20  26
BRANCH  21  28
HETATM   28  O   UNK N   1      27.434  18.490   9.270  0.00  0.00    -0.388 OA
HETATM   29  H   UNK N   1      27.483  18.824  10.179  0.00  0.00     0.210 HD
ENDBRANCH  21  28
BRANCH  22  30
HETATM   30  O   UNK N   1      30.068  17.586   9.926  0.00  0.00    -0.390 OA
HETATM   31  H   UNK N   1      29.648  18.044  10.672  0.00  0.00     0.210 HD
ENDBRANCH  22  30
ENDBRANCH   1  17
TORSDOF 12
ENDMDL
MODEL 7
REMARK VINA RESULT:      -5.7      3.287      7.988
REMARK  12 active torsions:
REMARK  status: ('A' for Active; 'I' for Inactive)
REMARK    1  A    between atoms: C_2  and  C_11 
REMARK    2  A    between atoms: C_3  and  O_10 
REMARK    3  A    between atoms: C_4  and  O_9 
REMARK    4  A    between atoms: C_5  and  O_8 
REMARK    5  A    between atoms: C_6  and  O_7 
REMARK    6  A    between atoms: C_15  and  O_7 
REMARK    7  A    between atoms: C_11  and  O_12 
REMARK    8  A    between atoms: C_14  and  C_22 
REMARK    9  A    between atoms: C_16  and  O_21 
REMARK   10  A    between atoms: C_17  and  O_20 
REMARK   11  A    between atoms: C_18  and  O_19 
REMARK   12  A    between atoms: C_22  and  O_23 
ROOT
HETATM    1  O   UNK N   1      35.014  13.773  10.356  0.00  0.00    -0.348 OA
ENDROOT
BRANCH   1   2
HETATM    2  C   UNK N   1      34.815  13.325  11.668  0.00  0.00     0.292 C 
HETATM    3  C   UNK N   1      34.895  11.788  11.682  0.00  0.00     0.204 C 
HETATM    4  C   UNK N   1      34.827  11.275  13.115  0.00  0.00     0.183 C 
HETATM    5  C   UNK N   1      35.852  11.997  13.983  0.00  0.00     0.180 C 
HETATM    6  C   UNK N   1      35.634  13.509  13.805  0.00  0.00     0.179 C 
HETATM    7  O   UNK N   1      35.866  13.841  12.459  0.00  0.00    -0.348 OA
BRANCH   3   8
HETATM    8  O   UNK N   1      33.845  11.235  10.948  0.00  0.00    -0.388 OA
HETATM    9  H   UNK N   1      33.212  11.742  10.417  0.00  0.00     0.210 HD
ENDBRANCH   3   8
BRANCH   4  10
HETATM   10  O   UNK N   1      35.061   9.900  13.141  0.00  0.00    -0.390 OA
HETATM   11  H   UNK N   1      35.879   9.521  13.499  0.00  0.00     0.210 HD
ENDBRANCH   4  10
BRANCH   5  12
HETATM   12  O   UNK N   1      35.677  11.615  15.313  0.00  0.00    -0.390 OA
HETATM   13  H   UNK N   1      34.857  11.553  15.828  0.00  0.00     0.210 HD
ENDBRANCH   5  12
BRANCH   6  14
HETATM   14  C   UNK N   1      36.605  14.316  14.658  0.00  0.00     0.198 C 
BRANCH  14  15
HETATM   15  O   UNK N   1      37.686  13.531  15.060  0.00  0.00    -0.398 OA
HETATM   16  H   UNK N   1      38.623  13.715  15.232  0.00  0.00     0.209 HD
ENDBRANCH  14  15
ENDBRANCH   6  14
ENDBRANCH   1   2
BRANCH   1  17
HETATM   17  C   UNK N   1      34.046  14.744  10.048  0.00  0.00     0.187 C 
HETATM   18  C   UNK N   1      34.749  16.043   9.577  0.00  0.00     0.180 C 
HETATM   19  O   UNK N   1      33.806  16.943   9.047  0.00  0.00    -0.349 OA
HETATM   20  C   UNK N   1      33.379  16.396   7.829  0.00  0.00     0.288 C 
HETATM   21  C   UNK N   1      32.414  15.260   8.140  0.00  0.00     0.204 C 
HETATM   22  C   UNK N   1      33.196  14.187   8.892  0.00  0.00     0.183 C 
BRANCH  18  23
HETATM   23  C   UNK N   1      35.475  16.746  10.714  0.00  0.00     0.198 C 
BRANCH  23  24
HETATM   24  O   UNK N   1      36.752  16.216  10.888  0.00  0.00    -0.398 OA
HETATM   25  H   UNK N   1      37.175  15.345  10.831  0.00  0.00     0.209 HD
ENDBRANCH  23  24
ENDBRANCH  18  23
BRANCH  20  26
HETATM   26  O   UNK N   1      32.745  17.382   7.072  0.00  0.00    -0.369 OA
HETATM   27  H   UNK N   1      32.441  18.223   7.450  0.00  0.00     0.212 HD
ENDBRANCH  20  26
BRANCH  21  28
HETATM   28  O   UNK N   1      31.907  14.718   6.957  0.00  0.00    -0.388 OA
HETATM   29  H   UNK N   1      31.083  14.994   6.529  0.00  0.00     0.210 HD
ENDBRANCH  21  28
BRANCH  22  30
HETATM   30  O   UNK N   1      32.321  13.203   9.349  0.00  0.00    -0.390 OA
HETATM   31  H   UNK N   1      32.299  12.293   9.011  0.00  0.00     0.210 HD
ENDBRANCH  22  30
ENDBRANCH   1  17
TORSDOF 12
ENDMDL
MODEL 8
REMARK VINA RESULT:      -5.7      3.500      7.519
REMARK  12 active torsions:
REMARK  status: ('A' for Active; 'I' for Inactive)
REMARK    1  A    between atoms: C_2  and  C_11 
REMARK    2  A    between atoms: C_3  and  O_10 
REMARK    3  A    between atoms: C_4  and  O_9 
REMARK    4  A    between atoms: C_5  and  O_8 
REMARK    5  A    between atoms: C_6  and  O_7 
REMARK    6  A    between atoms: C_15  and  O_7 
REMARK    7  A    between atoms: C_11  and  O_12 
REMARK    8  A    between atoms: C_14  and  C_22 
REMARK    9  A    between atoms: C_16  and  O_21 
REMARK   10  A    between atoms: C_17  and  O_20 
REMARK   11  A    between atoms: C_18  and  O_19 
REMARK   12  A    between atoms: C_22  and  O_23 
ROOT
HETATM    1  O   UNK N   1      34.151  14.988  10.763  0.00  0.00    -0.348 OA
ENDROOT
BRANCH   1   2
HETATM    2  C   UNK N   1      35.063  14.009  11.175  0.00  0.00     0.292 C 
HETATM    3  C   UNK N   1      35.687  14.449  12.512  0.00  0.00     0.204 C 
HETATM    4  C   UNK N   1      36.576  13.341  13.062  0.00  0.00     0.183 C 
HETATM    5  C   UNK N   1      35.815  12.020  13.093  0.00  0.00     0.180 C 
HETATM    6  C   UNK N   1      35.241  11.778  11.687  0.00  0.00     0.179 C 
HETATM    7  O   UNK N   1      34.340  12.814  11.385  0.00  0.00    -0.348 OA
BRANCH   3   8
HETATM    8  O   UNK N   1      36.450  15.605  12.341  0.00  0.00    -0.388 OA
HETATM    9  H   UNK N   1      37.218  15.681  11.754  0.00  0.00     0.210 HD
ENDBRANCH   3   8
BRANCH   4  10
HETATM   10  O   UNK N   1      37.012  13.673  14.346  0.00  0.00    -0.390 OA
HETATM   11  H   UNK N   1      37.952  13.763  14.566  0.00  0.00     0.210 HD
ENDBRANCH   4  10
BRANCH   5  12
HETATM   12  O   UNK N   1      36.687  10.997  13.466  0.00  0.00    -0.390 OA
HETATM   13  H   UNK N   1      36.611  10.043  13.306  0.00  0.00     0.210 HD
ENDBRANCH   5  12
BRANCH   6  14
HETATM   14  C   UNK N   1      34.478  10.461  11.616  0.00  0.00     0.198 C 
BRANCH  14  15
HETATM   15  O   UNK N   1      33.268  10.622  10.942  0.00  0.00    -0.398 OA
HETATM   16  H   UNK N   1      33.003  10.555  10.011  0.00  0.00     0.209 HD
ENDBRANCH  14  15
ENDBRANCH   6  14
ENDBRANCH   1   2
BRANCH   1  17
HETATM   17  C   UNK N   1      34.496  15.425   9.473  0.00  0.00     0.187 C 
HETATM   18  C   UNK N   1      33.360  15.061   8.482  0.00  0.00     0.180 C 
HETATM   19  O   UNK N   1      33.576  15.688   7.241  0.00  0.00    -0.349 OA
HETATM   20  C   UNK N   1      33.345  17.055   7.444  0.00  0.00     0.288 C 
HETATM   21  C   UNK N   1      34.555  17.631   8.167  0.00  0.00     0.204 C 
HETATM   22  C   UNK N   1      34.634  16.957   9.534  0.00  0.00     0.183 C 
BRANCH  18  23
HETATM   23  C   UNK N   1      33.272  13.561   8.238  0.00  0.00     0.198 C 
BRANCH  23  24
HETATM   24  O   UNK N   1      32.441  12.955   9.177  0.00  0.00    -0.398 OA
HETATM   25  H   UNK N   1      32.414  12.121   9.671  0.00  0.00     0.209 HD
ENDBRANCH  23  24
ENDBRANCH  18  23
BRANCH  20  26
HETATM   26  O   UNK N   1      33.168  17.685   6.211  0.00  0.00    -0.369 OA
HETATM   27  H   UNK N   1      32.329  17.664   5.723  0.00  0.00     0.212 HD
ENDBRANCH  20  26
BRANCH  21  28
HETATM   28  O   UNK N   1      34.405  19.008   8.340  0.00  0.00    -0.388 OA
HETATM   29  H   UNK N   1      34.327  19.652   7.619  0.00  0.00     0.210 HD
ENDBRANCH  21  28
BRANCH  22  30
HETATM   30  O   UNK N   1      35.819  17.323  10.169  0.00  0.00    -0.390 OA
HETATM   31  H   UNK N   1      36.224  16.827  10.898  0.00  0.00     0.210 HD
ENDBRANCH  22  30
ENDBRANCH   1  17
TORSDOF 12
ENDMDL
MODEL 9
REMARK VINA RESULT:      -5.7     12.278     15.768
REMARK  12 active torsions:
REMARK  status: ('A' for Active; 'I' for Inactive)
REMARK    1  A    between atoms: C_2  and  C_11 
REMARK    2  A    between atoms: C_3  and  O_10 
REMARK    3  A    between atoms: C_4  and  O_9 
REMARK    4  A    between atoms: C_5  and  O_8 
REMARK    5  A    between atoms: C_6  and  O_7 
REMARK    6  A    between atoms: C_15  and  O_7 
REMARK    7  A    between atoms: C_11  and  O_12 
REMARK    8  A    between atoms: C_14  and  C_22 
REMARK    9  A    between atoms: C_16  and  O_21 
REMARK   10  A    between atoms: C_17  and  O_20 
REMARK   11  A    between atoms: C_18  and  O_19 
REMARK   12  A    between atoms: C_22  and  O_23 
ROOT
HETATM    1  O   UNK N   1      29.293  23.353  -6.001  0.00  0.00    -0.348 OA
ENDROOT
BRANCH   1   2
HETATM    2  C   UNK N   1      27.942  23.277  -6.364  0.00  0.00     0.292 C 
HETATM    3  C   UNK N   1      27.404  24.706  -6.561  0.00  0.00     0.204 C 
HETATM    4  C   UNK N   1      25.978  24.656  -7.096  0.00  0.00     0.183 C 
HETATM    5  C   UNK N   1      25.905  23.749  -8.319  0.00  0.00     0.180 C 
HETATM    6  C   UNK N   1      26.519  22.393  -7.934  0.00  0.00     0.179 C 
HETATM    7  O   UNK N   1      27.870  22.591  -7.597  0.00  0.00    -0.348 OA
BRANCH   3   8
HETATM    8  O   UNK N   1      27.416  25.406  -5.354  0.00  0.00    -0.388 OA
HETATM    9  H   UNK N   1      26.687  25.952  -5.023  0.00  0.00     0.210 HD
ENDBRANCH   3   8
BRANCH   4  10
HETATM   10  O   UNK N   1      25.548  25.942  -7.427  0.00  0.00    -0.390 OA
HETATM   11  H   UNK N   1      25.430  26.636  -6.760  0.00  0.00     0.210 HD
ENDBRANCH   4  10
BRANCH   5  12
HETATM   12  O   UNK N   1      24.572  23.608  -8.707  0.00  0.00    -0.390 OA
HETATM   13  H   UNK N   1      23.840  24.238  -8.614  0.00  0.00     0.210 HD
ENDBRANCH   5  12
BRANCH   6  14
HETATM   14  C   UNK N   1      26.469  21.408  -9.095  0.00  0.00     0.198 C 
BRANCH  14  15
HETATM   15  O   UNK N   1      25.153  21.045  -9.383  0.00  0.00    -0.398 OA
HETATM   16  H   UNK N   1      24.665  20.207  -9.349  0.00  0.00     0.209 HD
ENDBRANCH  14  15
ENDBRANCH   6  14
ENDBRANCH   1   2
BRANCH   1  17
HETATM   17  C   UNK N   1      29.556  22.399  -5.003  0.00  0.00     0.187 C 
HETATM   18  C   UNK N   1      30.933  21.737  -5.271  0.00  0.00     0.180 C 
HETATM   19  O   UNK N   1      31.320  20.954  -4.167  0.00  0.00    -0.349 OA
HETATM   20  C   UNK N   1      31.634  21.851  -3.137  0.00  0.00     0.288 C 
HETATM   21  C   UNK N   1      30.326  22.373  -2.558  0.00  0.00     0.204 C 
HETATM   22  C   UNK N   1      29.615  23.151  -3.661  0.00  0.00     0.183 C 
BRANCH  18  23
HETATM   23  C   UNK N   1      30.906  20.835  -6.496  0.00  0.00     0.198 C 
BRANCH  23  24
HETATM   24  O   UNK N   1      29.620  20.353  -6.726  0.00  0.00    -0.398 OA
HETATM   25  H   UNK N   1      28.763  20.713  -7.002  0.00  0.00     0.209 HD
ENDBRANCH  23  24
ENDBRANCH  18  23
BRANCH  20  26
HETATM   26  O   UNK N   1      32.374  21.191  -2.155  0.00  0.00    -0.369 OA
HETATM   27  H   UNK N   1      33.268  21.464  -1.895  0.00  0.00     0.212 HD
ENDBRANCH  20  26
BRANCH  21  28
HETATM   28  O   UNK N   1      30.580  23.226  -1.482  0.00  0.00    -0.388 OA
HETATM   29  H   UNK N   1      29.904  23.591  -0.891  0.00  0.00     0.210 HD
ENDBRANCH  21  28
BRANCH  22  30
HETATM   30  O   UNK N   1      28.336  23.506  -3.235  0.00  0.00    -0.390 OA
HETATM   31  H   UNK N   1      28.141  24.271  -2.671  0.00  0.00     0.210 HD
ENDBRANCH  22  30
ENDBRANCH   1  17
TORSDOF 12
ENDMDL
