REMARK  23 active torsions:
REMARK  status: ('A' for Active; 'I' for Inactive)
REMARK    1  A    between atoms: C_9  and  C_4 
REMARK    2  A    between atoms: O_44  and  C_4 
REMARK    3  A    between atoms: C_10  and  C_5 
REMARK    4  A    between atoms: O_45  and  C_5 
REMARK    5  A    between atoms: C_8  and  O_48 
REMARK    6  A    between atoms: O_31  and  C_11 
REMARK    7  A    between atoms: C_12  and  N_29 
REMARK    8  A    between atoms: C_14  and  O_32 
REMARK    9  A    between atoms: C_15  and  O_49 
REMARK   10  A    between atoms: N_20  and  C_16 
REMARK   11  A    between atoms: C_18  and  N_30 
REMARK   12  A    between atoms: P_51  and  O_34 
REMARK   13  A    between atoms: P_51  and  O_35 
REMARK   14  A    between atoms: P_52  and  O_37 
REMARK   15  A    between atoms: P_52  and  O_38 
REMARK   16  A    between atoms: P_53  and  O_40 
REMARK   17  A    between atoms: P_54  and  O_42 
REMARK   18  A    between atoms: P_51  and  O_44 
REMARK   19  A    between atoms: P_53  and  O_45 
REMARK   20  A    between atoms: P_54  and  O_48 
REMARK   21  A    between atoms: P_52  and  O_49 
REMARK   22  A    between atoms: P_53  and  O_50 
REMARK   23  A    between atoms: P_54  and  O_50 
ROOT
HETATM    1  O   UNK N   1      -2.724  -1.483   2.591  0.00  0.00    -0.631 OA
HETATM    2  P   UNK N   1      -2.734  -1.161   1.072  0.00  0.00     0.401 P 
ENDROOT
BRANCH   2   3
HETATM    3  O   UNK N   1      -4.055  -0.074   0.779  0.00  0.00    -0.307 OA
HETATM    4  H   UNK N   1      -3.898   0.869   0.615  0.00  0.00     0.222 HD
ENDBRANCH   2   3
BRANCH   2   5
HETATM    5  O   UNK N   1      -1.248  -0.406   0.634  0.00  0.00    -0.294 OA
BRANCH   5   6
HETATM    6  C   UNK N   1      -1.006  -0.856  -0.672  0.00  0.00     0.215 C 
BRANCH   6   7
HETATM    7  C   UNK N   1       0.440  -0.605  -1.038  0.00  0.00     0.180 C 
HETATM    8  C   UNK N   1       1.418  -1.353  -0.111  0.00  0.00     0.197 C 
HETATM    9  C   UNK N   1       2.551  -0.344   0.001  0.00  0.00     0.199 C 
HETATM   10  C   UNK N   1       1.624   0.881   0.150  0.00  0.00     0.262 C 
HETATM   11  O   UNK N   1       0.689   0.778  -0.895  0.00  0.00    -0.353 OA
BRANCH   8  12
HETATM   12  O   UNK N   1       1.605  -2.738  -0.382  0.00  0.00    -0.286 OA
BRANCH  12  13
HETATM   13  P   UNK N   1       2.781  -3.130  -1.604  0.00  0.00     0.391 P 
HETATM   14  O   UNK N   1       2.671  -4.621  -2.026  0.00  0.00    -0.632 OA
BRANCH  13  15
HETATM   15  O   UNK N   1       1.210  -3.267  -2.334  0.00  0.00    -0.307 OA
HETATM   16  H   UNK N   1       0.706  -2.546  -2.741  0.00  0.00     0.222 HD
ENDBRANCH  13  15
BRANCH  13  17
HETATM   17  O   UNK N   1       3.083  -4.034  -0.149  0.00  0.00    -0.307 OA
HETATM   18  H   UNK N   1       2.731  -4.432   0.662  0.00  0.00     0.222 HD
ENDBRANCH  13  17
ENDBRANCH  12  13
ENDBRANCH   8  12
BRANCH   9  19
HETATM   19  O   UNK N   1       3.278  -0.249  -1.190  0.00  0.00    -0.388 OA
HETATM   20  H   UNK N   1       3.587  -0.653  -2.016  0.00  0.00     0.210 HD
ENDBRANCH   9  19
BRANCH  10  21
HETATM   21  N   UNK N   1       2.204   2.218   0.173  0.00  0.00    -0.297 N 
HETATM   22  C   UNK N   1       1.447   3.345   0.250  0.00  0.00     0.188 A 
HETATM   23  N   UNK N   1       2.215   4.462   0.329  0.00  0.00    -0.346 N 
HETATM   24  C   UNK N   1       3.474   3.995   0.308  0.00  0.00     0.122 A 
ATOM     25  HN  UNK N   1       1.907   5.432   0.390  1.00  0.00     0.167 HD
HETATM   26  C   UNK N   1       4.665   4.684   0.403  0.00  0.00     0.131 A 
HETATM   27  C   UNK N   1       3.470   2.650   0.205  0.00  0.00     0.142 A 
HETATM   28  N   UNK N   1       5.824   3.962   0.382  0.00  0.00    -0.337 N 
HETATM   29  C   UNK N   1       5.801   2.591   0.272  0.00  0.00     0.183 A 
ATOM     30  HN  UNK N   1       6.720   4.445   0.449  1.00  0.00     0.168 HD
HETATM   31  N   UNK N   1       4.609   1.919   0.189  0.00  0.00    -0.336 N 
ATOM     32  HN  UNK N   1       4.582   0.902   0.118  1.00  0.00     0.168 HD
BRANCH  26  33
HETATM   33  N   UNK N   1       4.689   6.087   0.540  0.00  0.00    -0.383 N 
HETATM   34  H   UNK N   1       5.546   6.562   0.636  0.00  0.00     0.157 HD
HETATM   35  H   UNK N   1       3.845   6.593   0.540  0.00  0.00     0.157 HD
ENDBRANCH  26  33
ENDBRANCH  10  21
ENDBRANCH   6   7
ENDBRANCH   5   6
ENDBRANCH   2   5
BRANCH   2  36
HETATM   36  O   UNK N   1      -2.947  -2.622   0.157  0.00  0.00    -0.195 OA
BRANCH  36  37
HETATM   37  P   UNK N   1      -1.936  -3.869   0.818  0.00  0.00     0.402 P 
HETATM   38  O   UNK N   1      -0.465  -3.420   0.830  0.00  0.00    -0.631 OA
BRANCH  37  39
HETATM   39  O   UNK N   1      -2.361  -4.239   2.464  0.00  0.00    -0.307 OA
HETATM   40  H   UNK N   1      -2.658  -4.137   3.382  0.00  0.00     0.222 HD
ENDBRANCH  37  39
BRANCH  37  41
HETATM   41  O   UNK N   1      -2.054  -5.259  -0.247  0.00  0.00    -0.288 OA
BRANCH  41  42
HETATM   42  C   UNK N   1      -2.457  -6.350   0.536  0.00  0.00     0.169 C 
HETATM   43  C   UNK N   1      -2.254  -7.620  -0.241  0.00  0.00     0.089 C 
HETATM   44  C   UNK N   1      -3.613  -7.860  -0.913  0.00  0.00     0.235 C 
HETATM   45  O   UNK N   1      -4.544  -6.951  -0.383  0.00  0.00    -0.356 OA
HETATM   46  C   UNK N   1      -3.975  -6.398   0.765  0.00  0.00     0.178 C 
BRANCH  44  47
HETATM   47  N   UNK N   1      -4.137  -9.224  -0.713  0.00  0.00    -0.282 N 
HETATM   48  C   UNK N   1      -3.396 -10.172  -0.063  0.00  0.00     0.102 A 
HETATM   49  C   UNK N   1      -3.910 -11.447   0.158  0.00  0.00     0.073 A 
HETATM   50  C   UNK N   1      -5.195 -11.739  -0.284  0.00  0.00     0.144 A 
HETATM   51  N   UNK N   1      -5.922 -10.793  -0.927  0.00  0.00    -0.289 N 
HETATM   52  C   UNK N   1      -5.411  -9.544  -1.151  0.00  0.00     0.330 A 
ATOM     53  HN  UNK N   1      -6.864 -11.015  -1.249  1.00  0.00     0.172 HD
HETATM   54  O   UNK N   1      -6.099  -8.711  -1.721  0.00  0.00    -0.246 OA
BRANCH  50  55
HETATM   55  O   UNK N   1      -5.720 -12.955  -0.071  0.00  0.00    -0.346 OA
HETATM   56  H   UNK N   1      -6.638 -13.063   0.078  0.00  0.00     0.219 HD
ENDBRANCH  50  55
ENDBRANCH  44  47
BRANCH  46  57
HETATM   57  C   UNK N   1      -4.718  -5.086   1.078  0.00  0.00     0.215 C 
BRANCH  57  58
HETATM   58  O   UNK N   1      -5.261  -4.528  -0.100  0.00  0.00    -0.294 OA
BRANCH  58  59
HETATM   59  P   UNK N   1      -5.966  -2.992   0.334  0.00  0.00     0.390 P 
HETATM   60  O   UNK N   1      -7.005  -2.461  -0.688  0.00  0.00    -0.632 OA
BRANCH  59  61
HETATM   61  O   UNK N   1      -5.135  -2.841  -1.185  0.00  0.00    -0.307 OA
HETATM   62  H   UNK N   1      -4.830  -3.201  -2.033  0.00  0.00     0.222 HD
ENDBRANCH  59  61
BRANCH  59  63
HETATM   63  O   UNK N   1      -7.262  -4.147   0.383  0.00  0.00    -0.307 OA
HETATM   64  H   UNK N   1      -8.183  -3.843   0.410  0.00  0.00     0.222 HD
ENDBRANCH  59  63
ENDBRANCH  58  59
ENDBRANCH  57  58
ENDBRANCH  46  57
ENDBRANCH  41  42
ENDBRANCH  37  41
ENDBRANCH  36  37
ENDBRANCH   2  36
TORSDOF 23
