MODEL 1
REMARK VINA RESULT:      -7.1      0.000      0.000
REMARK  14 active torsions:
REMARK  status: ('A' for Active; 'I' for Inactive)
REMARK    1  A    between atoms: C_2  and  N_1 
REMARK    2  A    between atoms: C_11  and  C_14 
REMARK    3  A    between atoms: C_12  and  O_15 
REMARK    4  A    between atoms: C_13  and  N_16 
REMARK    5  A    between atoms: C_14  and  O_17 
REMARK    6  A    between atoms: O_17  and  P_18 
REMARK    7  A    between atoms: P_18  and  O_19 
REMARK    8  A    between atoms: P_18  and  O_20 
REMARK    9  A    between atoms: O_19  and  P_22 
REMARK   10  A    between atoms: P_22  and  O_23 
REMARK   11  A    between atoms: P_22  and  O_24 
REMARK   12  A    between atoms: O_23  and  P_26 
REMARK   13  A    between atoms: P_26  and  O_27 
REMARK   14  A    between atoms: P_26  and  O_28 
ROOT
HETATM    1  C   UNK N   1      28.358  17.810   7.037  0.00  0.00     0.235 C 
HETATM    2  O   UNK N   1      29.596  17.380   6.522  0.00  0.00    -0.356 OA
HETATM    3  C   UNK N   1      28.629  18.705   8.234  0.00  0.00     0.088 C 
HETATM    4  C   UNK N   1      30.419  17.264   7.651  0.00  0.00     0.177 C 
HETATM    5  C   UNK N   1      30.034  18.356   8.616  0.00  0.00     0.153 C 
ENDROOT
BRANCH   4   6
HETATM    6  C   UNK N   1      31.887  17.406   7.261  0.00  0.00     0.215 C 
BRANCH   6   7
HETATM    7  O   UNK N   1      32.575  18.159   8.222  0.00  0.00    -0.294 OA
BRANCH   7   8
HETATM    8  P   UNK N   1      34.266  17.808   8.008  0.00  0.00     0.401 P 
HETATM    9  O   UNK N   1      34.487  17.773   6.472  0.00  0.00    -0.631 OA
BRANCH   8  10
HETATM   10  O   UNK N   1      34.685  16.228   8.615  0.00  0.00    -0.195 OA
BRANCH  10  11
HETATM   11  P   UNK N   1      35.007  16.455  10.312  0.00  0.00     0.410 P 
HETATM   12  O   UNK N   1      36.007  15.349   9.866  0.00  0.00    -0.631 OA
BRANCH  11  13
HETATM   13  O   UNK N   1      34.444  15.227  11.484  0.00  0.00    -0.195 OA
BRANCH  13  14
HETATM   14  P   UNK N   1      35.302  13.678  11.420  0.00  0.00     0.399 P 
HETATM   15  O   UNK N   1      34.829  13.760  12.897  0.00  0.00    -0.631 OA
BRANCH  14  16
HETATM   16  O   UNK N   1      33.933  13.604  10.356  0.00  0.00    -0.307 OA
HETATM   17  H   UNK N   1      33.938  13.042   9.564  0.00  0.00     0.222 HD
ENDBRANCH  14  16
BRANCH  14  18
HETATM   18  O   UNK N   1      34.432  12.198  11.669  0.00  0.00    -0.307 OA
HETATM   19  H   UNK N   1      34.154  11.654  10.915  0.00  0.00     0.222 HD
ENDBRANCH  14  18
ENDBRANCH  13  14
ENDBRANCH  11  13
BRANCH  11  20
HETATM   20  O   UNK N   1      33.330  16.201   9.923  0.00  0.00    -0.307 OA
HETATM   21  H   UNK N   1      32.758  16.382   9.162  0.00  0.00     0.222 HD
ENDBRANCH  11  20
ENDBRANCH  10  11
ENDBRANCH   8  10
BRANCH   8  22
HETATM   22  O   UNK N   1      35.295  19.065   8.624  0.00  0.00    -0.307 OA
HETATM   23  H   UNK N   1      36.124  19.125   9.123  0.00  0.00     0.222 HD
ENDBRANCH   8  22
ENDBRANCH   7   8
ENDBRANCH   6   7
ENDBRANCH   4   6
BRANCH   5  24
HETATM   24  O   UNK N   1      30.095  17.884   9.927  0.00  0.00    -0.393 OA
HETATM   25  H   UNK N   1      30.411  16.984  10.105  0.00  0.00     0.210 HD
ENDBRANCH   5  24
BRANCH   1  26
HETATM   26  N   UNK N   1      27.547  18.498   6.016  0.00  0.00    -0.282 N 
HETATM   27  C   UNK N   1      26.636  17.794   5.248  0.00  0.00     0.330 A 
HETATM   28  N   UNK N   1      25.924  18.437   4.268  0.00  0.00    -0.295 N 
HETATM   29  O   UNK N   1      26.465  16.600   5.424  0.00  0.00    -0.246 OA
HETATM   30  C   UNK N   1      26.096  19.760   4.033  0.00  0.00     0.103 A 
ATOM     31  HN  UNK N   1      25.254  17.911   3.707  1.00  0.00     0.172 HD
HETATM   32  C   UNK N   1      26.999  20.490   4.799  0.00  0.00     0.065 A 
HETATM   33  C   UNK N   1      27.721  19.832   5.794  0.00  0.00     0.102 A 
BRANCH  30  34
HETATM   34  N   UNK N   1      25.371  20.394   3.006  0.00  0.00    -0.385 N 
HETATM   35  H   UNK N   1      25.714  21.181   2.524  0.00  0.00     0.157 HD
HETATM   36  H   UNK N   1      24.486  20.037   2.762  0.00  0.00     0.157 HD
ENDBRANCH  30  34
ENDBRANCH   1  26
TORSDOF 14
ENDMDL
MODEL 2
REMARK VINA RESULT:      -6.8      2.196      4.083
REMARK  14 active torsions:
REMARK  status: ('A' for Active; 'I' for Inactive)
REMARK    1  A    between atoms: C_2  and  N_1 
REMARK    2  A    between atoms: C_11  and  C_14 
REMARK    3  A    between atoms: C_12  and  O_15 
REMARK    4  A    between atoms: C_13  and  N_16 
REMARK    5  A    between atoms: C_14  and  O_17 
REMARK    6  A    between atoms: O_17  and  P_18 
REMARK    7  A    between atoms: P_18  and  O_19 
REMARK    8  A    between atoms: P_18  and  O_20 
REMARK    9  A    between atoms: O_19  and  P_22 
REMARK   10  A    between atoms: P_22  and  O_23 
REMARK   11  A    between atoms: P_22  and  O_24 
REMARK   12  A    between atoms: O_23  and  P_26 
REMARK   13  A    between atoms: P_26  and  O_27 
REMARK   14  A    between atoms: P_26  and  O_28 
ROOT
HETATM    1  C   UNK N   1      28.670  17.660   7.370  0.00  0.00     0.235 C 
HETATM    2  O   UNK N   1      30.072  17.785   7.343  0.00  0.00    -0.356 OA
HETATM    3  C   UNK N   1      28.180  18.128   8.729  0.00  0.00     0.088 C 
HETATM    4  C   UNK N   1      30.469  17.515   8.661  0.00  0.00     0.177 C 
HETATM    5  C   UNK N   1      29.408  18.063   9.582  0.00  0.00     0.153 C 
ENDROOT
BRANCH   4   6
HETATM    6  C   UNK N   1      31.811  18.175   8.962  0.00  0.00     0.215 C 
BRANCH   6   7
HETATM    7  O   UNK N   1      32.584  18.261   7.797  0.00  0.00    -0.294 OA
BRANCH   7   8
HETATM    8  P   UNK N   1      34.199  17.786   8.238  0.00  0.00     0.401 P 
HETATM    9  O   UNK N   1      35.026  19.100   8.245  0.00  0.00    -0.631 OA
BRANCH   8  10
HETATM   10  O   UNK N   1      34.921  16.742   7.041  0.00  0.00    -0.195 OA
BRANCH  10  11
HETATM   11  P   UNK N   1      33.584  16.042   6.173  0.00  0.00     0.410 P 
HETATM   12  O   UNK N   1      34.682  14.939   6.161  0.00  0.00    -0.631 OA
BRANCH  11  13
HETATM   13  O   UNK N   1      33.671  15.900   4.392  0.00  0.00    -0.195 OA
BRANCH  13  14
HETATM   14  P   UNK N   1      32.107  15.764   3.572  0.00  0.00     0.399 P 
HETATM   15  O   UNK N   1      31.710  16.039   5.047  0.00  0.00    -0.631 OA
BRANCH  14  16
HETATM   16  O   UNK N   1      32.965  17.124   2.919  0.00  0.00    -0.307 OA
HETATM   17  H   UNK N   1      33.508  17.042   2.118  0.00  0.00     0.222 HD
ENDBRANCH  14  16
BRANCH  14  18
HETATM   18  O   UNK N   1      31.058  17.142   3.478  0.00  0.00    -0.307 OA
HETATM   19  H   UNK N   1      31.106  17.751   2.724  0.00  0.00     0.222 HD
ENDBRANCH  14  18
ENDBRANCH  13  14
ENDBRANCH  11  13
BRANCH  11  20
HETATM   20  O   UNK N   1      34.053  17.624   5.620  0.00  0.00    -0.307 OA
HETATM   21  H   UNK N   1      34.394  17.999   4.794  0.00  0.00     0.222 HD
ENDBRANCH  11  20
ENDBRANCH  10  11
ENDBRANCH   8  10
BRANCH   8  22
HETATM   22  O   UNK N   1      34.293  17.138   9.847  0.00  0.00    -0.307 OA
HETATM   23  H   UNK N   1      33.845  16.452  10.364  0.00  0.00     0.222 HD
ENDBRANCH   8  22
ENDBRANCH   7   8
ENDBRANCH   6   7
ENDBRANCH   4   6
BRANCH   5  24
HETATM   24  O   UNK N   1      29.223  17.205  10.666  0.00  0.00    -0.393 OA
HETATM   25  H   UNK N   1      29.842  17.225  11.412  0.00  0.00     0.210 HD
ENDBRANCH   5  24
BRANCH   1  26
HETATM   26  N   UNK N   1      28.030  18.410   6.274  0.00  0.00    -0.282 N 
HETATM   27  C   UNK N   1      27.928  17.858   5.008  0.00  0.00     0.330 A 
HETATM   28  N   UNK N   1      27.376  18.586   3.986  0.00  0.00    -0.295 N 
HETATM   29  O   UNK N   1      28.336  16.731   4.787  0.00  0.00    -0.246 OA
HETATM   30  C   UNK N   1      26.924  19.847   4.190  0.00  0.00     0.103 A 
ATOM     31  HN  UNK N   1      27.304  18.171   3.056  1.00  0.00     0.172 HD
HETATM   32  C   UNK N   1      27.008  20.418   5.455  0.00  0.00     0.065 A 
HETATM   33  C   UNK N   1      27.570  19.675   6.492  0.00  0.00     0.102 A 
BRANCH  30  34
HETATM   34  N   UNK N   1      26.381  20.583   3.119  0.00  0.00    -0.385 N 
HETATM   35  H   UNK N   1      26.228  20.188   2.230  0.00  0.00     0.157 HD
HETATM   36  H   UNK N   1      26.146  21.528   3.265  0.00  0.00     0.157 HD
ENDBRANCH  30  34
ENDBRANCH   1  26
TORSDOF 14
ENDMDL
MODEL 3
REMARK VINA RESULT:      -6.8      2.699      4.343
REMARK  14 active torsions:
REMARK  status: ('A' for Active; 'I' for Inactive)
REMARK    1  A    between atoms: C_2  and  N_1 
REMARK    2  A    between atoms: C_11  and  C_14 
REMARK    3  A    between atoms: C_12  and  O_15 
REMARK    4  A    between atoms: C_13  and  N_16 
REMARK    5  A    between atoms: C_14  and  O_17 
REMARK    6  A    between atoms: O_17  and  P_18 
REMARK    7  A    between atoms: P_18  and  O_19 
REMARK    8  A    between atoms: P_18  and  O_20 
REMARK    9  A    between atoms: O_19  and  P_22 
REMARK   10  A    between atoms: P_22  and  O_23 
REMARK   11  A    between atoms: P_22  and  O_24 
REMARK   12  A    between atoms: O_23  and  P_26 
REMARK   13  A    between atoms: P_26  and  O_27 
REMARK   14  A    between atoms: P_26  and  O_28 
ROOT
HETATM    1  C   UNK N   1      32.175  17.729   8.744  0.00  0.00     0.235 C 
HETATM    2  O   UNK N   1      32.870  16.508   8.840  0.00  0.00    -0.356 OA
HETATM    3  C   UNK N   1      33.014  18.686   7.916  0.00  0.00     0.088 C 
HETATM    4  C   UNK N   1      34.222  16.880   8.864  0.00  0.00     0.177 C 
HETATM    5  C   UNK N   1      34.383  18.085   7.971  0.00  0.00     0.153 C 
ENDROOT
BRANCH   4   6
HETATM    6  C   UNK N   1      35.102  15.739   8.362  0.00  0.00     0.215 C 
BRANCH   6   7
HETATM    7  O   UNK N   1      34.953  14.613   9.181  0.00  0.00    -0.294 OA
BRANCH   7   8
HETATM    8  P   UNK N   1      36.384  14.527  10.168  0.00  0.00     0.401 P 
HETATM    9  O   UNK N   1      37.534  14.157   9.193  0.00  0.00    -0.631 OA
BRANCH   8  10
HETATM   10  O   UNK N   1      36.287  13.242  11.345  0.00  0.00    -0.195 OA
BRANCH  10  11
HETATM   11  P   UNK N   1      36.039  14.035  12.875  0.00  0.00     0.410 P 
HETATM   12  O   UNK N   1      36.687  12.668  13.240  0.00  0.00    -0.631 OA
BRANCH  11  13
HETATM   13  O   UNK N   1      34.711  13.490  13.941  0.00  0.00    -0.195 OA
BRANCH  13  14
HETATM   14  P   UNK N   1      34.960  11.913  14.707  0.00  0.00     0.399 P 
HETATM   15  O   UNK N   1      34.041  12.654  15.715  0.00  0.00    -0.631 OA
BRANCH  14  16
HETATM   16  O   UNK N   1      34.131  11.678  13.201  0.00  0.00    -0.307 OA
HETATM   17  H   UNK N   1      34.273  10.881  12.665  0.00  0.00     0.222 HD
ENDBRANCH  14  16
BRANCH  14  18
HETATM   18  O   UNK N   1      33.618  10.837  14.926  0.00  0.00    -0.307 OA
HETATM   19  H   UNK N   1      33.455  10.415  15.785  0.00  0.00     0.222 HD
ENDBRANCH  14  18
ENDBRANCH  13  14
ENDBRANCH  11  13
BRANCH  11  20
HETATM   20  O   UNK N   1      34.634  13.990  11.850  0.00  0.00    -0.307 OA
HETATM   21  H   UNK N   1      34.410  13.593  10.994  0.00  0.00     0.222 HD
ENDBRANCH  11  20
ENDBRANCH  10  11
ENDBRANCH   8  10
BRANCH   8  22
HETATM   22  O   UNK N   1      36.809  16.057  10.871  0.00  0.00    -0.307 OA
HETATM   23  H   UNK N   1      37.396  16.799  10.658  0.00  0.00     0.222 HD
ENDBRANCH   8  22
ENDBRANCH   7   8
ENDBRANCH   6   7
ENDBRANCH   4   6
BRANCH   5  24
HETATM   24  O   UNK N   1      35.301  18.976   8.527  0.00  0.00    -0.393 OA
HETATM   25  H   UNK N   1      35.873  19.507   7.951  0.00  0.00     0.210 HD
ENDBRANCH   5  24
BRANCH   1  26
HETATM   26  N   UNK N   1      30.829  17.550   8.172  0.00  0.00    -0.282 N 
HETATM   27  C   UNK N   1      29.716  18.064   8.817  0.00  0.00     0.330 A 
HETATM   28  N   UNK N   1      28.465  17.847   8.299  0.00  0.00    -0.295 N 
HETATM   29  O   UNK N   1      29.833  18.699   9.849  0.00  0.00    -0.246 OA
HETATM   30  C   UNK N   1      28.293  17.135   7.159  0.00  0.00     0.103 A 
ATOM     31  HN  UNK N   1      27.649  18.230   8.779  1.00  0.00     0.172 HD
HETATM   32  C   UNK N   1      29.397  16.618   6.491  0.00  0.00     0.065 A 
HETATM   33  C   UNK N   1      30.667  16.839   7.020  0.00  0.00     0.102 A 
BRANCH  30  34
HETATM   34  N   UNK N   1      26.996  16.907   6.660  0.00  0.00    -0.385 N 
HETATM   35  H   UNK N   1      26.284  17.586   6.706  0.00  0.00     0.157 HD
HETATM   36  H   UNK N   1      26.793  16.035   6.248  0.00  0.00     0.157 HD
ENDBRANCH  30  34
ENDBRANCH   1  26
TORSDOF 14
ENDMDL
MODEL 4
REMARK VINA RESULT:      -6.8      1.912      3.098
REMARK  14 active torsions:
REMARK  status: ('A' for Active; 'I' for Inactive)
REMARK    1  A    between atoms: C_2  and  N_1 
REMARK    2  A    between atoms: C_11  and  C_14 
REMARK    3  A    between atoms: C_12  and  O_15 
REMARK    4  A    between atoms: C_13  and  N_16 
REMARK    5  A    between atoms: C_14  and  O_17 
REMARK    6  A    between atoms: O_17  and  P_18 
REMARK    7  A    between atoms: P_18  and  O_19 
REMARK    8  A    between atoms: P_18  and  O_20 
REMARK    9  A    between atoms: O_19  and  P_22 
REMARK   10  A    between atoms: P_22  and  O_23 
REMARK   11  A    between atoms: P_22  and  O_24 
REMARK   12  A    between atoms: O_23  and  P_26 
REMARK   13  A    between atoms: P_26  and  O_27 
REMARK   14  A    between atoms: P_26  and  O_28 
ROOT
HETATM    1  C   UNK N   1      30.675  16.673   5.567  0.00  0.00     0.235 C 
HETATM    2  O   UNK N   1      31.936  17.298   5.511  0.00  0.00    -0.356 OA
HETATM    3  C   UNK N   1      30.829  15.368   6.328  0.00  0.00     0.088 C 
HETATM    4  C   UNK N   1      32.846  16.235   5.435  0.00  0.00     0.177 C 
HETATM    5  C   UNK N   1      32.300  15.101   6.266  0.00  0.00     0.153 C 
ENDROOT
BRANCH   4   6
HETATM    6  C   UNK N   1      34.212  16.659   5.967  0.00  0.00     0.215 C 
BRANCH   6   7
HETATM    7  O   UNK N   1      34.168  17.984   6.419  0.00  0.00    -0.294 OA
BRANCH   7   8
HETATM    8  P   UNK N   1      34.394  17.927   8.144  0.00  0.00     0.401 P 
HETATM    9  O   UNK N   1      35.232  19.188   8.489  0.00  0.00    -0.631 OA
BRANCH   8  10
HETATM   10  O   UNK N   1      35.339  16.544   8.631  0.00  0.00    -0.195 OA
BRANCH  10  11
HETATM   11  P   UNK N   1      34.299  15.622   9.681  0.00  0.00     0.410 P 
HETATM   12  O   UNK N   1      35.012  16.636  10.624  0.00  0.00    -0.631 OA
BRANCH  11  13
HETATM   13  O   UNK N   1      35.013  14.387  10.759  0.00  0.00    -0.195 OA
BRANCH  13  14
HETATM   14  P   UNK N   1      35.801  15.024  12.213  0.00  0.00     0.399 P 
HETATM   15  O   UNK N   1      34.977  13.824  12.754  0.00  0.00    -0.631 OA
BRANCH  14  16
HETATM   16  O   UNK N   1      37.022  14.464  11.114  0.00  0.00    -0.307 OA
HETATM   17  H   UNK N   1      37.706  15.062  10.772  0.00  0.00     0.222 HD
ENDBRANCH  14  16
BRANCH  14  18
HETATM   18  O   UNK N   1      36.966  14.055  13.058  0.00  0.00    -0.307 OA
HETATM   19  H   UNK N   1      37.781  13.764  12.618  0.00  0.00     0.222 HD
ENDBRANCH  14  18
ENDBRANCH  13  14
ENDBRANCH  11  13
BRANCH  11  20
HETATM   20  O   UNK N   1      35.317  14.661   8.648  0.00  0.00    -0.307 OA
HETATM   21  H   UNK N   1      35.768  14.792   7.800  0.00  0.00     0.222 HD
ENDBRANCH  11  20
ENDBRANCH  10  11
ENDBRANCH   8  10
BRANCH   8  22
HETATM   22  O   UNK N   1      32.902  18.072   9.022  0.00  0.00    -0.307 OA
HETATM   23  H   UNK N   1      32.621  18.084   9.949  0.00  0.00     0.222 HD
ENDBRANCH   8  22
ENDBRANCH   7   8
ENDBRANCH   6   7
ENDBRANCH   4   6
BRANCH   5  24
HETATM   24  O   UNK N   1      32.564  13.880   5.646  0.00  0.00    -0.393 OA
HETATM   25  H   UNK N   1      31.845  13.383   5.226  0.00  0.00     0.210 HD
ENDBRANCH   5  24
BRANCH   1  26
HETATM   26  N   UNK N   1      29.657  17.544   6.181  0.00  0.00    -0.282 N 
HETATM   27  C   UNK N   1      28.691  18.157   5.400  0.00  0.00     0.330 A 
HETATM   28  N   UNK N   1      27.781  19.004   5.978  0.00  0.00    -0.295 N 
HETATM   29  O   UNK N   1      28.647  17.962   4.199  0.00  0.00    -0.246 OA
HETATM   30  C   UNK N   1      27.806  19.256   7.309  0.00  0.00     0.103 A 
ATOM     31  HN  UNK N   1      27.072  19.451   5.396  1.00  0.00     0.172 HD
HETATM   32  C   UNK N   1      28.761  18.644   8.113  0.00  0.00     0.065 A 
HETATM   33  C   UNK N   1      29.686  17.784   7.523  0.00  0.00     0.102 A 
BRANCH  30  34
HETATM   34  N   UNK N   1      26.875  20.147   7.876  0.00  0.00    -0.385 N 
HETATM   35  H   UNK N   1      25.942  19.891   8.058  0.00  0.00     0.157 HD
HETATM   36  H   UNK N   1      27.168  21.061   8.098  0.00  0.00     0.157 HD
ENDBRANCH  30  34
ENDBRANCH   1  26
TORSDOF 14
ENDMDL
MODEL 5
REMARK VINA RESULT:      -6.7      9.326     12.138
REMARK  14 active torsions:
REMARK  status: ('A' for Active; 'I' for Inactive)
REMARK    1  A    between atoms: C_2  and  N_1 
REMARK    2  A    between atoms: C_11  and  C_14 
REMARK    3  A    between atoms: C_12  and  O_15 
REMARK    4  A    between atoms: C_13  and  N_16 
REMARK    5  A    between atoms: C_14  and  O_17 
REMARK    6  A    between atoms: O_17  and  P_18 
REMARK    7  A    between atoms: P_18  and  O_19 
REMARK    8  A    between atoms: P_18  and  O_20 
REMARK    9  A    between atoms: O_19  and  P_22 
REMARK   10  A    between atoms: P_22  and  O_23 
REMARK   11  A    between atoms: P_22  and  O_24 
REMARK   12  A    between atoms: O_23  and  P_26 
REMARK   13  A    between atoms: P_26  and  O_27 
REMARK   14  A    between atoms: P_26  and  O_28 
ROOT
HETATM    1  C   UNK N   1      34.874  12.467  16.812  0.00  0.00     0.235 C 
HETATM    2  O   UNK N   1      35.746  13.426  16.261  0.00  0.00    -0.356 OA
HETATM    3  C   UNK N   1      34.681  11.361  15.790  0.00  0.00     0.088 C 
HETATM    4  C   UNK N   1      35.449  13.415  14.891  0.00  0.00     0.177 C 
HETATM    5  C   UNK N   1      35.107  11.998  14.505  0.00  0.00     0.153 C 
ENDROOT
BRANCH   4   6
HETATM    6  C   UNK N   1      36.647  13.901  14.080  0.00  0.00     0.215 C 
BRANCH   6   7
HETATM    7  O   UNK N   1      36.339  15.102  13.428  0.00  0.00    -0.294 OA
BRANCH   7   8
HETATM    8  P   UNK N   1      35.885  14.682  11.802  0.00  0.00     0.401 P 
HETATM    9  O   UNK N   1      36.801  13.490  11.415  0.00  0.00    -0.631 OA
BRANCH   8  10
HETATM   10  O   UNK N   1      36.229  15.969  10.676  0.00  0.00    -0.195 OA
BRANCH  10  11
HETATM   11  P   UNK N   1      34.723  16.286   9.862  0.00  0.00     0.410 P 
HETATM   12  O   UNK N   1      35.401  15.171   9.015  0.00  0.00    -0.631 OA
BRANCH  11  13
HETATM   13  O   UNK N   1      34.730  17.209   8.331  0.00  0.00    -0.195 OA
BRANCH  13  14
HETATM   14  P   UNK N   1      33.428  16.800   7.201  0.00  0.00     0.399 P 
HETATM   15  O   UNK N   1      33.167  18.299   7.515  0.00  0.00    -0.631 OA
BRANCH  14  16
HETATM   16  O   UNK N   1      34.951  16.614   6.390  0.00  0.00    -0.307 OA
HETATM   17  H   UNK N   1      35.607  15.964   6.690  0.00  0.00     0.222 HD
ENDBRANCH  14  16
BRANCH  14  18
HETATM   18  O   UNK N   1      33.369  17.555   5.641  0.00  0.00    -0.307 OA
HETATM   19  H   UNK N   1      32.759  17.235   4.957  0.00  0.00     0.222 HD
ENDBRANCH  14  18
ENDBRANCH  13  14
ENDBRANCH  11  13
BRANCH  11  20
HETATM   20  O   UNK N   1      35.673  17.704  10.199  0.00  0.00    -0.307 OA
HETATM   21  H   UNK N   1      35.948  18.490   9.703  0.00  0.00     0.222 HD
ENDBRANCH  11  20
ENDBRANCH  10  11
ENDBRANCH   8  10
BRANCH   8  22
HETATM   22  O   UNK N   1      34.251  14.103  11.689  0.00  0.00    -0.307 OA
HETATM   23  H   UNK N   1      33.803  13.245  11.626  0.00  0.00     0.222 HD
ENDBRANCH   8  22
ENDBRANCH   7   8
ENDBRANCH   6   7
ENDBRANCH   4   6
BRANCH   5  24
HETATM   24  O   UNK N   1      34.071  11.991  13.571  0.00  0.00    -0.393 OA
HETATM   25  H   UNK N   1      33.532  12.786  13.438  0.00  0.00     0.210 HD
ENDBRANCH   5  24
BRANCH   1  26
HETATM   26  N   UNK N   1      35.376  11.940  18.094  0.00  0.00    -0.282 N 
HETATM   27  C   UNK N   1      35.353  12.725  19.235  0.00  0.00     0.330 A 
HETATM   28  N   UNK N   1      35.869  12.240  20.409  0.00  0.00    -0.295 N 
HETATM   29  O   UNK N   1      34.889  13.851  19.207  0.00  0.00    -0.246 OA
HETATM   30  C   UNK N   1      36.407  10.998  20.477  0.00  0.00     0.103 A 
ATOM     31  HN  UNK N   1      35.848  12.824  21.246  1.00  0.00     0.172 HD
HETATM   32  C   UNK N   1      36.432  10.190  19.346  0.00  0.00     0.065 A 
HETATM   33  C   UNK N   1      35.906  10.686  18.154  0.00  0.00     0.102 A 
BRANCH  30  34
HETATM   34  N   UNK N   1      36.951  10.531  21.690  0.00  0.00    -0.385 N 
HETATM   35  H   UNK N   1      37.780  10.001  21.727  0.00  0.00     0.157 HD
HETATM   36  H   UNK N   1      36.485  10.743  22.530  0.00  0.00     0.157 HD
ENDBRANCH  30  34
ENDBRANCH   1  26
TORSDOF 14
ENDMDL
MODEL 6
REMARK VINA RESULT:      -6.6      9.467     13.171
REMARK  14 active torsions:
REMARK  status: ('A' for Active; 'I' for Inactive)
REMARK    1  A    between atoms: C_2  and  N_1 
REMARK    2  A    between atoms: C_11  and  C_14 
REMARK    3  A    between atoms: C_12  and  O_15 
REMARK    4  A    between atoms: C_13  and  N_16 
REMARK    5  A    between atoms: C_14  and  O_17 
REMARK    6  A    between atoms: O_17  and  P_18 
REMARK    7  A    between atoms: P_18  and  O_19 
REMARK    8  A    between atoms: P_18  and  O_20 
REMARK    9  A    between atoms: O_19  and  P_22 
REMARK   10  A    between atoms: P_22  and  O_23 
REMARK   11  A    between atoms: P_22  and  O_24 
REMARK   12  A    between atoms: O_23  and  P_26 
REMARK   13  A    between atoms: P_26  and  O_27 
REMARK   14  A    between atoms: P_26  and  O_28 
ROOT
HETATM    1  C   UNK N   1      23.134  13.800   7.429  0.00  0.00     0.235 C 
HETATM    2  O   UNK N   1      22.462  13.012   6.475  0.00  0.00    -0.356 OA
HETATM    3  C   UNK N   1      22.623  15.225   7.309  0.00  0.00     0.088 C 
HETATM    4  C   UNK N   1      22.257  13.879   5.392  0.00  0.00     0.177 C 
HETATM    5  C   UNK N   1      22.000  15.257   5.948  0.00  0.00     0.153 C 
ENDROOT
BRANCH   4   6
HETATM    6  C   UNK N   1      21.064  13.423   4.558  0.00  0.00     0.215 C 
BRANCH   6   7
HETATM    7  O   UNK N   1      20.195  14.497   4.325  0.00  0.00    -0.294 OA
BRANCH   7   8
HETATM    8  P   UNK N   1      20.343  14.896   2.637  0.00  0.00     0.401 P 
HETATM    9  O   UNK N   1      21.320  13.843   2.050  0.00  0.00    -0.631 OA
BRANCH   8  10
HETATM   10  O   UNK N   1      21.082  16.458   2.400  0.00  0.00    -0.195 OA
BRANCH  10  11
HETATM   11  P   UNK N   1      19.860  17.619   2.840  0.00  0.00     0.410 P 
HETATM   12  O   UNK N   1      19.655  17.390   1.314  0.00  0.00    -0.631 OA
BRANCH  11  13
HETATM   13  O   UNK N   1      20.070  19.333   2.376  0.00  0.00    -0.195 OA
BRANCH  13  14
HETATM   14  P   UNK N   1      21.631  20.045   2.815  0.00  0.00     0.399 P 
HETATM   15  O   UNK N   1      21.461  20.456   1.327  0.00  0.00    -0.631 OA
BRANCH  14  16
HETATM   16  O   UNK N   1      20.391  20.775   3.785  0.00  0.00    -0.307 OA
HETATM   17  H   UNK N   1      20.590  21.161   4.653  0.00  0.00     0.222 HD
ENDBRANCH  14  16
BRANCH  14  18
HETATM   18  O   UNK N   1      21.822  21.769   2.828  0.00  0.00    -0.307 OA
HETATM   19  H   UNK N   1      22.643  22.175   3.147  0.00  0.00     0.222 HD
ENDBRANCH  14  18
ENDBRANCH  13  14
ENDBRANCH  11  13
BRANCH  11  20
HETATM   20  O   UNK N   1      21.467  18.030   3.364  0.00  0.00    -0.307 OA
HETATM   21  H   UNK N   1      21.860  18.421   4.159  0.00  0.00     0.222 HD
ENDBRANCH  11  20
ENDBRANCH  10  11
ENDBRANCH   8  10
BRANCH   8  22
HETATM   22  O   UNK N   1      18.847  14.716   1.771  0.00  0.00    -0.307 OA
HETATM   23  H   UNK N   1      18.568  14.606   0.849  0.00  0.00     0.222 HD
ENDBRANCH   8  22
ENDBRANCH   7   8
ENDBRANCH   6   7
ENDBRANCH   4   6
BRANCH   5  24
HETATM   24  O   UNK N   1      22.605  16.221   5.141  0.00  0.00    -0.393 OA
HETATM   25  H   UNK N   1      23.206  15.952   4.430  0.00  0.00     0.210 HD
ENDBRANCH   5  24
BRANCH   1  26
HETATM   26  N   UNK N   1      22.962  13.274   8.795  0.00  0.00    -0.282 N 
HETATM   27  C   UNK N   1      24.055  13.104   9.627  0.00  0.00     0.330 A 
HETATM   28  N   UNK N   1      23.887  12.567  10.878  0.00  0.00    -0.295 N 
HETATM   29  O   UNK N   1      25.173  13.416   9.257  0.00  0.00    -0.246 OA
HETATM   30  C   UNK N   1      22.661  12.195  11.320  0.00  0.00     0.103 A 
ATOM     31  HN  UNK N   1      24.697  12.446  11.486  1.00  0.00     0.172 HD
HETATM   32  C   UNK N   1      21.548  12.365  10.504  0.00  0.00     0.065 A 
HETATM   33  C   UNK N   1      21.722  12.911   9.234  0.00  0.00     0.102 A 
BRANCH  30  34
HETATM   34  N   UNK N   1      22.516  11.624  12.600  0.00  0.00    -0.385 N 
HETATM   35  H   UNK N   1      22.333  10.666  12.734  0.00  0.00     0.157 HD
HETATM   36  H   UNK N   1      22.602  12.206  13.389  0.00  0.00     0.157 HD
ENDBRANCH  30  34
ENDBRANCH   1  26
TORSDOF 14
ENDMDL
MODEL 7
REMARK VINA RESULT:      -6.5      9.065     11.686
REMARK  14 active torsions:
REMARK  status: ('A' for Active; 'I' for Inactive)
REMARK    1  A    between atoms: C_2  and  N_1 
REMARK    2  A    between atoms: C_11  and  C_14 
REMARK    3  A    between atoms: C_12  and  O_15 
REMARK    4  A    between atoms: C_13  and  N_16 
REMARK    5  A    between atoms: C_14  and  O_17 
REMARK    6  A    between atoms: O_17  and  P_18 
REMARK    7  A    between atoms: P_18  and  O_19 
REMARK    8  A    between atoms: P_18  and  O_20 
REMARK    9  A    between atoms: O_19  and  P_22 
REMARK   10  A    between atoms: P_22  and  O_23 
REMARK   11  A    between atoms: P_22  and  O_24 
REMARK   12  A    between atoms: O_23  and  P_26 
REMARK   13  A    between atoms: P_26  and  O_27 
REMARK   14  A    between atoms: P_26  and  O_28 
ROOT
HETATM    1  C   UNK N   1      35.556  13.099  16.129  0.00  0.00     0.235 C 
HETATM    2  O   UNK N   1      36.754  12.746  15.478  0.00  0.00    -0.356 OA
HETATM    3  C   UNK N   1      34.395  12.689  15.240  0.00  0.00     0.088 C 
HETATM    4  C   UNK N   1      36.470  12.917  14.115  0.00  0.00     0.177 C 
HETATM    5  C   UNK N   1      35.029  12.532  13.893  0.00  0.00     0.153 C 
ENDROOT
BRANCH   4   6
HETATM    6  C   UNK N   1      37.381  12.039  13.263  0.00  0.00     0.215 C 
BRANCH   6   7
HETATM    7  O   UNK N   1      36.665  11.488  12.193  0.00  0.00    -0.294 OA
BRANCH   7   8
HETATM    8  P   UNK N   1      37.151  12.362  10.769  0.00  0.00     0.401 P 
HETATM    9  O   UNK N   1      38.639  12.737  11.005  0.00  0.00    -0.631 OA
BRANCH   8  10
HETATM   10  O   UNK N   1      36.274  13.860  10.594  0.00  0.00    -0.195 OA
BRANCH  10  11
HETATM   11  P   UNK N   1      35.381  13.702   9.108  0.00  0.00     0.410 P 
HETATM   12  O   UNK N   1      35.385  15.230   9.404  0.00  0.00    -0.631 OA
BRANCH  11  13
HETATM   13  O   UNK N   1      33.602  13.881   9.129  0.00  0.00    -0.195 OA
BRANCH  13  14
HETATM   14  P   UNK N   1      33.016  15.552   9.181  0.00  0.00     0.399 P 
HETATM   15  O   UNK N   1      32.013  14.854   8.222  0.00  0.00    -0.631 OA
BRANCH  14  16
HETATM   16  O   UNK N   1      32.897  14.867  10.772  0.00  0.00    -0.307 OA
HETATM   17  H   UNK N   1      32.199  14.232  10.998  0.00  0.00     0.222 HD
ENDBRANCH  14  16
BRANCH  14  18
HETATM   18  O   UNK N   1      31.460  15.900   9.866  0.00  0.00    -0.307 OA
HETATM   19  H   UNK N   1      30.661  15.880   9.317  0.00  0.00     0.222 HD
ENDBRANCH  14  18
ENDBRANCH  13  14
ENDBRANCH  11  13
BRANCH  11  20
HETATM   20  O   UNK N   1      34.842  12.655  10.388  0.00  0.00    -0.307 OA
HETATM   21  H   UNK N   1      34.864  12.673  11.357  0.00  0.00     0.222 HD
ENDBRANCH  11  20
ENDBRANCH  10  11
ENDBRANCH   8  10
BRANCH   8  22
HETATM   22  O   UNK N   1      37.112  11.383   9.335  0.00  0.00    -0.307 OA
HETATM   23  H   UNK N   1      37.316  11.493   8.393  0.00  0.00     0.222 HD
ENDBRANCH   8  22
ENDBRANCH   7   8
ENDBRANCH   6   7
ENDBRANCH   4   6
BRANCH   5  24
HETATM   24  O   UNK N   1      34.442  13.385  12.958  0.00  0.00    -0.393 OA
HETATM   25  H   UNK N   1      33.477  13.463  12.911  0.00  0.00     0.210 HD
ENDBRANCH   5  24
BRANCH   1  26
HETATM   26  N   UNK N   1      35.458  12.490  17.467  0.00  0.00    -0.282 N 
HETATM   27  C   UNK N   1      35.328  13.283  18.595  0.00  0.00     0.330 A 
HETATM   28  N   UNK N   1      35.288  12.704  19.838  0.00  0.00    -0.295 N 
HETATM   29  O   UNK N   1      35.261  14.495  18.499  0.00  0.00    -0.246 OA
HETATM   30  C   UNK N   1      35.374  11.360  19.987  0.00  0.00     0.103 A 
ATOM     31  HN  UNK N   1      35.191  13.295  20.664  1.00  0.00     0.172 HD
HETATM   32  C   UNK N   1      35.495  10.544  18.868  0.00  0.00     0.065 A 
HETATM   33  C   UNK N   1      35.536  11.135  17.606  0.00  0.00     0.102 A 
BRANCH  30  34
HETATM   34  N   UNK N   1      35.353  10.791  21.275  0.00  0.00    -0.385 N 
HETATM   35  H   UNK N   1      36.174  10.519  21.746  0.00  0.00     0.157 HD
HETATM   36  H   UNK N   1      34.485  10.661  21.721  0.00  0.00     0.157 HD
ENDBRANCH  30  34
ENDBRANCH   1  26
TORSDOF 14
ENDMDL
MODEL 8
REMARK VINA RESULT:      -6.4     13.207     14.777
REMARK  14 active torsions:
REMARK  status: ('A' for Active; 'I' for Inactive)
REMARK    1  A    between atoms: C_2  and  N_1 
REMARK    2  A    between atoms: C_11  and  C_14 
REMARK    3  A    between atoms: C_12  and  O_15 
REMARK    4  A    between atoms: C_13  and  N_16 
REMARK    5  A    between atoms: C_14  and  O_17 
REMARK    6  A    between atoms: O_17  and  P_18 
REMARK    7  A    between atoms: P_18  and  O_19 
REMARK    8  A    between atoms: P_18  and  O_20 
REMARK    9  A    between atoms: O_19  and  P_22 
REMARK   10  A    between atoms: P_22  and  O_23 
REMARK   11  A    between atoms: P_22  and  O_24 
REMARK   12  A    between atoms: O_23  and  P_26 
REMARK   13  A    between atoms: P_26  and  O_27 
REMARK   14  A    between atoms: P_26  and  O_28 
ROOT
HETATM    1  C   UNK N   1      27.022  25.712  -6.174  0.00  0.00     0.235 C 
HETATM    2  O   UNK N   1      28.249  25.142  -5.783  0.00  0.00    -0.356 OA
HETATM    3  C   UNK N   1      25.925  24.695  -5.915  0.00  0.00     0.088 C 
HETATM    4  C   UNK N   1      28.105  23.778  -6.075  0.00  0.00     0.177 C 
HETATM    5  C   UNK N   1      26.669  23.401  -5.813  0.00  0.00     0.153 C 
ENDROOT
BRANCH   4   6
HETATM    6  C   UNK N   1      29.031  22.941  -5.198  0.00  0.00     0.215 C 
BRANCH   6   7
HETATM    7  O   UNK N   1      28.877  23.293  -3.852  0.00  0.00    -0.294 OA
BRANCH   7   8
HETATM    8  P   UNK N   1      30.383  22.916  -3.065  0.00  0.00     0.401 P 
HETATM    9  O   UNK N   1      31.371  24.024  -3.518  0.00  0.00    -0.631 OA
BRANCH   8  10
HETATM   10  O   UNK N   1      31.042  21.397  -3.613  0.00  0.00    -0.195 OA
BRANCH  10  11
HETATM   11  P   UNK N   1      32.724  21.711  -3.932  0.00  0.00     0.410 P 
HETATM   12  O   UNK N   1      32.301  20.688  -5.026  0.00  0.00    -0.631 OA
BRANCH  11  13
HETATM   13  O   UNK N   1      33.945  20.478  -3.502  0.00  0.00    -0.195 OA
BRANCH  13  14
HETATM   14  P   UNK N   1      34.378  19.362  -4.807  0.00  0.00     0.399 P 
HETATM   15  O   UNK N   1      35.758  19.815  -4.257  0.00  0.00    -0.631 OA
BRANCH  14  16
HETATM   16  O   UNK N   1      33.506  18.486  -3.588  0.00  0.00    -0.307 OA
HETATM   17  H   UNK N   1      33.022  18.947  -2.884  0.00  0.00     0.222 HD
ENDBRANCH  14  16
BRANCH  14  18
HETATM   18  O   UNK N   1      35.196  17.877  -4.438  0.00  0.00    -0.307 OA
HETATM   19  H   UNK N   1      35.101  17.102  -5.014  0.00  0.00     0.222 HD
ENDBRANCH  14  18
ENDBRANCH  13  14
ENDBRANCH  11  13
BRANCH  11  20
HETATM   20  O   UNK N   1      32.370  21.289  -2.282  0.00  0.00    -0.307 OA
HETATM   21  H   UNK N   1      32.388  21.748  -1.428  0.00  0.00     0.222 HD
ENDBRANCH  11  20
ENDBRANCH  10  11
ENDBRANCH   8  10
BRANCH   8  22
HETATM   22  O   UNK N   1      30.282  23.026  -1.334  0.00  0.00    -0.307 OA
HETATM   23  H   UNK N   1      30.554  22.493  -0.571  0.00  0.00     0.222 HD
ENDBRANCH   8  22
ENDBRANCH   7   8
ENDBRANCH   6   7
ENDBRANCH   4   6
BRANCH   5  24
HETATM   24  O   UNK N   1      26.228  22.490  -6.773  0.00  0.00    -0.393 OA
HETATM   25  H   UNK N   1      26.329  21.537  -6.622  0.00  0.00     0.210 HD
ENDBRANCH   5  24
BRANCH   1  26
HETATM   26  N   UNK N   1      26.761  26.984  -5.475  0.00  0.00    -0.282 N 
HETATM   27  C   UNK N   1      27.219  28.181  -5.998  0.00  0.00     0.330 A 
HETATM   28  N   UNK N   1      27.011  29.351  -5.312  0.00  0.00    -0.295 N 
HETATM   29  O   UNK N   1      27.816  28.209  -7.059  0.00  0.00    -0.246 OA
HETATM   30  C   UNK N   1      26.363  29.359  -4.123  0.00  0.00     0.103 A 
ATOM     31  HN  UNK N   1      27.351  30.230  -5.705  1.00  0.00     0.172 HD
HETATM   32  C   UNK N   1      25.886  28.169  -3.584  0.00  0.00     0.065 A 
HETATM   33  C   UNK N   1      26.099  26.982  -4.283  0.00  0.00     0.102 A 
BRANCH  30  34
HETATM   34  N   UNK N   1      26.182  30.570  -3.427  0.00  0.00    -0.385 N 
HETATM   35  H   UNK N   1      25.961  31.414  -3.883  0.00  0.00     0.157 HD
HETATM   36  H   UNK N   1      26.279  30.572  -2.447  0.00  0.00     0.157 HD
ENDBRANCH  30  34
ENDBRANCH   1  26
TORSDOF 14
ENDMDL
MODEL 9
REMARK VINA RESULT:      -6.4      6.753      9.211
REMARK  14 active torsions:
REMARK  status: ('A' for Active; 'I' for Inactive)
REMARK    1  A    between atoms: C_2  and  N_1 
REMARK    2  A    between atoms: C_11  and  C_14 
REMARK    3  A    between atoms: C_12  and  O_15 
REMARK    4  A    between atoms: C_13  and  N_16 
REMARK    5  A    between atoms: C_14  and  O_17 
REMARK    6  A    between atoms: O_17  and  P_18 
REMARK    7  A    between atoms: P_18  and  O_19 
REMARK    8  A    between atoms: P_18  and  O_20 
REMARK    9  A    between atoms: O_19  and  P_22 
REMARK   10  A    between atoms: P_22  and  O_23 
REMARK   11  A    between atoms: P_22  and  O_24 
REMARK   12  A    between atoms: O_23  and  P_26 
REMARK   13  A    between atoms: P_26  and  O_27 
REMARK   14  A    between atoms: P_26  and  O_28 
ROOT
HETATM    1  C   UNK N   1      20.474  18.588   2.870  0.00  0.00     0.235 C 
HETATM    2  O   UNK N   1      21.790  18.703   3.358  0.00  0.00    -0.356 OA
HETATM    3  C   UNK N   1      20.323  19.532   1.690  0.00  0.00     0.088 C 
HETATM    4  C   UNK N   1      22.121  20.050   3.147  0.00  0.00     0.177 C 
HETATM    5  C   UNK N   1      21.460  20.490   1.865  0.00  0.00     0.153 C 
ENDROOT
BRANCH   4   6
HETATM    6  C   UNK N   1      23.633  20.220   3.038  0.00  0.00     0.215 C 
BRANCH   6   7
HETATM    7  O   UNK N   1      24.289  19.241   3.796  0.00  0.00    -0.294 OA
BRANCH   7   8
HETATM    8  P   UNK N   1      25.916  19.809   4.037  0.00  0.00     0.401 P 
HETATM    9  O   UNK N   1      26.240  20.670   2.787  0.00  0.00    -0.631 OA
BRANCH   8  10
HETATM   10  O   UNK N   1      27.067  18.498   4.060  0.00  0.00    -0.195 OA
BRANCH  10  11
HETATM   11  P   UNK N   1      27.964  18.696   5.539  0.00  0.00     0.410 P 
HETATM   12  O   UNK N   1      28.937  17.944   4.586  0.00  0.00    -0.631 OA
BRANCH  11  13
HETATM   13  O   UNK N   1      28.207  17.288   6.613  0.00  0.00    -0.195 OA
BRANCH  13  14
HETATM   14  P   UNK N   1      28.608  17.684   8.292  0.00  0.00     0.399 P 
HETATM   15  O   UNK N   1      28.324  19.073   7.659  0.00  0.00    -0.631 OA
BRANCH  14  16
HETATM   16  O   UNK N   1      27.171  16.712   8.275  0.00  0.00    -0.307 OA
HETATM   17  H   UNK N   1      26.656  16.586   7.462  0.00  0.00     0.222 HD
ENDBRANCH  14  16
BRANCH  14  18
HETATM   18  O   UNK N   1      27.403  18.382   9.327  0.00  0.00    -0.307 OA
HETATM   19  H   UNK N   1      26.905  17.830   9.950  0.00  0.00     0.222 HD
ENDBRANCH  14  18
ENDBRANCH  13  14
ENDBRANCH  11  13
BRANCH  11  20
HETATM   20  O   UNK N   1      26.378  18.011   5.743  0.00  0.00    -0.307 OA
HETATM   21  H   UNK N   1      25.700  17.639   5.158  0.00  0.00     0.222 HD
ENDBRANCH  11  20
ENDBRANCH  10  11
ENDBRANCH   8  10
BRANCH   8  22
HETATM   22  O   UNK N   1      26.062  20.862   5.411  0.00  0.00    -0.307 OA
HETATM   23  H   UNK N   1      25.580  21.027   6.236  0.00  0.00     0.222 HD
ENDBRANCH   8  22
ENDBRANCH   7   8
ENDBRANCH   6   7
ENDBRANCH   4   6
BRANCH   5  24
HETATM   24  O   UNK N   1      20.999  21.801   1.988  0.00  0.00    -0.393 OA
HETATM   25  H   UNK N   1      20.887  22.352   1.198  0.00  0.00     0.210 HD
ENDBRANCH   5  24
BRANCH   1  26
HETATM   26  N   UNK N   1      20.145  17.199   2.501  0.00  0.00    -0.282 N 
HETATM   27  C   UNK N   1      19.704  16.302   3.458  0.00  0.00     0.330 A 
HETATM   28  N   UNK N   1      19.449  15.000   3.110  0.00  0.00    -0.295 N 
HETATM   29  O   UNK N   1      19.550  16.651   4.614  0.00  0.00    -0.246 OA
HETATM   30  C   UNK N   1      19.622  14.570   1.837  0.00  0.00     0.103 A 
ATOM     31  HN  UNK N   1      19.124  14.345   3.821  1.00  0.00     0.172 HD
HETATM   32  C   UNK N   1      20.055  15.456   0.857  0.00  0.00     0.065 A 
HETATM   33  C   UNK N   1      20.314  16.779   1.214  0.00  0.00     0.102 A 
BRANCH  30  34
HETATM   34  N   UNK N   1      19.375  13.222   1.508  0.00  0.00    -0.385 N 
HETATM   35  H   UNK N   1      18.476  12.824   1.553  0.00  0.00     0.157 HD
HETATM   36  H   UNK N   1      20.131  12.659   1.223  0.00  0.00     0.157 HD
ENDBRANCH  30  34
ENDBRANCH   1  26
TORSDOF 14
ENDMDL
