REMARK  8 active torsions:
REMARK  status: ('A' for Active; 'I' for Inactive)
REMARK    1  A    between atoms: C_2  and  C_1 
REMARK    2  A    between atoms: S_10  and  C_1 
REMARK    3  A    between atoms: C_3  and  C_2 
REMARK    4  A    between atoms: C_2  and  N_5 
REMARK    5  A    between atoms: O_7  and  C_3 
REMARK    6  A    between atoms: O_8  and  As_4 
REMARK    7  A    between atoms: O_9  and  As_4 
REMARK    8  A    between atoms: S_10  and  As_4 
ROOT
HETATM    1  C   UNK N   1      -1.129  -0.725   0.153  0.00  0.00     0.183 C 
ENDROOT
BRANCH   1   2
HETATM    2  C   UNK N   1       0.044  -0.973  -0.801  0.00  0.00     0.121 C 
BRANCH   2   3
HETATM    3  S   UNK N   1       0.865  -2.590  -0.578  0.00  0.00    -0.095 SA
BRANCH   3   4
HETATM    4 As   UNK N   1       2.566  -1.797   0.694  0.00  0.00     0.000 As
BRANCH   4   5
HETATM    5  O   UNK N   1       3.121  -0.611  -0.596  0.00  0.00    -0.253 OA
HETATM    6  H   UNK N   1       3.810  -0.551  -1.276  0.00  0.00     0.253 HD
ENDBRANCH   4   5
BRANCH   4   7
HETATM    7  O   UNK N   1       3.710  -3.088   0.052  0.00  0.00    -0.253 OA
HETATM    8  H   UNK N   1       3.422  -3.951  -0.287  0.00  0.00     0.253 HD
ENDBRANCH   4   7
ENDBRANCH   3   4
ENDBRANCH   2   3
ENDBRANCH   1   2
BRANCH   1   9
HETATM    9  C   UNK N   1      -2.213  -1.772   0.021  0.00  0.00     0.163 C 
HETATM   10  O   UNK N   1      -3.341  -1.459  -0.331  0.00  0.00    -0.648 OA
BRANCH   9  11
HETATM   11  O   UNK N   1      -1.952  -3.057   0.325  0.00  0.00    -0.775 OA
HETATM   12  H   UNK N   1      -2.636  -3.662   0.537  0.00  0.00     0.167 HD
ENDBRANCH   9  11
ENDBRANCH   1   9
BRANCH   1  13
HETATM   13  N   UNK N   1      -1.671   0.594  -0.138  0.00  0.00    -0.417 N 
HETATM   14  H   UNK N   1      -1.060   1.385  -0.342  0.00  0.00     0.150 HD
HETATM   15  H   UNK N   1      -2.681   0.731  -0.138  0.00  0.00     0.150 HD
ENDBRANCH   1  13
TORSDOF 8
