MODEL 1
REMARK VINA RESULT:      -2.9      0.000      0.000
REMARK  0 active torsions:
REMARK  status: ('A' for Active; 'I' for Inactive)
ROOT
HETATM    1  C   UNK N   1      32.095  17.098   6.053  0.00  0.00     0.193 A 
HETATM    2  C   UNK N   1      33.538  17.404   5.658  0.00  0.00     0.193 A 
HETATM    3  O   UNK N   1      34.454  17.929   6.582  0.00  0.00    -0.387 OA
HETATM    4  C   UNK N   1      33.986  18.162   7.885  0.00  0.00     0.193 A 
HETATM    5  C   UNK N   1      32.545  17.856   8.280  0.00  0.00     0.193 A 
HETATM    6  O   UNK N   1      31.627  17.330   7.355  0.00  0.00    -0.387 OA
ENDROOT
TORSDOF 0
ENDMDL
MODEL 2
REMARK VINA RESULT:      -2.9      0.075      2.130
REMARK  0 active torsions:
REMARK  status: ('A' for Active; 'I' for Inactive)
ROOT
HETATM    1  C   UNK N   1      33.596  17.425   5.723  0.00  0.00     0.193 A 
HETATM    2  C   UNK N   1      32.143  17.128   6.087  0.00  0.00     0.193 A 
HETATM    3  O   UNK N   1      31.646  17.373   7.376  0.00  0.00    -0.387 OA
HETATM    4  C   UNK N   1      32.543  17.903   8.317  0.00  0.00     0.193 A 
HETATM    5  C   UNK N   1      33.994  18.200   7.954  0.00  0.00     0.193 A 
HETATM    6  O   UNK N   1      34.492  17.955   6.664  0.00  0.00    -0.387 OA
ENDROOT
TORSDOF 0
ENDMDL
MODEL 3
REMARK VINA RESULT:      -2.8     10.865     11.879
REMARK  0 active torsions:
REMARK  status: ('A' for Active; 'I' for Inactive)
ROOT
HETATM    1  C   UNK N   1      24.798  12.331  10.581  0.00  0.00     0.193 A 
HETATM    2  C   UNK N   1      23.711  12.649   9.556  0.00  0.00     0.193 A 
HETATM    3  O   UNK N   1      22.350  12.588   9.890  0.00  0.00    -0.387 OA
HETATM    4  C   UNK N   1      22.030  12.221  11.208  0.00  0.00     0.193 A 
HETATM    5  C   UNK N   1      23.115  11.903  12.231  0.00  0.00     0.193 A 
HETATM    6  O   UNK N   1      24.478  11.964  11.897  0.00  0.00    -0.387 OA
ENDROOT
TORSDOF 0
ENDMDL
MODEL 4
REMARK VINA RESULT:      -2.8      3.463      3.862
REMARK  0 active torsions:
REMARK  status: ('A' for Active; 'I' for Inactive)
ROOT
HETATM    1  C   UNK N   1      33.605  16.082   8.999  0.00  0.00     0.193 A 
HETATM    2  C   UNK N   1      34.561  17.268   9.105  0.00  0.00     0.193 A 
HETATM    3  O   UNK N   1      35.472  17.380  10.166  0.00  0.00    -0.387 OA
HETATM    4  C   UNK N   1      35.467  16.355  11.126  0.00  0.00     0.193 A 
HETATM    5  C   UNK N   1      34.512  15.170  11.019  0.00  0.00     0.193 A 
HETATM    6  O   UNK N   1      33.600  15.058   9.957  0.00  0.00    -0.387 OA
ENDROOT
TORSDOF 0
ENDMDL
MODEL 5
REMARK VINA RESULT:      -2.8      3.456      4.270
REMARK  0 active torsions:
REMARK  status: ('A' for Active; 'I' for Inactive)
ROOT
HETATM    1  C   UNK N   1      34.570  17.288   9.123  0.00  0.00     0.193 A 
HETATM    2  C   UNK N   1      33.594  16.121   9.000  0.00  0.00     0.193 A 
HETATM    3  O   UNK N   1      33.573  15.081   9.942  0.00  0.00    -0.387 OA
HETATM    4  C   UNK N   1      34.490  15.162  11.003  0.00  0.00     0.193 A 
HETATM    5  C   UNK N   1      35.465  16.328  11.126  0.00  0.00     0.193 A 
HETATM    6  O   UNK N   1      35.486  17.368  10.183  0.00  0.00    -0.387 OA
ENDROOT
TORSDOF 0
ENDMDL
MODEL 6
REMARK VINA RESULT:      -2.8      3.325      4.085
REMARK  0 active torsions:
REMARK  status: ('A' for Active; 'I' for Inactive)
ROOT
HETATM    1  C   UNK N   1      34.552  15.311  10.936  0.00  0.00     0.193 A 
HETATM    2  C   UNK N   1      35.524  16.489  10.964  0.00  0.00     0.193 A 
HETATM    3  O   UNK N   1      35.475  17.501   9.994  0.00  0.00    -0.387 OA
HETATM    4  C   UNK N   1      34.494  17.383   8.995  0.00  0.00     0.193 A 
HETATM    5  C   UNK N   1      33.524  16.207   8.967  0.00  0.00     0.193 A 
HETATM    6  O   UNK N   1      33.573  15.194   9.938  0.00  0.00    -0.387 OA
ENDROOT
TORSDOF 0
ENDMDL
MODEL 7
REMARK VINA RESULT:      -2.7     10.556     11.500
REMARK  0 active torsions:
REMARK  status: ('A' for Active; 'I' for Inactive)
ROOT
HETATM    1  C   UNK N   1      21.231  19.331   3.477  0.00  0.00     0.193 A 
HETATM    2  C   UNK N   1      21.432  20.673   2.778  0.00  0.00     0.193 A 
HETATM    3  O   UNK N   1      22.712  21.220   2.600  0.00  0.00    -0.387 OA
HETATM    4  C   UNK N   1      23.799  20.479   3.092  0.00  0.00     0.193 A 
HETATM    5  C   UNK N   1      23.597  19.139   3.790  0.00  0.00     0.193 A 
HETATM    6  O   UNK N   1      22.316  18.591   3.969  0.00  0.00    -0.387 OA
ENDROOT
TORSDOF 0
ENDMDL
MODEL 8
REMARK VINA RESULT:      -2.7     13.055     13.451
REMARK  0 active torsions:
REMARK  status: ('A' for Active; 'I' for Inactive)
ROOT
HETATM    1  C   UNK N   1      20.417  18.270   2.060  0.00  0.00     0.193 A 
HETATM    2  C   UNK N   1      20.541  18.841   3.471  0.00  0.00     0.193 A 
HETATM    3  O   UNK N   1      20.882  20.184   3.690  0.00  0.00    -0.387 OA
HETATM    4  C   UNK N   1      21.105  20.981   2.555  0.00  0.00     0.193 A 
HETATM    5  C   UNK N   1      20.981  20.411   1.145  0.00  0.00     0.193 A 
HETATM    6  O   UNK N   1      20.640  19.066   0.926  0.00  0.00    -0.387 OA
ENDROOT
TORSDOF 0
ENDMDL
MODEL 9
REMARK VINA RESULT:      -2.7     15.805     16.394
REMARK  0 active torsions:
REMARK  status: ('A' for Active; 'I' for Inactive)
ROOT
HETATM    1  C   UNK N   1      25.816  24.949  -4.932  0.00  0.00     0.193 A 
HETATM    2  C   UNK N   1      26.481  25.622  -3.734  0.00  0.00     0.193 A 
HETATM    3  O   UNK N   1      26.307  26.990  -3.473  0.00  0.00    -0.387 OA
HETATM    4  C   UNK N   1      25.494  27.712  -4.362  0.00  0.00     0.193 A 
HETATM    5  C   UNK N   1      24.829  27.039  -5.558  0.00  0.00     0.193 A 
HETATM    6  O   UNK N   1      25.004  25.671  -5.820  0.00  0.00    -0.387 OA
ENDROOT
TORSDOF 0
ENDMDL
