MODEL 1
REMARK VINA RESULT:      -8.6      0.000      0.000
REMARK  10 active torsions:
REMARK  status: ('A' for Active; 'I' for Inactive)
REMARK    1  A    between atoms: C_2  and  C_3 
REMARK    2  A    between atoms: C_4  and  C_5 
REMARK    3  A    between atoms: C_5  and  C_7 
REMARK    4  A    between atoms: C_11  and  O_12 
REMARK    5  A    between atoms: C_20  and  S_23 
REMARK    6  A    between atoms: S_23  and  N_26 
REMARK    7  A    between atoms: N_26  and  C_27 
REMARK    8  A    between atoms: C_30  and  S_33 
REMARK    9  A    between atoms: S_33  and  N_36 
REMARK   10  A    between atoms: N_36  and  C_37 
ROOT
HETATM    1  C   UNK N   1      27.490  19.520   6.073  0.00  0.00     0.068 A 
HETATM    2  C   UNK N   1      27.080  19.132   4.766  0.00  0.00     0.058 A 
HETATM    3  C   UNK N   1      27.983  18.116   4.427  0.00  0.00     0.015 A 
HETATM    4  C   UNK N   1      28.821  17.972   5.498  0.00  0.00     0.088 A 
HETATM    5  O   UNK N   1      28.519  18.792   6.447  0.00  0.00    -0.313 OA
HETATM    6  C   UNK N   1      29.883  17.097   5.511  0.00  0.00     0.063 A 
HETATM    7  C   UNK N   1      30.110  16.319   4.383  0.00  0.00     0.082 A 
HETATM    8  C   UNK N   1      29.252  16.430   3.257  0.00  0.00     0.026 A 
HETATM    9  C   UNK N   1      28.159  17.335   3.279  0.00  0.00     0.017 A 
ENDROOT
BRANCH   7  10
HETATM   10  S   UNK N   1      31.623  15.374   4.362  0.00  0.00     0.263 S 
HETATM   11  O   UNK N   1      31.543  14.190   5.335  0.00  0.00    -0.200 OA
HETATM   12  O   UNK N   1      31.798  14.630   3.029  0.00  0.00    -0.200 OA
BRANCH  10  13
HETATM   13  N   UNK N   1      33.190  16.081   4.663  0.00  0.00    -0.281 N 
HETATM   14  H   UNK N   1      33.695  16.468   3.911  0.00  0.00     0.179 HD
BRANCH  13  15
HETATM   15  C   UNK N   1      33.751  16.109   5.955  0.00  0.00     0.042 A 
HETATM   16  C   UNK N   1      34.527  15.032   6.372  0.00  0.00     0.031 A 
HETATM   17  C   UNK N   1      35.065  15.023   7.654  0.00  0.00     0.027 A 
HETATM   18  C   UNK N   1      34.846  16.098   8.527  0.00  0.00     0.080 A 
HETATM   19  C   UNK N   1      34.069  17.182   8.114  0.00  0.00     0.027 A 
HETATM   20  C   UNK N   1      33.513  17.181   6.830  0.00  0.00     0.031 A 
BRANCH  18  21
HETATM   21  S   UNK N   1      35.610  16.030  10.145  0.00  0.00     0.264 S 
HETATM   22  O   UNK N   1      34.364  15.277  10.629  0.00  0.00    -0.200 OA
HETATM   23  O   UNK N   1      35.262  17.235  11.031  0.00  0.00    -0.200 OA
BRANCH  21  24
HETATM   24  N   UNK N   1      36.593  14.952  11.125  0.00  0.00    -0.260 N 
HETATM   25  H   UNK N   1      37.559  14.933  10.940  0.00  0.00     0.181 HD
BRANCH  24  26
HETATM   26  C   UNK N   1      36.121  14.108  12.156  0.00  0.00     0.158 A 
HETATM   27  N   UNK N   1      35.480  12.943  11.912  0.00  0.00    -0.345 N 
HETATM   28  C   UNK N   1      35.112  12.296  13.073  0.00  0.00     0.097 A 
ATOM     29  HN  UNK N   1      35.291  12.583  10.977  1.00  0.00     0.167 HD
HETATM   30  C   UNK N   1      35.461  12.962  14.266  0.00  0.00     0.070 A 
HETATM   31  S   UNK N   1      36.235  14.348  13.778  0.00  0.00    -0.064 SA
ENDBRANCH  24  26
ENDBRANCH  21  24
ENDBRANCH  18  21
ENDBRANCH  13  15
ENDBRANCH  10  13
ENDBRANCH   7  10
BRANCH   2  32
HETATM   32  C   UNK N   1      25.984  19.635   3.836  0.00  0.00     0.195 C 
HETATM   33  O   UNK N   1      26.311  20.390   2.933  0.00  0.00    -0.287 OA
BRANCH  32  34
HETATM   34  C   UNK N   1      24.529  19.279   3.939  0.00  0.00     0.018 A 
HETATM   35  C   UNK N   1      24.092  18.242   4.789  0.00  0.00     0.037 A 
HETATM   36  C   UNK N   1      22.724  17.921   4.875  0.00  0.00     0.046 A 
HETATM   37 Br   UNK N   1      22.150  16.514   6.033  0.00  0.00    -0.048 Br
HETATM   38  C   UNK N   1      21.786  18.633   4.110  0.00  0.00     0.100 A 
HETATM   39  C   UNK N   1      22.221  19.661   3.276  0.00  0.00     0.046 A 
HETATM   40 Br   UNK N   1      21.006  20.672   2.202  0.00  0.00    -0.048 Br
HETATM   41  C   UNK N   1      23.572  19.964   3.211  0.00  0.00     0.037 A 
BRANCH  38  42
HETATM   42  O   UNK N   1      20.477  18.334   4.180  0.00  0.00    -0.358 OA
HETATM   43  H   UNK N   1      20.095  17.754   3.552  0.00  0.00     0.217 HD
ENDBRANCH  38  42
ENDBRANCH  32  34
ENDBRANCH   2  32
BRANCH   1  44
HETATM   44  C   UNK N   1      26.983  20.587   6.985  0.00  0.00     0.061 C 
HETATM   45  C   UNK N   1      27.036  21.968   6.357  0.00  0.00     0.012 C 
ENDBRANCH   1  44
TORSDOF 10
ENDMDL
MODEL 2
REMARK VINA RESULT:      -8.4      5.099      9.620
REMARK  10 active torsions:
REMARK  status: ('A' for Active; 'I' for Inactive)
REMARK    1  A    between atoms: C_2  and  C_3 
REMARK    2  A    between atoms: C_4  and  C_5 
REMARK    3  A    between atoms: C_5  and  C_7 
REMARK    4  A    between atoms: C_11  and  O_12 
REMARK    5  A    between atoms: C_20  and  S_23 
REMARK    6  A    between atoms: S_23  and  N_26 
REMARK    7  A    between atoms: N_26  and  C_27 
REMARK    8  A    between atoms: C_30  and  S_33 
REMARK    9  A    between atoms: S_33  and  N_36 
REMARK   10  A    between atoms: N_36  and  C_37 
ROOT
HETATM    1  C   UNK N   1      35.374  14.926   6.901  0.00  0.00     0.068 A 
HETATM    2  C   UNK N   1      34.744  15.932   7.688  0.00  0.00     0.058 A 
HETATM    3  C   UNK N   1      34.927  15.482   9.002  0.00  0.00     0.015 A 
HETATM    4  C   UNK N   1      35.618  14.306   8.915  0.00  0.00     0.088 A 
HETATM    5  O   UNK N   1      35.874  13.999   7.688  0.00  0.00    -0.313 OA
HETATM    6  C   UNK N   1      35.937  13.536  10.011  0.00  0.00     0.063 A 
HETATM    7  C   UNK N   1      35.539  13.980  11.265  0.00  0.00     0.082 A 
HETATM    8  C   UNK N   1      34.832  15.204  11.397  0.00  0.00     0.026 A 
HETATM    9  C   UNK N   1      34.529  15.980  10.249  0.00  0.00     0.017 A 
ENDROOT
BRANCH   7  10
HETATM   10  S   UNK N   1      35.773  12.842  12.619  0.00  0.00     0.263 S 
HETATM   11  O   UNK N   1      36.532  11.590  12.159  0.00  0.00    -0.200 OA
HETATM   12  O   UNK N   1      36.759  13.402  13.656  0.00  0.00    -0.200 OA
BRANCH  10  13
HETATM   13  N   UNK N   1      34.454  12.224  13.580  0.00  0.00    -0.281 N 
HETATM   14  H   UNK N   1      33.552  12.176  13.186  0.00  0.00     0.179 HD
BRANCH  13  15
HETATM   15  C   UNK N   1      34.647  11.793  14.908  0.00  0.00     0.042 A 
HETATM   16  C   UNK N   1      34.820  12.749  15.904  0.00  0.00     0.031 A 
HETATM   17  C   UNK N   1      35.043  12.348  17.216  0.00  0.00     0.027 A 
HETATM   18  C   UNK N   1      35.079  10.987  17.550  0.00  0.00     0.080 A 
HETATM   19  C   UNK N   1      34.906  10.022  16.555  0.00  0.00     0.027 A 
HETATM   20  C   UNK N   1      34.699  10.428  15.232  0.00  0.00     0.031 A 
BRANCH  18  21
HETATM   21  S   UNK N   1      35.328  10.554  19.269  0.00  0.00     0.264 S 
HETATM   22  O   UNK N   1      35.227  12.050  19.594  0.00  0.00    -0.200 OA
HETATM   23  O   UNK N   1      36.807  10.534  19.681  0.00  0.00    -0.200 OA
BRANCH  21  24
HETATM   24  N   UNK N   1      34.396  10.217  20.721  0.00  0.00    -0.260 N 
HETATM   25  H   UNK N   1      34.636  10.718  21.534  0.00  0.00     0.181 HD
BRANCH  24  26
HETATM   26  C   UNK N   1      33.334   9.292  20.827  0.00  0.00     0.158 A 
HETATM   27  N   UNK N   1      32.704   8.774  19.748  0.00  0.00    -0.345 N 
HETATM   28  C   UNK N   1      31.699   7.898  20.099  0.00  0.00     0.097 A 
ATOM     29  HN  UNK N   1      32.944   9.006  18.784  1.00  0.00     0.167 HD
HETATM   30  C   UNK N   1      31.521   7.717  21.486  0.00  0.00     0.070 A 
HETATM   31  S   UNK N   1      32.667   8.684  22.200  0.00  0.00    -0.064 SA
ENDBRANCH  24  26
ENDBRANCH  21  24
ENDBRANCH  18  21
ENDBRANCH  13  15
ENDBRANCH  10  13
ENDBRANCH   7  10
BRANCH   2  32
HETATM   32  C   UNK N   1      33.989  17.204   7.326  0.00  0.00     0.195 C 
HETATM   33  O   UNK N   1      34.644  18.219   7.146  0.00  0.00    -0.287 OA
BRANCH  32  34
HETATM   34  C   UNK N   1      32.498  17.312   7.176  0.00  0.00     0.018 A 
HETATM   35  C   UNK N   1      31.683  17.690   8.262  0.00  0.00     0.037 A 
HETATM   36  C   UNK N   1      30.287  17.787   8.103  0.00  0.00     0.046 A 
HETATM   37 Br   UNK N   1      29.198  18.300   9.587  0.00  0.00    -0.048 Br
HETATM   38  C   UNK N   1      29.700  17.506   6.859  0.00  0.00     0.100 A 
HETATM   39  C   UNK N   1      30.511  17.139   5.787  0.00  0.00     0.046 A 
HETATM   40 Br   UNK N   1      29.785  16.737   4.065  0.00  0.00    -0.048 Br
HETATM   41  C   UNK N   1      31.882  17.055   5.963  0.00  0.00     0.037 A 
BRANCH  38  42
HETATM   42  O   UNK N   1      28.368  17.591   6.696  0.00  0.00    -0.358 OA
HETATM   43  H   UNK N   1      27.798  17.472   7.429  0.00  0.00     0.217 HD
ENDBRANCH  38  42
ENDBRANCH  32  34
ENDBRANCH   2  32
BRANCH   1  44
HETATM   44  C   UNK N   1      35.492  14.766   5.422  0.00  0.00     0.061 C 
HETATM   45  C   UNK N   1      34.357  13.951   4.828  0.00  0.00     0.012 C 
ENDBRANCH   1  44
TORSDOF 10
ENDMDL
MODEL 3
REMARK VINA RESULT:      -8.4      5.595     13.913
REMARK  10 active torsions:
REMARK  status: ('A' for Active; 'I' for Inactive)
REMARK    1  A    between atoms: C_2  and  C_3 
REMARK    2  A    between atoms: C_4  and  C_5 
REMARK    3  A    between atoms: C_5  and  C_7 
REMARK    4  A    between atoms: C_11  and  O_12 
REMARK    5  A    between atoms: C_20  and  S_23 
REMARK    6  A    between atoms: S_23  and  N_26 
REMARK    7  A    between atoms: N_26  and  C_27 
REMARK    8  A    between atoms: C_30  and  S_33 
REMARK    9  A    between atoms: S_33  and  N_36 
REMARK   10  A    between atoms: N_36  and  C_37 
ROOT
HETATM    1  C   UNK N   1      37.890  10.688  14.052  0.00  0.00     0.068 A 
HETATM    2  C   UNK N   1      36.562  10.914  14.512  0.00  0.00     0.058 A 
HETATM    3  C   UNK N   1      36.068  11.879  13.626  0.00  0.00     0.015 A 
HETATM    4  C   UNK N   1      37.077  12.145  12.743  0.00  0.00     0.088 A 
HETATM    5  O   UNK N   1      38.128  11.442  13.002  0.00  0.00    -0.313 OA
HETATM    6  C   UNK N   1      36.979  13.092  11.749  0.00  0.00     0.063 A 
HETATM    7  C   UNK N   1      35.794  13.808  11.636  0.00  0.00     0.082 A 
HETATM    8  C   UNK N   1      34.718  13.550  12.525  0.00  0.00     0.026 A 
HETATM    9  C   UNK N   1      34.847  12.559  13.532  0.00  0.00     0.017 A 
ENDROOT
BRANCH   7  10
HETATM   10  S   UNK N   1      35.799  15.173  10.487  0.00  0.00     0.263 S 
HETATM   11  O   UNK N   1      36.996  16.099  10.741  0.00  0.00    -0.200 OA
HETATM   12  O   UNK N   1      36.109  14.700   9.059  0.00  0.00    -0.200 OA
BRANCH  10  13
HETATM   13  N   UNK N   1      34.444  16.255  10.291  0.00  0.00    -0.281 N 
HETATM   14  H   UNK N   1      34.043  16.673  11.087  0.00  0.00     0.179 HD
BRANCH  13  15
HETATM   15  C   UNK N   1      33.908  16.543   9.019  0.00  0.00     0.042 A 
HETATM   16  C   UNK N   1      32.864  15.759   8.539  0.00  0.00     0.031 A 
HETATM   17  C   UNK N   1      32.340  16.005   7.276  0.00  0.00     0.027 A 
HETATM   18  C   UNK N   1      32.843  17.047   6.485  0.00  0.00     0.080 A 
HETATM   19  C   UNK N   1      33.891  17.838   6.960  0.00  0.00     0.027 A 
HETATM   20  C   UNK N   1      34.429  17.578   8.225  0.00  0.00     0.031 A 
BRANCH  18  21
HETATM   21  S   UNK N   1      32.085  17.325   4.886  0.00  0.00     0.264 S 
HETATM   22  O   UNK N   1      31.494  15.913   4.993  0.00  0.00    -0.200 OA
HETATM   23  O   UNK N   1      32.974  16.896   3.710  0.00  0.00    -0.200 OA
BRANCH  21  24
HETATM   24  N   UNK N   1      30.562  17.866   4.195  0.00  0.00    -0.260 N 
HETATM   25  H   UNK N   1      30.599  18.291   3.308  0.00  0.00     0.181 HD
BRANCH  24  26
HETATM   26  C   UNK N   1      29.290  17.744   4.797  0.00  0.00     0.158 A 
HETATM   27  N   UNK N   1      29.120  17.640   6.134  0.00  0.00    -0.345 N 
HETATM   28  C   UNK N   1      27.792  17.528   6.486  0.00  0.00     0.097 A 
ATOM     29  HN  UNK N   1      29.887  17.643   6.807  1.00  0.00     0.167 HD
HETATM   30  C   UNK N   1      26.884  17.539   5.407  0.00  0.00     0.070 A 
HETATM   31  S   UNK N   1      27.827  17.698   4.049  0.00  0.00    -0.064 SA
ENDBRANCH  24  26
ENDBRANCH  21  24
ENDBRANCH  18  21
ENDBRANCH  13  15
ENDBRANCH  10  13
ENDBRANCH   7  10
BRANCH   2  32
HETATM   32  C   UNK N   1      35.765  10.354  15.683  0.00  0.00     0.195 C 
HETATM   33  O   UNK N   1      35.262   9.248  15.547  0.00  0.00    -0.287 OA
BRANCH  32  34
HETATM   34  C   UNK N   1      35.544  11.052  16.994  0.00  0.00     0.018 A 
HETATM   35  C   UNK N   1      35.333  10.322  18.181  0.00  0.00     0.037 A 
HETATM   36  C   UNK N   1      35.128  10.993  19.402  0.00  0.00     0.046 A 
HETATM   37 Br   UNK N   1      34.844   9.986  21.001  0.00  0.00    -0.048 Br
HETATM   38  C   UNK N   1      35.131  12.396  19.442  0.00  0.00     0.100 A 
HETATM   39  C   UNK N   1      35.345  13.114  18.267  0.00  0.00     0.046 A 
HETATM   40 Br   UNK N   1      35.359  15.025  18.240  0.00  0.00    -0.048 Br
HETATM   41  C   UNK N   1      35.551  12.434  17.077  0.00  0.00     0.037 A 
BRANCH  38  42
HETATM   42  O   UNK N   1      34.931  13.049  20.600  0.00  0.00    -0.358 OA
HETATM   43  H   UNK N   1      34.332  12.707  21.233  0.00  0.00     0.217 HD
ENDBRANCH  38  42
ENDBRANCH  32  34
ENDBRANCH   2  32
BRANCH   1  44
HETATM   44  C   UNK N   1      38.980   9.818  14.585  0.00  0.00     0.061 C 
HETATM   45  C   UNK N   1      38.669   8.339  14.446  0.00  0.00     0.012 C 
ENDBRANCH   1  44
TORSDOF 10
ENDMDL
MODEL 4
REMARK VINA RESULT:      -8.3      5.235      9.746
REMARK  10 active torsions:
REMARK  status: ('A' for Active; 'I' for Inactive)
REMARK    1  A    between atoms: C_2  and  C_3 
REMARK    2  A    between atoms: C_4  and  C_5 
REMARK    3  A    between atoms: C_5  and  C_7 
REMARK    4  A    between atoms: C_11  and  O_12 
REMARK    5  A    between atoms: C_20  and  S_23 
REMARK    6  A    between atoms: S_23  and  N_26 
REMARK    7  A    between atoms: N_26  and  C_27 
REMARK    8  A    between atoms: C_30  and  S_33 
REMARK    9  A    between atoms: S_33  and  N_36 
REMARK   10  A    between atoms: N_36  and  C_37 
ROOT
HETATM    1  C   UNK N   1      35.092  14.589   6.990  0.00  0.00     0.068 A 
HETATM    2  C   UNK N   1      34.616  15.763   7.639  0.00  0.00     0.058 A 
HETATM    3  C   UNK N   1      34.894  15.528   8.991  0.00  0.00     0.015 A 
HETATM    4  C   UNK N   1      35.489  14.299   9.054  0.00  0.00     0.088 A 
HETATM    5  O   UNK N   1      35.601  13.768   7.883  0.00  0.00    -0.313 OA
HETATM    6  C   UNK N   1      35.859  13.700  10.237  0.00  0.00     0.063 A 
HETATM    7  C   UNK N   1      35.618  14.381  11.423  0.00  0.00     0.082 A 
HETATM    8  C   UNK N   1      35.016  15.666  11.397  0.00  0.00     0.026 A 
HETATM    9  C   UNK N   1      34.656  16.260  10.160  0.00  0.00     0.017 A 
ENDROOT
BRANCH   7  10
HETATM   10  S   UNK N   1      35.903  13.472  12.931  0.00  0.00     0.263 S 
HETATM   11  O   UNK N   1      36.979  12.395  12.728  0.00  0.00    -0.200 OA
HETATM   12  O   UNK N   1      36.583  14.349  13.993  0.00  0.00    -0.200 OA
BRANCH  10  13
HETATM   13  N   UNK N   1      34.631  12.657  13.806  0.00  0.00    -0.281 N 
HETATM   14  H   UNK N   1      33.731  12.607  13.409  0.00  0.00     0.179 HD
BRANCH  13  15
HETATM   15  C   UNK N   1      34.861  12.072  15.067  0.00  0.00     0.042 A 
HETATM   16  C   UNK N   1      34.883  10.684  15.167  0.00  0.00     0.031 A 
HETATM   17  C   UNK N   1      35.077  10.084  16.405  0.00  0.00     0.027 A 
HETATM   18  C   UNK N   1      35.267  10.864  17.555  0.00  0.00     0.080 A 
HETATM   19  C   UNK N   1      35.245  12.258  17.461  0.00  0.00     0.027 A 
HETATM   20  C   UNK N   1      35.033  12.860  16.216  0.00  0.00     0.031 A 
BRANCH  18  21
HETATM   21  S   UNK N   1      35.553  10.015  19.105  0.00  0.00     0.264 S 
HETATM   22  O   UNK N   1      34.966  11.243  19.812  0.00  0.00    -0.200 OA
HETATM   23  O   UNK N   1      36.939  10.295  19.703  0.00  0.00    -0.200 OA
BRANCH  21  24
HETATM   24  N   UNK N   1      34.703   8.996  20.258  0.00  0.00    -0.260 N 
HETATM   25  H   UNK N   1      34.594   8.046  20.022  0.00  0.00     0.181 HD
BRANCH  24  26
HETATM   26  C   UNK N   1      34.163   9.417  21.494  0.00  0.00     0.158 A 
HETATM   27  N   UNK N   1      32.998  10.096  21.589  0.00  0.00    -0.345 N 
HETATM   28  C   UNK N   1      32.676  10.401  22.895  0.00  0.00     0.097 A 
ATOM     29  HN  UNK N   1      32.423  10.354  20.788  1.00  0.00     0.167 HD
HETATM   30  C   UNK N   1      33.606   9.961  23.859  0.00  0.00     0.070 A 
HETATM   31  S   UNK N   1      34.797   9.191  22.994  0.00  0.00    -0.064 SA
ENDBRANCH  24  26
ENDBRANCH  21  24
ENDBRANCH  18  21
ENDBRANCH  13  15
ENDBRANCH  10  13
ENDBRANCH   7  10
BRANCH   2  32
HETATM   32  C   UNK N   1      33.920  17.017   7.124  0.00  0.00     0.195 C 
HETATM   33  O   UNK N   1      34.624  17.944   6.754  0.00  0.00    -0.287 OA
BRANCH  32  34
HETATM   34  C   UNK N   1      32.432  17.207   7.037  0.00  0.00     0.018 A 
HETATM   35  C   UNK N   1      31.742  16.994   5.827  0.00  0.00     0.037 A 
HETATM   36  C   UNK N   1      30.347  17.177   5.762  0.00  0.00     0.046 A 
HETATM   37 Br   UNK N   1      29.427  16.883   4.113  0.00  0.00    -0.048 Br
HETATM   38  C   UNK N   1      29.637  17.575   6.906  0.00  0.00     0.100 A 
HETATM   39  C   UNK N   1      30.323  17.779   8.102  0.00  0.00     0.046 A 
HETATM   40 Br   UNK N   1      29.427  18.326   9.699  0.00  0.00    -0.048 Br
HETATM   41  C   UNK N   1      31.695  17.588   8.144  0.00  0.00     0.037 A 
BRANCH  38  42
HETATM   42  O   UNK N   1      28.305  17.758   6.857  0.00  0.00    -0.358 OA
HETATM   43  H   UNK N   1      27.916  18.490   7.291  0.00  0.00     0.217 HD
ENDBRANCH  38  42
ENDBRANCH  32  34
ENDBRANCH   2  32
BRANCH   1  44
HETATM   44  C   UNK N   1      35.053  14.173   5.558  0.00  0.00     0.061 C 
HETATM   45  C   UNK N   1      33.649  13.848   5.080  0.00  0.00     0.012 C 
ENDBRANCH   1  44
TORSDOF 10
ENDMDL
MODEL 5
REMARK VINA RESULT:      -8.3      6.851     11.687
REMARK  10 active torsions:
REMARK  status: ('A' for Active; 'I' for Inactive)
REMARK    1  A    between atoms: C_2  and  C_3 
REMARK    2  A    between atoms: C_4  and  C_5 
REMARK    3  A    between atoms: C_5  and  C_7 
REMARK    4  A    between atoms: C_11  and  O_12 
REMARK    5  A    between atoms: C_20  and  S_23 
REMARK    6  A    between atoms: S_23  and  N_26 
REMARK    7  A    between atoms: N_26  and  C_27 
REMARK    8  A    between atoms: C_30  and  S_33 
REMARK    9  A    between atoms: S_33  and  N_36 
REMARK   10  A    between atoms: N_36  and  C_37 
ROOT
HETATM    1  C   UNK N   1      25.886  16.138   5.548  0.00  0.00     0.068 A 
HETATM    2  C   UNK N   1      26.624  17.172   4.905  0.00  0.00     0.058 A 
HETATM    3  C   UNK N   1      25.630  18.033   4.422  0.00  0.00     0.015 A 
HETATM    4  C   UNK N   1      24.433  17.487   4.794  0.00  0.00     0.088 A 
HETATM    5  O   UNK N   1      24.599  16.388   5.451  0.00  0.00    -0.313 OA
HETATM    6  C   UNK N   1      23.216  18.029   4.447  0.00  0.00     0.063 A 
HETATM    7  C   UNK N   1      23.207  19.190   3.685  0.00  0.00     0.082 A 
HETATM    8  C   UNK N   1      24.429  19.795   3.293  0.00  0.00     0.026 A 
HETATM    9  C   UNK N   1      25.667  19.217   3.676  0.00  0.00     0.017 A 
ENDROOT
BRANCH   7  10
HETATM   10  S   UNK N   1      21.618  19.723   3.072  0.00  0.00     0.263 S 
HETATM   11  O   UNK N   1      20.741  20.257   4.212  0.00  0.00    -0.200 OA
HETATM   12  O   UNK N   1      21.749  20.984   2.204  0.00  0.00    -0.200 OA
BRANCH  10  13
HETATM   13  N   UNK N   1      20.557  18.685   2.154  0.00  0.00    -0.281 N 
HETATM   14  H   UNK N   1      20.184  19.010   1.303  0.00  0.00     0.179 HD
BRANCH  13  15
HETATM   15  C   UNK N   1      20.218  17.393   2.604  0.00  0.00     0.042 A 
HETATM   16  C   UNK N   1      20.370  16.319   1.732  0.00  0.00     0.031 A 
HETATM   17  C   UNK N   1      20.014  15.040   2.143  0.00  0.00     0.027 A 
HETATM   18  C   UNK N   1      19.518  14.818   3.435  0.00  0.00     0.080 A 
HETATM   19  C   UNK N   1      19.363  15.891   4.315  0.00  0.00     0.027 A 
HETATM   20  C   UNK N   1      19.706  17.180   3.894  0.00  0.00     0.031 A 
BRANCH  18  21
HETATM   21  S   UNK N   1      19.122  13.134   3.901  0.00  0.00     0.264 S 
HETATM   22  O   UNK N   1      20.193  12.675   2.903  0.00  0.00    -0.200 OA
HETATM   23  O   UNK N   1      18.012  12.512   3.042  0.00  0.00    -0.200 OA
BRANCH  21  24
HETATM   24  N   UNK N   1      19.669  11.880   5.003  0.00  0.00    -0.260 N 
HETATM   25  H   UNK N   1      19.209  11.011   4.958  0.00  0.00     0.181 HD
BRANCH  24  26
HETATM   26  C   UNK N   1      20.712  12.004   5.949  0.00  0.00     0.158 A 
HETATM   27  N   UNK N   1      20.801  13.046   6.806  0.00  0.00    -0.345 N 
HETATM   28  C   UNK N   1      21.903  12.952   7.630  0.00  0.00     0.097 A 
ATOM     29  HN  UNK N   1      20.130  13.813   6.841  1.00  0.00     0.167 HD
HETATM   30  C   UNK N   1      22.712  11.816   7.421  0.00  0.00     0.070 A 
HETATM   31  S   UNK N   1      21.972  10.978   6.193  0.00  0.00    -0.064 SA
ENDBRANCH  24  26
ENDBRANCH  21  24
ENDBRANCH  18  21
ENDBRANCH  13  15
ENDBRANCH  10  13
ENDBRANCH   7  10
BRANCH   2  32
HETATM   32  C   UNK N   1      28.114  17.393   4.683  0.00  0.00     0.195 C 
HETATM   33  O   UNK N   1      28.497  17.564   3.535  0.00  0.00    -0.287 OA
BRANCH  32  34
HETATM   34  C   UNK N   1      29.157  17.415   5.765  0.00  0.00     0.018 A 
HETATM   35  C   UNK N   1      30.519  17.210   5.466  0.00  0.00     0.037 A 
HETATM   36  C   UNK N   1      31.483  17.234   6.492  0.00  0.00     0.046 A 
HETATM   37 Br   UNK N   1      33.326  16.955   6.068  0.00  0.00    -0.048 Br
HETATM   38  C   UNK N   1      31.090  17.461   7.821  0.00  0.00     0.100 A 
HETATM   39  C   UNK N   1      29.743  17.668   8.110  0.00  0.00     0.046 A 
HETATM   40 Br   UNK N   1      29.131  17.979   9.894  0.00  0.00    -0.048 Br
HETATM   41  C   UNK N   1      28.811  17.647   7.085  0.00  0.00     0.037 A 
BRANCH  38  42
HETATM   42  O   UNK N   1      32.001  17.482   8.810  0.00  0.00    -0.358 OA
HETATM   43  H   UNK N   1      32.862  17.811   8.647  0.00  0.00     0.217 HD
ENDBRANCH  38  42
ENDBRANCH  32  34
ENDBRANCH   2  32
BRANCH   1  44
HETATM   44  C   UNK N   1      26.335  14.884   6.221  0.00  0.00     0.061 C 
HETATM   45  C   UNK N   1      25.462  14.510   7.406  0.00  0.00     0.012 C 
ENDBRANCH   1  44
TORSDOF 10
ENDMDL
MODEL 6
REMARK VINA RESULT:      -8.2      4.428      8.869
REMARK  10 active torsions:
REMARK  status: ('A' for Active; 'I' for Inactive)
REMARK    1  A    between atoms: C_2  and  C_3 
REMARK    2  A    between atoms: C_4  and  C_5 
REMARK    3  A    between atoms: C_5  and  C_7 
REMARK    4  A    between atoms: C_11  and  O_12 
REMARK    5  A    between atoms: C_20  and  S_23 
REMARK    6  A    between atoms: S_23  and  N_26 
REMARK    7  A    between atoms: N_26  and  C_27 
REMARK    8  A    between atoms: C_30  and  S_33 
REMARK    9  A    between atoms: S_33  and  N_36 
REMARK   10  A    between atoms: N_36  and  C_37 
ROOT
HETATM    1  C   UNK N   1      19.707  15.246   4.456  0.00  0.00     0.068 A 
HETATM    2  C   UNK N   1      20.277  15.799   5.638  0.00  0.00     0.058 A 
HETATM    3  C   UNK N   1      20.866  16.989   5.192  0.00  0.00     0.015 A 
HETATM    4  C   UNK N   1      20.618  17.063   3.850  0.00  0.00     0.088 A 
HETATM    5  O   UNK N   1      19.940  16.045   3.438  0.00  0.00    -0.313 OA
HETATM    6  C   UNK N   1      21.094  18.078   3.051  0.00  0.00     0.063 A 
HETATM    7  C   UNK N   1      21.860  19.075   3.639  0.00  0.00     0.082 A 
HETATM    8  C   UNK N   1      22.126  19.040   5.033  0.00  0.00     0.026 A 
HETATM    9  C   UNK N   1      21.612  17.986   5.831  0.00  0.00     0.017 A 
ENDROOT
BRANCH   7  10
HETATM   10  S   UNK N   1      22.640  20.235   2.530  0.00  0.00     0.263 S 
HETATM   11  O   UNK N   1      21.890  20.303   1.192  0.00  0.00    -0.200 OA
HETATM   12  O   UNK N   1      22.468  21.680   3.021  0.00  0.00    -0.200 OA
BRANCH  10  13
HETATM   13  N   UNK N   1      24.324  20.136   2.082  0.00  0.00    -0.281 N 
HETATM   14  H   UNK N   1      24.592  20.375   1.164  0.00  0.00     0.179 HD
BRANCH  13  15
HETATM   15  C   UNK N   1      25.309  19.721   3.000  0.00  0.00     0.042 A 
HETATM   16  C   UNK N   1      25.306  18.399   3.433  0.00  0.00     0.031 A 
HETATM   17  C   UNK N   1      26.249  17.975   4.362  0.00  0.00     0.027 A 
HETATM   18  C   UNK N   1      27.214  18.863   4.856  0.00  0.00     0.080 A 
HETATM   19  C   UNK N   1      27.223  20.191   4.425  0.00  0.00     0.027 A 
HETATM   20  C   UNK N   1      26.262  20.621   3.503  0.00  0.00     0.031 A 
BRANCH  18  21
HETATM   21  S   UNK N   1      28.420  18.227   6.018  0.00  0.00     0.264 S 
HETATM   22  O   UNK N   1      27.425  17.103   6.335  0.00  0.00    -0.200 OA
HETATM   23  O   UNK N   1      28.263  18.805   7.431  0.00  0.00    -0.200 OA
BRANCH  21  24
HETATM   24  N   UNK N   1      29.718  17.045   6.098  0.00  0.00    -0.260 N 
HETATM   25  H   UNK N   1      29.562  16.177   5.661  0.00  0.00     0.181 HD
BRANCH  24  26
HETATM   26  C   UNK N   1      30.967  17.228   6.733  0.00  0.00     0.158 A 
HETATM   27  N   UNK N   1      31.081  17.608   8.025  0.00  0.00    -0.345 N 
HETATM   28  C   UNK N   1      32.397  17.725   8.421  0.00  0.00     0.097 A 
ATOM     29  HN  UNK N   1      30.286  17.788   8.638  1.00  0.00     0.167 HD
HETATM   30  C   UNK N   1      33.351  17.437   7.423  0.00  0.00     0.070 A 
HETATM   31  S   UNK N   1      32.462  17.038   6.077  0.00  0.00    -0.064 SA
ENDBRANCH  24  26
ENDBRANCH  21  24
ENDBRANCH  18  21
ENDBRANCH  13  15
ENDBRANCH  10  13
ENDBRANCH   7  10
BRANCH   2  32
HETATM   32  C   UNK N   1      20.343  15.310   7.078  0.00  0.00     0.195 C 
HETATM   33  O   UNK N   1      19.378  15.530   7.796  0.00  0.00    -0.287 OA
BRANCH  32  34
HETATM   34  C   UNK N   1      21.502  14.578   7.692  0.00  0.00     0.018 A 
HETATM   35  C   UNK N   1      22.779  14.609   7.097  0.00  0.00     0.037 A 
HETATM   36  C   UNK N   1      23.856  13.918   7.686  0.00  0.00     0.046 A 
HETATM   37 Br   UNK N   1      25.580  13.972   6.865  0.00  0.00    -0.048 Br
HETATM   38  C   UNK N   1      23.659  13.191   8.871  0.00  0.00     0.100 A 
HETATM   39  C   UNK N   1      22.396  13.167   9.459  0.00  0.00     0.046 A 
HETATM   40 Br   UNK N   1      22.050  12.198  11.069  0.00  0.00    -0.048 Br
HETATM   41  C   UNK N   1      21.353  13.860   8.866  0.00  0.00     0.037 A 
BRANCH  38  42
HETATM   42  O   UNK N   1      24.678  12.522   9.441  0.00  0.00    -0.358 OA
HETATM   43  H   UNK N   1      25.357  12.160   8.907  0.00  0.00     0.217 HD
ENDBRANCH  38  42
ENDBRANCH  32  34
ENDBRANCH   2  32
BRANCH   1  44
HETATM   44  C   UNK N   1      18.982  13.962   4.222  0.00  0.00     0.061 C 
HETATM   45  C   UNK N   1      19.158  13.439   2.808  0.00  0.00     0.012 C 
ENDBRANCH   1  44
TORSDOF 10
ENDMDL
MODEL 7
REMARK VINA RESULT:      -8.2      7.382     12.326
REMARK  10 active torsions:
REMARK  status: ('A' for Active; 'I' for Inactive)
REMARK    1  A    between atoms: C_2  and  C_3 
REMARK    2  A    between atoms: C_4  and  C_5 
REMARK    3  A    between atoms: C_5  and  C_7 
REMARK    4  A    between atoms: C_11  and  O_12 
REMARK    5  A    between atoms: C_20  and  S_23 
REMARK    6  A    between atoms: S_23  and  N_26 
REMARK    7  A    between atoms: N_26  and  C_27 
REMARK    8  A    between atoms: C_30  and  S_33 
REMARK    9  A    between atoms: S_33  and  N_36 
REMARK   10  A    between atoms: N_36  and  C_37 
ROOT
HETATM    1  C   UNK N   1      25.596  16.716   5.430  0.00  0.00     0.068 A 
HETATM    2  C   UNK N   1      26.322  17.769   4.806  0.00  0.00     0.058 A 
HETATM    3  C   UNK N   1      25.320  18.590   4.274  0.00  0.00     0.015 A 
HETATM    4  C   UNK N   1      24.128  18.005   4.603  0.00  0.00     0.088 A 
HETATM    5  O   UNK N   1      24.306  16.920   5.278  0.00  0.00    -0.313 OA
HETATM    6  C   UNK N   1      22.909  18.501   4.200  0.00  0.00     0.063 A 
HETATM    7  C   UNK N   1      22.890  19.654   3.426  0.00  0.00     0.082 A 
HETATM    8  C   UNK N   1      24.106  20.298   3.077  0.00  0.00     0.026 A 
HETATM    9  C   UNK N   1      25.346  19.767   3.517  0.00  0.00     0.017 A 
ENDROOT
BRANCH   7  10
HETATM   10  S   UNK N   1      21.311  20.124   2.742  0.00  0.00     0.263 S 
HETATM   11  O   UNK N   1      20.382  20.673   3.834  0.00  0.00    -0.200 OA
HETATM   12  O   UNK N   1      21.439  21.358   1.837  0.00  0.00    -0.200 OA
BRANCH  10  13
HETATM   13  N   UNK N   1      20.307  19.029   1.826  0.00  0.00    -0.281 N 
HETATM   14  H   UNK N   1      19.891  19.343   0.991  0.00  0.00     0.179 HD
BRANCH  13  15
HETATM   15  C   UNK N   1      20.076  17.706   2.255  0.00  0.00     0.042 A 
HETATM   16  C   UNK N   1      19.691  17.488   3.575  0.00  0.00     0.031 A 
HETATM   17  C   UNK N   1      19.487  16.190   4.029  0.00  0.00     0.027 A 
HETATM   18  C   UNK N   1      19.649  15.098   3.165  0.00  0.00     0.080 A 
HETATM   19  C   UNK N   1      20.035  15.310   1.839  0.00  0.00     0.027 A 
HETATM   20  C   UNK N   1      20.256  16.616   1.389  0.00  0.00     0.031 A 
BRANCH  18  21
HETATM   21  S   UNK N   1      19.326  13.461   3.816  0.00  0.00     0.264 S 
HETATM   22  O   UNK N   1      18.544  13.175   2.528  0.00  0.00    -0.200 OA
HETATM   23  O   UNK N   1      18.039  13.384   4.650  0.00  0.00    -0.200 OA
BRANCH  21  24
HETATM   24  N   UNK N   1      19.974  11.830   3.738  0.00  0.00    -0.260 N 
HETATM   25  H   UNK N   1      19.933  11.291   4.561  0.00  0.00     0.181 HD
BRANCH  24  26
HETATM   26  C   UNK N   1      20.548  11.220   2.599  0.00  0.00     0.158 A 
HETATM   27  N   UNK N   1      21.248  11.914   1.674  0.00  0.00    -0.345 N 
HETATM   28  C   UNK N   1      21.707  11.108   0.653  0.00  0.00     0.097 A 
ATOM     29  HN  UNK N   1      21.417  12.919   1.723  1.00  0.00     0.167 HD
HETATM   30  C   UNK N   1      21.362   9.745   0.766  0.00  0.00     0.070 A 
HETATM   31  S   UNK N   1      20.489   9.634   2.174  0.00  0.00    -0.064 SA
ENDBRANCH  24  26
ENDBRANCH  21  24
ENDBRANCH  18  21
ENDBRANCH  13  15
ENDBRANCH  10  13
ENDBRANCH   7  10
BRANCH   2  32
HETATM   32  C   UNK N   1      27.812  18.040   4.642  0.00  0.00     0.195 C 
HETATM   33  O   UNK N   1      28.181  18.570   3.605  0.00  0.00    -0.287 OA
BRANCH  32  34
HETATM   34  C   UNK N   1      28.870  17.705   5.655  0.00  0.00     0.018 A 
HETATM   35  C   UNK N   1      30.032  16.998   5.287  0.00  0.00     0.037 A 
HETATM   36  C   UNK N   1      31.014  16.692   6.249  0.00  0.00     0.046 A 
HETATM   37 Br   UNK N   1      32.583  15.733   5.731  0.00  0.00    -0.048 Br
HETATM   38  C   UNK N   1      30.837  17.090   7.584  0.00  0.00     0.100 A 
HETATM   39  C   UNK N   1      29.689  17.794   7.943  0.00  0.00     0.046 A 
HETATM   40 Br   UNK N   1      29.376  18.365   9.739  0.00  0.00    -0.048 Br
HETATM   41  C   UNK N   1      28.739  18.089   6.978  0.00  0.00     0.037 A 
BRANCH  38  42
HETATM   42  O   UNK N   1      31.765  16.800   8.513  0.00  0.00    -0.358 OA
HETATM   43  H   UNK N   1      32.395  17.445   8.763  0.00  0.00     0.217 HD
ENDBRANCH  38  42
ENDBRANCH  32  34
ENDBRANCH   2  32
BRANCH   1  44
HETATM   44  C   UNK N   1      26.060  15.485   6.135  0.00  0.00     0.061 C 
HETATM   45  C   UNK N   1      26.588  14.428   5.182  0.00  0.00     0.012 C 
ENDBRANCH   1  44
TORSDOF 10
ENDMDL
MODEL 8
REMARK VINA RESULT:      -8.1      5.715     13.222
REMARK  10 active torsions:
REMARK  status: ('A' for Active; 'I' for Inactive)
REMARK    1  A    between atoms: C_2  and  C_3 
REMARK    2  A    between atoms: C_4  and  C_5 
REMARK    3  A    between atoms: C_5  and  C_7 
REMARK    4  A    between atoms: C_11  and  O_12 
REMARK    5  A    between atoms: C_20  and  S_23 
REMARK    6  A    between atoms: S_23  and  N_26 
REMARK    7  A    between atoms: N_26  and  C_27 
REMARK    8  A    between atoms: C_30  and  S_33 
REMARK    9  A    between atoms: S_33  and  N_36 
REMARK   10  A    between atoms: N_36  and  C_37 
ROOT
HETATM    1  C   UNK N   1      34.981  12.381  11.569  0.00  0.00     0.068 A 
HETATM    2  C   UNK N   1      35.581  13.386  12.379  0.00  0.00     0.058 A 
HETATM    3  C   UNK N   1      35.337  14.569  11.669  0.00  0.00     0.015 A 
HETATM    4  C   UNK N   1      34.641  14.209  10.549  0.00  0.00     0.088 A 
HETATM    5  O   UNK N   1      34.439  12.935  10.507  0.00  0.00    -0.313 OA
HETATM    6  C   UNK N   1      34.269  15.106   9.573  0.00  0.00     0.063 A 
HETATM    7  C   UNK N   1      34.612  16.441   9.740  0.00  0.00     0.082 A 
HETATM    8  C   UNK N   1      35.321  16.855  10.898  0.00  0.00     0.026 A 
HETATM    9  C   UNK N   1      35.682  15.907  11.891  0.00  0.00     0.017 A 
ENDROOT
BRANCH   7  10
HETATM   10  S   UNK N   1      34.309  17.518   8.350  0.00  0.00     0.263 S 
HETATM   11  O   UNK N   1      32.934  18.189   8.466  0.00  0.00    -0.200 OA
HETATM   12  O   UNK N   1      35.226  18.750   8.388  0.00  0.00    -0.200 OA
BRANCH  10  13
HETATM   13  N   UNK N   1      34.393  16.977   6.693  0.00  0.00    -0.281 N 
HETATM   14  H   UNK N   1      35.270  16.751   6.304  0.00  0.00     0.179 HD
BRANCH  13  15
HETATM   15  C   UNK N   1      33.237  16.859   5.896  0.00  0.00     0.042 A 
HETATM   16  C   UNK N   1      32.255  15.948   6.272  0.00  0.00     0.031 A 
HETATM   17  C   UNK N   1      31.120  15.791   5.485  0.00  0.00     0.027 A 
HETATM   18  C   UNK N   1      30.946  16.556   4.323  0.00  0.00     0.080 A 
HETATM   19  C   UNK N   1      31.927  17.473   3.941  0.00  0.00     0.027 A 
HETATM   20  C   UNK N   1      33.077  17.616   4.724  0.00  0.00     0.031 A 
BRANCH  18  21
HETATM   21  S   UNK N   1      29.436  16.326   3.388  0.00  0.00     0.264 S 
HETATM   22  O   UNK N   1      28.964  15.387   4.506  0.00  0.00    -0.200 OA
HETATM   23  O   UNK N   1      29.510  15.157   2.396  0.00  0.00    -0.200 OA
BRANCH  21  24
HETATM   24  N   UNK N   1      27.802  16.966   3.292  0.00  0.00    -0.260 N 
HETATM   25  H   UNK N   1      27.165  16.485   2.715  0.00  0.00     0.181 HD
BRANCH  24  26
HETATM   26  C   UNK N   1      27.319  18.109   3.968  0.00  0.00     0.158 A 
HETATM   27  N   UNK N   1      27.915  19.319   3.877  0.00  0.00    -0.345 N 
HETATM   28  C   UNK N   1      27.267  20.279   4.626  0.00  0.00     0.097 A 
ATOM     29  HN  UNK N   1      28.749  19.502   3.318  1.00  0.00     0.167 HD
HETATM   30  C   UNK N   1      26.135  19.824   5.332  0.00  0.00     0.070 A 
HETATM   31  S   UNK N   1      26.011  18.210   4.958  0.00  0.00    -0.064 SA
ENDBRANCH  24  26
ENDBRANCH  21  24
ENDBRANCH  18  21
ENDBRANCH  13  15
ENDBRANCH  10  13
ENDBRANCH   7  10
BRANCH   2  32
HETATM   32  C   UNK N   1      36.361  13.329  13.686  0.00  0.00     0.195 C 
HETATM   33  O   UNK N   1      36.783  14.383  14.139  0.00  0.00    -0.287 OA
BRANCH  32  34
HETATM   34  C   UNK N   1      36.657  12.079  14.464  0.00  0.00     0.018 A 
HETATM   35  C   UNK N   1      37.618  11.152  14.013  0.00  0.00     0.037 A 
HETATM   36  C   UNK N   1      37.884   9.985  14.754  0.00  0.00     0.046 A 
HETATM   37 Br   UNK N   1      39.191   8.740  14.128  0.00  0.00    -0.048 Br
HETATM   38  C   UNK N   1      37.189   9.738  15.949  0.00  0.00     0.100 A 
HETATM   39  C   UNK N   1      36.244  10.660  16.394  0.00  0.00     0.046 A 
HETATM   40 Br   UNK N   1      35.255  10.393  18.007  0.00  0.00    -0.048 Br
HETATM   41  C   UNK N   1      36.002  11.805  15.652  0.00  0.00     0.037 A 
BRANCH  38  42
HETATM   42  O   UNK N   1      37.430   8.625  16.665  0.00  0.00    -0.358 OA
HETATM   43  H   UNK N   1      36.844   7.898  16.610  0.00  0.00     0.217 HD
ENDBRANCH  38  42
ENDBRANCH  32  34
ENDBRANCH   2  32
BRANCH   1  44
HETATM   44  C   UNK N   1      34.929  10.897  11.722  0.00  0.00     0.061 C 
HETATM   45  C   UNK N   1      33.905  10.450  12.750  0.00  0.00     0.012 C 
ENDBRANCH   1  44
TORSDOF 10
ENDMDL
MODEL 9
REMARK VINA RESULT:      -8.1      2.650      3.911
REMARK  10 active torsions:
REMARK  status: ('A' for Active; 'I' for Inactive)
REMARK    1  A    between atoms: C_2  and  C_3 
REMARK    2  A    between atoms: C_4  and  C_5 
REMARK    3  A    between atoms: C_5  and  C_7 
REMARK    4  A    between atoms: C_11  and  O_12 
REMARK    5  A    between atoms: C_20  and  S_23 
REMARK    6  A    between atoms: S_23  and  N_26 
REMARK    7  A    between atoms: N_26  and  C_27 
REMARK    8  A    between atoms: C_30  and  S_33 
REMARK    9  A    between atoms: S_33  and  N_36 
REMARK   10  A    between atoms: N_36  and  C_37 
ROOT
HETATM    1  C   UNK N   1      23.676  14.508   6.495  0.00  0.00     0.068 A 
HETATM    2  C   UNK N   1      23.547  15.803   5.917  0.00  0.00     0.058 A 
HETATM    3  C   UNK N   1      24.848  16.106   5.497  0.00  0.00     0.015 A 
HETATM    4  C   UNK N   1      25.622  15.028   5.828  0.00  0.00     0.088 A 
HETATM    5  O   UNK N   1      24.925  14.107   6.404  0.00  0.00    -0.313 OA
HETATM    6  C   UNK N   1      26.981  14.983   5.618  0.00  0.00     0.063 A 
HETATM    7  C   UNK N   1      27.594  16.084   5.036  0.00  0.00     0.082 A 
HETATM    8  C   UNK N   1      26.823  17.216   4.664  0.00  0.00     0.026 A 
HETATM    9  C   UNK N   1      25.421  17.227   4.884  0.00  0.00     0.017 A 
ENDROOT
BRANCH   7  10
HETATM   10  S   UNK N   1      29.378  16.069   4.995  0.00  0.00     0.263 S 
HETATM   11  O   UNK N   1      29.931  14.809   5.675  0.00  0.00    -0.200 OA
HETATM   12  O   UNK N   1      29.902  15.868   3.565  0.00  0.00    -0.200 OA
BRANCH  10  13
HETATM   13  N   UNK N   1      30.355  17.370   5.626  0.00  0.00    -0.281 N 
HETATM   14  H   UNK N   1      30.158  18.296   5.352  0.00  0.00     0.179 HD
BRANCH  13  15
HETATM   15  C   UNK N   1      31.421  17.128   6.515  0.00  0.00     0.042 A 
HETATM   16  C   UNK N   1      32.716  17.077   6.010  0.00  0.00     0.031 A 
HETATM   17  C   UNK N   1      33.780  16.809   6.863  0.00  0.00     0.027 A 
HETATM   18  C   UNK N   1      33.563  16.606   8.233  0.00  0.00     0.080 A 
HETATM   19  C   UNK N   1      32.266  16.657   8.747  0.00  0.00     0.027 A 
HETATM   20  C   UNK N   1      31.194  16.909   7.884  0.00  0.00     0.031 A 
BRANCH  18  21
HETATM   21  S   UNK N   1      34.992  16.309   9.271  0.00  0.00     0.264 S 
HETATM   22  O   UNK N   1      34.020  15.835  10.360  0.00  0.00    -0.200 OA
HETATM   23  O   UNK N   1      35.392  17.527  10.116  0.00  0.00    -0.200 OA
BRANCH  21  24
HETATM   24  N   UNK N   1      36.076  15.002   9.727  0.00  0.00    -0.260 N 
HETATM   25  H   UNK N   1      36.629  14.610   9.014  0.00  0.00     0.181 HD
BRANCH  24  26
HETATM   26  C   UNK N   1      36.225  14.465  11.026  0.00  0.00     0.158 A 
HETATM   27  N   UNK N   1      36.193  15.229  12.141  0.00  0.00    -0.345 N 
HETATM   28  C   UNK N   1      36.365  14.485  13.289  0.00  0.00     0.097 A 
ATOM     29  HN  UNK N   1      36.059  16.240  12.135  1.00  0.00     0.167 HD
HETATM   30  C   UNK N   1      36.542  13.101  13.085  0.00  0.00     0.070 A 
HETATM   31  S   UNK N   1      36.462  12.893  11.439  0.00  0.00    -0.064 SA
ENDBRANCH  24  26
ENDBRANCH  21  24
ENDBRANCH  18  21
ENDBRANCH  13  15
ENDBRANCH  10  13
ENDBRANCH   7  10
BRANCH   2  32
HETATM   32  C   UNK N   1      22.367  16.753   5.766  0.00  0.00     0.195 C 
HETATM   33  O   UNK N   1      21.900  17.242   6.784  0.00  0.00    -0.287 OA
BRANCH  32  34
HETATM   34  C   UNK N   1      21.726  17.137   4.463  0.00  0.00     0.018 A 
HETATM   35  C   UNK N   1      21.627  18.488   4.072  0.00  0.00     0.037 A 
HETATM   36  C   UNK N   1      21.023  18.831   2.846  0.00  0.00     0.046 A 
HETATM   37 Br   UNK N   1      20.898  20.667   2.332  0.00  0.00    -0.048 Br
HETATM   38  C   UNK N   1      20.514  17.826   2.008  0.00  0.00     0.100 A 
HETATM   39  C   UNK N   1      20.619  16.492   2.397  0.00  0.00     0.046 A 
HETATM   40 Br   UNK N   1      19.947  15.069   1.313  0.00  0.00    -0.048 Br
HETATM   41  C   UNK N   1      21.223  16.176   3.604  0.00  0.00     0.037 A 
BRANCH  38  42
HETATM   42  O   UNK N   1      19.931  18.140   0.838  0.00  0.00    -0.358 OA
HETATM   43  H   UNK N   1      20.456  18.276   0.075  0.00  0.00     0.217 HD
ENDBRANCH  38  42
ENDBRANCH  32  34
ENDBRANCH   2  32
BRANCH   1  44
HETATM   44  C   UNK N   1      22.679  13.633   7.178  0.00  0.00     0.061 C 
HETATM   45  C   UNK N   1      22.250  14.178   8.529  0.00  0.00     0.012 C 
ENDBRANCH   1  44
TORSDOF 10
ENDMDL
