MODEL 1
REMARK VINA RESULT:      -5.3      0.000      0.000
REMARK  2 active torsions:
REMARK  status: ('A' for Active; 'I' for Inactive)
REMARK    1  A    between atoms: O_2  and  C_3 
REMARK    2  A    between atoms: C_7  and  C_9 
REMARK       I    between atoms: C_9  and  N_10 
ROOT
HETATM    1  C   UNK N   1      20.807  13.517   9.918  0.00  0.00     0.069 A 
HETATM    2  C   UNK N   1      20.491  12.655  10.983  0.00  0.00     0.037 A 
HETATM    3  C   UNK N   1      21.502  11.940  11.633  0.00  0.00     0.004 A 
HETATM    4  C   UNK N   1      22.831  12.081  11.224  0.00  0.00     0.017 A 
HETATM    5  C   UNK N   1      23.158  12.937  10.163  0.00  0.00     0.034 A 
HETATM    6  C   UNK N   1      22.139  13.651   9.516  0.00  0.00     0.053 A 
ENDROOT
BRANCH   5   7
HETATM    7  C   UNK N   1      24.563  13.091   9.725  0.00  0.00     0.249 C 
HETATM    8  N   UNK N   1      25.536  13.329  10.628  0.00  0.00    -0.366 N 
HETATM    9  H   UNK N   1      26.470  13.430  10.331  0.00  0.00     0.159 HD
HETATM   10  H   UNK N   1      25.314  13.400  11.585  0.00  0.00     0.159 HD
HETATM   11  O   UNK N   1      24.850  13.004   8.542  0.00  0.00    -0.268 OA
ENDBRANCH   5   7
BRANCH   1  12
HETATM   12  O   UNK N   1      19.853  14.223   9.267  0.00  0.00    -0.356 OA
HETATM   13  C   UNK N   1      20.024  15.527   8.861  0.00  0.00     0.210 C 
ENDBRANCH   1  12
TORSDOF 2
ENDMDL
MODEL 2
REMARK VINA RESULT:      -5.0      9.570     11.586
REMARK  2 active torsions:
REMARK  status: ('A' for Active; 'I' for Inactive)
REMARK    1  A    between atoms: O_2  and  C_3 
REMARK    2  A    between atoms: C_7  and  C_9 
REMARK       I    between atoms: C_9  and  N_10 
ROOT
HETATM    1  C   UNK N   1      31.036  17.438   7.578  0.00  0.00     0.069 A 
HETATM    2  C   UNK N   1      31.208  17.144   6.213  0.00  0.00     0.037 A 
HETATM    3  C   UNK N   1      32.482  17.186   5.640  0.00  0.00     0.004 A 
HETATM    4  C   UNK N   1      33.591  17.520   6.423  0.00  0.00     0.017 A 
HETATM    5  C   UNK N   1      33.432  17.814   7.785  0.00  0.00     0.034 A 
HETATM    6  C   UNK N   1      32.151  17.771   8.354  0.00  0.00     0.053 A 
ENDROOT
BRANCH   5   7
HETATM    7  C   UNK N   1      34.600  18.169   8.620  0.00  0.00     0.249 C 
HETATM    8  N   UNK N   1      34.964  17.381   9.653  0.00  0.00    -0.366 N 
HETATM    9  H   UNK N   1      35.743  17.622  10.205  0.00  0.00     0.159 HD
HETATM   10  H   UNK N   1      34.451  16.565   9.855  0.00  0.00     0.159 HD
HETATM   11  O   UNK N   1      35.244  19.177   8.378  0.00  0.00    -0.268 OA
ENDBRANCH   5   7
BRANCH   1  12
HETATM   12  O   UNK N   1      29.816  17.407   8.164  0.00  0.00    -0.356 OA
HETATM   13  C   UNK N   1      29.482  18.181   9.253  0.00  0.00     0.210 C 
ENDBRANCH   1  12
TORSDOF 2
ENDMDL
MODEL 3
REMARK VINA RESULT:      -5.0     13.730     14.627
REMARK  2 active torsions:
REMARK  status: ('A' for Active; 'I' for Inactive)
REMARK    1  A    between atoms: O_2  and  C_3 
REMARK    2  A    between atoms: C_7  and  C_9 
REMARK       I    between atoms: C_9  and  N_10 
ROOT
HETATM    1  C   UNK N   1      34.687  12.220  15.230  0.00  0.00     0.069 A 
HETATM    2  C   UNK N   1      34.728  10.825  15.402  0.00  0.00     0.037 A 
HETATM    3  C   UNK N   1      34.943  10.280  16.671  0.00  0.00     0.004 A 
HETATM    4  C   UNK N   1      35.118  11.120  17.774  0.00  0.00     0.017 A 
HETATM    5  C   UNK N   1      35.079  12.513  17.614  0.00  0.00     0.034 A 
HETATM    6  C   UNK N   1      34.863  13.054  16.338  0.00  0.00     0.053 A 
ENDROOT
BRANCH   5   7
HETATM    7  C   UNK N   1      35.264  13.409  18.776  0.00  0.00     0.249 C 
HETATM    8  N   UNK N   1      35.291  12.907  20.027  0.00  0.00    -0.366 N 
HETATM    9  H   UNK N   1      35.414  13.508  20.797  0.00  0.00     0.159 HD
HETATM   10  H   UNK N   1      35.188  11.938  20.172  0.00  0.00     0.159 HD
HETATM   11  O   UNK N   1      35.393  14.612  18.609  0.00  0.00    -0.268 OA
ENDBRANCH   5   7
BRANCH   1  12
HETATM   12  O   UNK N   1      34.481  12.781  14.015  0.00  0.00    -0.356 OA
HETATM   13  C   UNK N   1      35.415  13.565  13.377  0.00  0.00     0.210 C 
ENDBRANCH   1  12
TORSDOF 2
ENDMDL
MODEL 4
REMARK VINA RESULT:      -5.0     18.247     19.789
REMARK  2 active torsions:
REMARK  status: ('A' for Active; 'I' for Inactive)
REMARK    1  A    between atoms: O_2  and  C_3 
REMARK    2  A    between atoms: C_7  and  C_9 
REMARK       I    between atoms: C_9  and  N_10 
ROOT
HETATM    1  C   UNK N   1      25.856  27.764  -3.899  0.00  0.00     0.069 A 
HETATM    2  C   UNK N   1      25.082  27.607  -5.063  0.00  0.00     0.037 A 
HETATM    3  C   UNK N   1      25.031  26.369  -5.712  0.00  0.00     0.004 A 
HETATM    4  C   UNK N   1      25.750  25.284  -5.205  0.00  0.00     0.017 A 
HETATM    5  C   UNK N   1      26.525  25.429  -4.045  0.00  0.00     0.034 A 
HETATM    6  C   UNK N   1      26.572  26.672  -3.399  0.00  0.00     0.053 A 
ENDROOT
BRANCH   5   7
HETATM    7  C   UNK N   1      27.289  24.284  -3.502  0.00  0.00     0.249 C 
HETATM    8  N   UNK N   1      28.337  23.778  -4.185  0.00  0.00    -0.366 N 
HETATM    9  H   UNK N   1      28.842  23.016  -3.819  0.00  0.00     0.159 HD
HETATM   10  H   UNK N   1      28.598  24.171  -5.050  0.00  0.00     0.159 HD
HETATM   11  O   UNK N   1      26.975  23.789  -2.432  0.00  0.00    -0.268 OA
ENDBRANCH   5   7
BRANCH   1  12
HETATM   12  O   UNK N   1      25.927  28.948  -3.247  0.00  0.00    -0.356 OA
HETATM   13  C   UNK N   1      27.106  29.631  -3.048  0.00  0.00     0.210 C 
ENDBRANCH   1  12
TORSDOF 2
ENDMDL
MODEL 5
REMARK VINA RESULT:      -4.6     14.468     15.320
REMARK  2 active torsions:
REMARK  status: ('A' for Active; 'I' for Inactive)
REMARK    1  A    between atoms: O_2  and  C_3 
REMARK    2  A    between atoms: C_7  and  C_9 
REMARK       I    between atoms: C_9  and  N_10 
ROOT
HETATM    1  C   UNK N   1      35.439  11.051  18.152  0.00  0.00     0.069 A 
HETATM    2  C   UNK N   1      35.188  11.995  19.164  0.00  0.00     0.037 A 
HETATM    3  C   UNK N   1      35.147  13.359  18.858  0.00  0.00     0.004 A 
HETATM    4  C   UNK N   1      35.355  13.788  17.544  0.00  0.00     0.017 A 
HETATM    5  C   UNK N   1      35.606  12.855  16.527  0.00  0.00     0.034 A 
HETATM    6  C   UNK N   1      35.646  11.489  16.841  0.00  0.00     0.053 A 
ENDROOT
BRANCH   5   7
HETATM    7  C   UNK N   1      35.827  13.301  15.135  0.00  0.00     0.249 C 
HETATM    8  N   UNK N   1      37.076  13.550  14.688  0.00  0.00    -0.366 N 
HETATM    9  H   UNK N   1      37.217  13.847  13.760  0.00  0.00     0.159 HD
HETATM   10  H   UNK N   1      37.846  13.434  15.290  0.00  0.00     0.159 HD
HETATM   11  O   UNK N   1      34.879  13.448  14.379  0.00  0.00    -0.268 OA
ENDBRANCH   5   7
BRANCH   1  12
HETATM   12  O   UNK N   1      35.485   9.723  18.414  0.00  0.00    -0.356 OA
HETATM   13  C   UNK N   1      34.365   8.965  18.669  0.00  0.00     0.210 C 
ENDBRANCH   1  12
TORSDOF 2
ENDMDL
MODEL 6
REMARK VINA RESULT:      -4.6      2.341      4.406
REMARK  2 active torsions:
REMARK  status: ('A' for Active; 'I' for Inactive)
REMARK    1  A    between atoms: O_2  and  C_3 
REMARK    2  A    between atoms: C_7  and  C_9 
REMARK       I    between atoms: C_9  and  N_10 
ROOT
HETATM    1  C   UNK N   1      23.403  12.399  10.511  0.00  0.00     0.069 A 
HETATM    2  C   UNK N   1      24.225  12.482   9.372  0.00  0.00     0.037 A 
HETATM    3  C   UNK N   1      23.803  13.204   8.252  0.00  0.00     0.004 A 
HETATM    4  C   UNK N   1      22.562  13.847   8.261  0.00  0.00     0.017 A 
HETATM    5  C   UNK N   1      21.734  13.771   9.391  0.00  0.00     0.034 A 
HETATM    6  C   UNK N   1      22.163  13.044  10.511  0.00  0.00     0.053 A 
ENDROOT
BRANCH   5   7
HETATM    7  C   UNK N   1      20.419  14.448   9.408  0.00  0.00     0.249 C 
HETATM    8  N   UNK N   1      20.279  15.678   8.871  0.00  0.00    -0.366 N 
HETATM    9  H   UNK N   1      19.401  16.125   8.885  0.00  0.00     0.159 HD
HETATM   10  H   UNK N   1      21.055  16.130   8.465  0.00  0.00     0.159 HD
HETATM   11  O   UNK N   1      19.452  13.898   9.908  0.00  0.00    -0.268 OA
ENDBRANCH   5   7
BRANCH   1  12
HETATM   12  O   UNK N   1      23.781  11.707  11.612  0.00  0.00    -0.356 OA
HETATM   13  C   UNK N   1      23.186  11.864  12.843  0.00  0.00     0.210 C 
ENDBRANCH   1  12
TORSDOF 2
ENDMDL
MODEL 7
REMARK VINA RESULT:      -4.5      7.881     10.063
REMARK  2 active torsions:
REMARK  status: ('A' for Active; 'I' for Inactive)
REMARK    1  A    between atoms: O_2  and  C_3 
REMARK    2  A    between atoms: C_7  and  C_9 
REMARK       I    between atoms: C_9  and  N_10 
ROOT
HETATM    1  C   UNK N   1      30.908  16.964   6.413  0.00  0.00     0.069 A 
HETATM    2  C   UNK N   1      32.063  17.321   7.132  0.00  0.00     0.037 A 
HETATM    3  C   UNK N   1      31.952  17.889   8.404  0.00  0.00     0.004 A 
HETATM    4  C   UNK N   1      30.691  18.104   8.967  0.00  0.00     0.017 A 
HETATM    5  C   UNK N   1      29.532  17.752   8.260  0.00  0.00     0.034 A 
HETATM    6  C   UNK N   1      29.650  17.183   6.984  0.00  0.00     0.053 A 
ENDROOT
BRANCH   5   7
HETATM    7  C   UNK N   1      28.194  17.976   8.849  0.00  0.00     0.249 C 
HETATM    8  N   UNK N   1      27.490  19.085   8.542  0.00  0.00    -0.366 N 
HETATM    9  H   UNK N   1      26.600  19.229   8.937  0.00  0.00     0.159 HD
HETATM   10  H   UNK N   1      27.867  19.751   7.921  0.00  0.00     0.159 HD
HETATM   11  O   UNK N   1      27.717  17.157   9.619  0.00  0.00    -0.268 OA
ENDBRANCH   5   7
BRANCH   1  12
HETATM   12  O   UNK N   1      30.980  16.413   5.179  0.00  0.00    -0.356 OA
HETATM   13  C   UNK N   1      31.970  16.718   4.272  0.00  0.00     0.210 C 
ENDBRANCH   1  12
TORSDOF 2
ENDMDL
MODEL 8
REMARK VINA RESULT:      -4.3     13.800     15.610
REMARK  2 active torsions:
REMARK  status: ('A' for Active; 'I' for Inactive)
REMARK    1  A    between atoms: O_2  and  C_3 
REMARK    2  A    between atoms: C_7  and  C_9 
REMARK       I    between atoms: C_9  and  N_10 
ROOT
HETATM    1  C   UNK N   1      35.150  11.841  16.640  0.00  0.00     0.069 A 
HETATM    2  C   UNK N   1      35.131  13.239  16.798  0.00  0.00     0.037 A 
HETATM    3  C   UNK N   1      35.203  13.802  18.075  0.00  0.00     0.004 A 
HETATM    4  C   UNK N   1      35.294  12.978  19.200  0.00  0.00     0.017 A 
HETATM    5  C   UNK N   1      35.314  11.583  19.054  0.00  0.00     0.034 A 
HETATM    6  C   UNK N   1      35.242  11.024  17.770  0.00  0.00     0.053 A 
ENDROOT
BRANCH   5   7
HETATM    7  C   UNK N   1      35.410  10.704  20.240  0.00  0.00     0.249 C 
HETATM    8  N   UNK N   1      36.485  10.771  21.053  0.00  0.00    -0.366 N 
HETATM    9  H   UNK N   1      36.543  10.183  21.841  0.00  0.00     0.159 HD
HETATM   10  H   UNK N   1      37.211  11.408  20.859  0.00  0.00     0.159 HD
HETATM   11  O   UNK N   1      34.517   9.911  20.490  0.00  0.00    -0.268 OA
ENDBRANCH   5   7
BRANCH   1  12
HETATM   12  O   UNK N   1      35.083  11.263  15.418  0.00  0.00    -0.356 OA
HETATM   13  C   UNK N   1      33.987  10.555  14.977  0.00  0.00     0.210 C 
ENDBRANCH   1  12
TORSDOF 2
ENDMDL
MODEL 9
REMARK VINA RESULT:      -4.1     13.490     14.455
REMARK  2 active torsions:
REMARK  status: ('A' for Active; 'I' for Inactive)
REMARK    1  A    between atoms: O_2  and  C_3 
REMARK    2  A    between atoms: C_7  and  C_9 
REMARK       I    between atoms: C_9  and  N_10 
ROOT
HETATM    1  C   UNK N   1      36.403  14.106  12.804  0.00  0.00     0.069 A 
HETATM    2  C   UNK N   1      37.067  13.191  11.967  0.00  0.00     0.037 A 
HETATM    3  C   UNK N   1      37.093  13.394  10.584  0.00  0.00     0.004 A 
HETATM    4  C   UNK N   1      36.458  14.508  10.028  0.00  0.00     0.017 A 
HETATM    5  C   UNK N   1      35.793  15.427  10.853  0.00  0.00     0.034 A 
HETATM    6  C   UNK N   1      35.771  15.218  12.239  0.00  0.00     0.053 A 
ENDROOT
BRANCH   5   7
HETATM    7  C   UNK N   1      35.119  16.608  10.272  0.00  0.00     0.249 C 
HETATM    8  N   UNK N   1      33.872  16.503   9.768  0.00  0.00    -0.366 N 
HETATM    9  H   UNK N   1      33.428  17.293   9.383  0.00  0.00     0.159 HD
HETATM   10  H   UNK N   1      33.405  15.636   9.786  0.00  0.00     0.159 HD
HETATM   11  O   UNK N   1      35.688  17.688  10.245  0.00  0.00    -0.268 OA
ENDBRANCH   5   7
BRANCH   1  12
HETATM   12  O   UNK N   1      36.359  13.939  14.146  0.00  0.00    -0.356 OA
HETATM   13  C   UNK N   1      36.866  12.831  14.787  0.00  0.00     0.210 C 
ENDBRANCH   1  12
TORSDOF 2
ENDMDL
