MODEL 1
REMARK VINA RESULT:      -5.3      0.000      0.000
REMARK  2 active torsions:
REMARK  status: ('A' for Active; 'I' for Inactive)
REMARK       I    between atoms: N_12  and  C_6 
REMARK    1  A    between atoms: C_13  and  C_10 
REMARK    2  A    between atoms: N_14  and  C_13 
ROOT
HETATM    1  C   UNK N   1      31.936  16.918   8.224  0.00  0.00     0.137 A 
HETATM    2  C   UNK N   1      32.384  17.240   6.986  0.00  0.00     0.086 A 
HETATM    3  N   UNK N   1      32.755  16.890   9.303  0.00  0.00    -0.176 N 
ATOM      4  HN  UNK N   1      32.395  16.645  10.225  1.00  0.00     0.186 HD
HETATM    5  C   UNK N   1      33.721  17.554   6.793  0.00  0.00     0.274 A 
HETATM    6  C   UNK N   1      34.077  17.198   9.129  0.00  0.00     0.680 A 
HETATM    7  N   UNK N   1      34.557  17.527   7.886  0.00  0.00    -0.155 N 
HETATM    8  N   UNK N   1      30.619  16.644   8.219  0.00  0.00    -0.350 N 
HETATM    9  C   UNK N   1      30.216  16.798   6.929  0.00  0.00     0.099 A 
HETATM   10  C   UNK N   1      31.308  17.171   6.141  0.00  0.00    -0.006 A 
HETATM   11  O   UNK N   1      34.152  17.847   5.692  0.00  0.00    -0.267 OA
HETATM   12  N   UNK N   1      34.954  17.178  10.230  0.00  0.00    -0.234 N 
HETATM   13  H   UNK N   1      35.510  17.746   7.775  0.00  0.00     0.187 HD
HETATM   14  H   UNK N   1      30.062  16.386   8.989  0.00  0.00     0.166 HD
HETATM   15  H   UNK N   1      35.906  17.399  10.107  0.00  0.00     0.174 HD
HETATM   16  H   UNK N   1      34.615  16.942  11.125  0.00  0.00     0.174 HD
ENDROOT
BRANCH  10  17
HETATM   17  C   UNK N   1      31.337  17.448   4.670  0.00  0.00     0.152 C 
BRANCH  17  18
HETATM   18  N   UNK N   1      30.046  17.906   4.190  0.00  0.00    -0.426 N 
HETATM   19  H   UNK N   1      29.873  18.903   4.064  0.00  0.00     0.150 HD
HETATM   20  H   UNK N   1      29.311  17.231   3.980  0.00  0.00     0.150 HD
ENDBRANCH  17  18
ENDBRANCH  10  17
TORSDOF 2
ENDMDL
MODEL 2
REMARK VINA RESULT:      -5.3      9.577     11.901
REMARK  2 active torsions:
REMARK  status: ('A' for Active; 'I' for Inactive)
REMARK       I    between atoms: N_12  and  C_6 
REMARK    1  A    between atoms: C_13  and  C_10 
REMARK    2  A    between atoms: N_14  and  C_13 
ROOT
HETATM    1  C   UNK N   1      21.873  18.087   3.577  0.00  0.00     0.137 A 
HETATM    2  C   UNK N   1      22.499  19.278   3.408  0.00  0.00     0.086 A 
HETATM    3  N   UNK N   1      20.578  17.897   3.227  0.00  0.00    -0.176 N 
ATOM      4  HN  UNK N   1      20.128  16.992   3.363  1.00  0.00     0.186 HD
HETATM    5  C   UNK N   1      21.810  20.350   2.861  0.00  0.00     0.274 A 
HETATM    6  C   UNK N   1      19.885  18.946   2.685  0.00  0.00     0.680 A 
HETATM    7  N   UNK N   1      20.496  20.162   2.503  0.00  0.00    -0.155 N 
HETATM    8  N   UNK N   1      22.693  17.169   4.119  0.00  0.00    -0.350 N 
HETATM    9  C   UNK N   1      23.883  17.800   4.301  0.00  0.00     0.099 A 
HETATM   10  C   UNK N   1      23.782  19.122   3.862  0.00  0.00    -0.006 A 
HETATM   11  O   UNK N   1      22.347  21.431   2.697  0.00  0.00    -0.267 OA
HETATM   12  N   UNK N   1      18.538  18.780   2.310  0.00  0.00    -0.234 N 
HETATM   13  H   UNK N   1      19.986  20.908   2.113  0.00  0.00     0.187 HD
HETATM   14  H   UNK N   1      22.475  16.234   4.339  0.00  0.00     0.166 HD
HETATM   15  H   UNK N   1      18.039  19.534   1.920  0.00  0.00     0.174 HD
HETATM   16  H   UNK N   1      18.095  17.910   2.439  0.00  0.00     0.174 HD
ENDROOT
BRANCH  10  17
HETATM   17  C   UNK N   1      24.837  20.184   3.868  0.00  0.00     0.152 C 
BRANCH  17  18
HETATM   18  N   UNK N   1      25.331  20.450   2.529  0.00  0.00    -0.426 N 
HETATM   19  H   UNK N   1      25.846  19.730   2.023  0.00  0.00     0.150 HD
HETATM   20  H   UNK N   1      25.163  21.357   2.095  0.00  0.00     0.150 HD
ENDBRANCH  17  18
ENDBRANCH  10  17
TORSDOF 2
ENDMDL
MODEL 3
REMARK VINA RESULT:      -5.3      3.131      4.281
REMARK  2 active torsions:
REMARK  status: ('A' for Active; 'I' for Inactive)
REMARK       I    between atoms: N_12  and  C_6 
REMARK    1  A    between atoms: C_13  and  C_10 
REMARK    2  A    between atoms: N_14  and  C_13 
ROOT
HETATM    1  C   UNK N   1      34.206  14.488  10.343  0.00  0.00     0.137 A 
HETATM    2  C   UNK N   1      34.405  15.786  10.008  0.00  0.00     0.086 A 
HETATM    3  N   UNK N   1      35.017  13.834  11.210  0.00  0.00    -0.176 N 
ATOM      4  HN  UNK N   1      34.848  12.857  11.448  1.00  0.00     0.186 HD
HETATM    5  C   UNK N   1      35.468  16.488  10.556  0.00  0.00     0.274 A 
HETATM    6  C   UNK N   1      36.071  14.514  11.760  0.00  0.00     0.680 A 
HETATM    7  N   UNK N   1      36.294  15.828  11.436  0.00  0.00    -0.155 N 
HETATM    8  N   UNK N   1      33.133  13.972   9.717  0.00  0.00    -0.350 N 
HETATM    9  C   UNK N   1      32.633  14.981   8.955  0.00  0.00     0.099 A 
HETATM   10  C   UNK N   1      33.415  16.126   9.123  0.00  0.00    -0.006 A 
HETATM   11  O   UNK N   1      35.671  17.655  10.273  0.00  0.00    -0.267 OA
HETATM   12  N   UNK N   1      36.932  13.863  12.663  0.00  0.00    -0.234 N 
HETATM   13  H   UNK N   1      37.055  16.305  11.839  0.00  0.00     0.187 HD
HETATM   14  H   UNK N   1      32.783  13.055   9.794  0.00  0.00     0.166 HD
HETATM   15  H   UNK N   1      37.690  14.350  13.060  0.00  0.00     0.174 HD
HETATM   16  H   UNK N   1      36.776  12.919  12.899  0.00  0.00     0.174 HD
ENDROOT
BRANCH  10  17
HETATM   17  C   UNK N   1      33.242  17.469   8.486  0.00  0.00     0.152 C 
BRANCH  17  18
HETATM   18  N   UNK N   1      34.258  17.714   7.478  0.00  0.00    -0.426 N 
HETATM   19  H   UNK N   1      34.982  17.017   7.305  0.00  0.00     0.150 HD
HETATM   20  H   UNK N   1      34.247  18.582   6.944  0.00  0.00     0.150 HD
ENDBRANCH  17  18
ENDBRANCH  10  17
TORSDOF 2
ENDMDL
MODEL 4
REMARK VINA RESULT:      -5.3     11.688     13.279
REMARK  2 active torsions:
REMARK  status: ('A' for Active; 'I' for Inactive)
REMARK       I    between atoms: N_12  and  C_6 
REMARK    1  A    between atoms: C_13  and  C_10 
REMARK    2  A    between atoms: N_14  and  C_13 
ROOT
HETATM    1  C   UNK N   1      20.162  17.767   2.126  0.00  0.00     0.137 A 
HETATM    2  C   UNK N   1      20.455  18.095   3.409  0.00  0.00     0.086 A 
HETATM    3  N   UNK N   1      20.189  18.679   1.124  0.00  0.00    -0.176 N 
ATOM      4  HN  UNK N   1      19.965  18.409   0.166  1.00  0.00     0.186 HD
HETATM    5  C   UNK N   1      20.795  19.400   3.729  0.00  0.00     0.274 A 
HETATM    6  C   UNK N   1      20.524  19.972   1.426  0.00  0.00     0.680 A 
HETATM    7  N   UNK N   1      20.824  20.330   2.716  0.00  0.00    -0.155 N 
HETATM    8  N   UNK N   1      19.856  16.463   2.005  0.00  0.00    -0.350 N 
HETATM    9  C   UNK N   1      19.958  15.943   3.257  0.00  0.00     0.099 A 
HETATM   10  C   UNK N   1      20.332  16.950   4.151  0.00  0.00    -0.006 A 
HETATM   11  O   UNK N   1      21.063  19.723   4.873  0.00  0.00    -0.267 OA
HETATM   12  N   UNK N   1      20.561  20.943   0.407  0.00  0.00    -0.234 N 
HETATM   13  H   UNK N   1      21.063  21.263   2.918  0.00  0.00     0.187 HD
HETATM   14  H   UNK N   1      19.609  15.984   1.181  0.00  0.00     0.166 HD
HETATM   15  H   UNK N   1      20.802  21.874   0.622  0.00  0.00     0.174 HD
HETATM   16  H   UNK N   1      20.346  20.692  -0.521  0.00  0.00     0.174 HD
ENDROOT
BRANCH  10  17
HETATM   17  C   UNK N   1      20.562  16.840   5.626  0.00  0.00     0.152 C 
BRANCH  17  18
HETATM   18  N   UNK N   1      21.976  16.904   5.949  0.00  0.00    -0.426 N 
HETATM   19  H   UNK N   1      22.315  16.519   6.831  0.00  0.00     0.150 HD
HETATM   20  H   UNK N   1      22.629  17.334   5.295  0.00  0.00     0.150 HD
ENDBRANCH  17  18
ENDBRANCH  10  17
TORSDOF 2
ENDMDL
MODEL 5
REMARK VINA RESULT:      -5.2     10.673     12.119
REMARK  2 active torsions:
REMARK  status: ('A' for Active; 'I' for Inactive)
REMARK       I    between atoms: N_12  and  C_6 
REMARK    1  A    between atoms: C_13  and  C_10 
REMARK    2  A    between atoms: N_14  and  C_13 
ROOT
HETATM    1  C   UNK N   1      42.748  23.027   2.471  0.00  0.00     0.137 A 
HETATM    2  C   UNK N   1      42.041  21.876   2.579  0.00  0.00     0.086 A 
HETATM    3  N   UNK N   1      43.982  23.169   3.013  0.00  0.00    -0.176 N 
ATOM      4  HN  UNK N   1      44.496  24.045   2.919  1.00  0.00     0.186 HD
HETATM    5  C   UNK N   1      42.577  20.795   3.262  0.00  0.00     0.274 A 
HETATM    6  C   UNK N   1      44.525  22.110   3.691  0.00  0.00     0.680 A 
HETATM    7  N   UNK N   1      43.829  20.934   3.815  0.00  0.00    -0.155 N 
HETATM    8  N   UNK N   1      42.074  23.961   1.778  0.00  0.00    -0.350 N 
HETATM    9  C   UNK N   1      40.893  23.381   1.433  0.00  0.00     0.099 A 
HETATM   10  C   UNK N   1      40.853  22.075   1.925  0.00  0.00    -0.006 A 
HETATM   11  O   UNK N   1      41.963  19.749   3.375  0.00  0.00    -0.267 OA
HETATM   12  N   UNK N   1      45.805  22.226   4.266  0.00  0.00    -0.234 N 
HETATM   13  H   UNK N   1      44.231  20.180   4.305  0.00  0.00     0.187 HD
HETATM   14  H   UNK N   1      42.372  24.875   1.564  0.00  0.00     0.166 HD
HETATM   15  H   UNK N   1      46.196  21.465   4.754  0.00  0.00     0.174 HD
HETATM   16  H   UNK N   1      46.309  23.068   4.180  0.00  0.00     0.174 HD
ENDROOT
BRANCH  10  17
HETATM   17  C   UNK N   1      39.755  21.066   1.789  0.00  0.00     0.152 C 
BRANCH  17  18
HETATM   18  N   UNK N   1      40.027  20.128   0.715  0.00  0.00    -0.426 N 
HETATM   19  H   UNK N   1      40.712  20.361  -0.004  0.00  0.00     0.150 HD
HETATM   20  H   UNK N   1      39.533  19.236   0.680  0.00  0.00     0.150 HD
ENDBRANCH  17  18
ENDBRANCH  10  17
TORSDOF 2
ENDMDL
MODEL 6
REMARK VINA RESULT:      -5.1      7.297      9.426
REMARK  2 active torsions:
REMARK  status: ('A' for Active; 'I' for Inactive)
REMARK       I    between atoms: N_12  and  C_6 
REMARK    1  A    between atoms: C_13  and  C_10 
REMARK    2  A    between atoms: N_14  and  C_13 
ROOT
HETATM    1  C   UNK N   1      35.029  12.830  13.334  0.00  0.00     0.137 A 
HETATM    2  C   UNK N   1      35.598  13.081  14.538  0.00  0.00     0.086 A 
HETATM    3  N   UNK N   1      35.287  13.589  12.241  0.00  0.00    -0.176 N 
ATOM      4  HN  UNK N   1      34.847  13.381  11.345  1.00  0.00     0.186 HD
HETATM    5  C   UNK N   1      36.475  14.146  14.681  0.00  0.00     0.274 A 
HETATM    6  C   UNK N   1      36.151  14.644  12.367  0.00  0.00     0.680 A 
HETATM    7  N   UNK N   1      36.740  14.920  13.575  0.00  0.00    -0.155 N 
HETATM    8  N   UNK N   1      34.210  11.764  13.385  0.00  0.00    -0.350 N 
HETATM    9  C   UNK N   1      34.261  11.322  14.670  0.00  0.00     0.099 A 
HETATM   10  C   UNK N   1      35.125  12.135  15.408  0.00  0.00    -0.006 A 
HETATM   11  O   UNK N   1      37.001  14.395  15.751  0.00  0.00    -0.267 OA
HETATM   12  N   UNK N   1      36.439  15.452  11.250  0.00  0.00    -0.234 N 
HETATM   13  H   UNK N   1      37.359  15.681  13.651  0.00  0.00     0.187 HD
HETATM   14  H   UNK N   1      33.684  11.383  12.645  0.00  0.00     0.166 HD
HETATM   15  H   UNK N   1      37.060  16.211  11.339  0.00  0.00     0.174 HD
HETATM   16  H   UNK N   1      36.019  15.258  10.381  0.00  0.00     0.174 HD
ENDROOT
BRANCH  10  17
HETATM   17  C   UNK N   1      35.487  12.026  16.857  0.00  0.00     0.152 C 
BRANCH  17  18
HETATM   18  N   UNK N   1      34.915  13.113  17.630  0.00  0.00    -0.426 N 
HETATM   19  H   UNK N   1      35.526  13.788  18.089  0.00  0.00     0.150 HD
HETATM   20  H   UNK N   1      33.903  13.202  17.714  0.00  0.00     0.150 HD
ENDBRANCH  17  18
ENDBRANCH  10  17
TORSDOF 2
ENDMDL
MODEL 7
REMARK VINA RESULT:      -5.0      1.303      4.107
REMARK  2 active torsions:
REMARK  status: ('A' for Active; 'I' for Inactive)
REMARK       I    between atoms: N_12  and  C_6 
REMARK    1  A    between atoms: C_13  and  C_10 
REMARK    2  A    between atoms: N_14  and  C_13 
ROOT
HETATM    1  C   UNK N   1      31.136  17.286   6.413  0.00  0.00     0.137 A 
HETATM    2  C   UNK N   1      32.464  17.317   6.682  0.00  0.00     0.086 A 
HETATM    3  N   UNK N   1      30.658  17.209   5.147  0.00  0.00    -0.176 N 
ATOM      4  HN  UNK N   1      29.654  17.187   4.968  1.00  0.00     0.186 HD
HETATM    5  C   UNK N   1      33.382  17.268   5.644  0.00  0.00     0.274 A 
HETATM    6  C   UNK N   1      31.553  17.160   4.112  0.00  0.00     0.680 A 
HETATM    7  N   UNK N   1      32.902  17.189   4.358  0.00  0.00    -0.155 N 
HETATM    8  N   UNK N   1      30.399  17.342   7.537  0.00  0.00    -0.350 N 
HETATM    9  C   UNK N   1      31.294  17.411   8.559  0.00  0.00     0.099 A 
HETATM   10  C   UNK N   1      32.593  17.396   8.044  0.00  0.00    -0.006 A 
HETATM   11  O   UNK N   1      34.581  17.293   5.857  0.00  0.00    -0.267 OA
HETATM   12  N   UNK N   1      31.088  17.079   2.785  0.00  0.00    -0.234 N 
HETATM   13  H   UNK N   1      33.535  17.153   3.604  0.00  0.00     0.187 HD
HETATM   14  H   UNK N   1      29.418  17.335   7.606  0.00  0.00     0.166 HD
HETATM   15  H   UNK N   1      31.730  17.043   2.039  0.00  0.00     0.174 HD
HETATM   16  H   UNK N   1      30.120  17.057   2.603  0.00  0.00     0.174 HD
ENDROOT
BRANCH  10  17
HETATM   17  C   UNK N   1      33.887  17.453   8.793  0.00  0.00     0.152 C 
BRANCH  17  18
HETATM   18  N   UNK N   1      34.622  18.668   8.491  0.00  0.00    -0.426 N 
HETATM   19  H   UNK N   1      35.433  18.633   7.874  0.00  0.00     0.150 HD
HETATM   20  H   UNK N   1      34.327  19.556   8.897  0.00  0.00     0.150 HD
ENDBRANCH  17  18
ENDBRANCH  10  17
TORSDOF 2
ENDMDL
MODEL 8
REMARK VINA RESULT:      -4.9      1.671      2.463
REMARK  2 active torsions:
REMARK  status: ('A' for Active; 'I' for Inactive)
REMARK       I    between atoms: N_12  and  C_6 
REMARK    1  A    between atoms: C_13  and  C_10 
REMARK    2  A    between atoms: N_14  and  C_13 
ROOT
HETATM    1  C   UNK N   1      33.312  17.393   6.554  0.00  0.00     0.137 A 
HETATM    2  C   UNK N   1      31.983  17.222   6.756  0.00  0.00     0.086 A 
HETATM    3  N   UNK N   1      34.201  17.407   7.577  0.00  0.00    -0.176 N 
ATOM      4  HN  UNK N   1      35.198  17.538   7.401  1.00  0.00     0.186 HD
HETATM    5  C   UNK N   1      31.494  17.053   8.043  0.00  0.00     0.274 A 
HETATM    6  C   UNK N   1      33.733  17.242   8.853  0.00  0.00     0.680 A 
HETATM    7  N   UNK N   1      32.392  17.066   9.084  0.00  0.00    -0.155 N 
HETATM    8  N   UNK N   1      33.602  17.541   5.249  0.00  0.00    -0.350 N 
HETATM    9  C   UNK N   1      32.411  17.459   4.598  0.00  0.00     0.099 A 
HETATM   10  C   UNK N   1      31.385  17.260   5.524  0.00  0.00    -0.006 A 
HETATM   11  O   UNK N   1      30.304  16.897   8.253  0.00  0.00    -0.267 OA
HETATM   12  N   UNK N   1      34.632  17.251   9.937  0.00  0.00    -0.234 N 
HETATM   13  H   UNK N   1      32.069  16.948  10.007  0.00  0.00     0.187 HD
HETATM   14  H   UNK N   1      34.490  17.678   4.849  0.00  0.00     0.166 HD
HETATM   15  H   UNK N   1      34.297  17.132  10.856  0.00  0.00     0.174 HD
HETATM   16  H   UNK N   1      35.595  17.377   9.777  0.00  0.00     0.174 HD
ENDROOT
BRANCH  10  17
HETATM   17  C   UNK N   1      29.917  17.112   5.265  0.00  0.00     0.152 C 
BRANCH  17  18
HETATM   18  N   UNK N   1      29.407  18.210   4.463  0.00  0.00    -0.426 N 
HETATM   19  H   UNK N   1      28.857  18.948   4.900  0.00  0.00     0.150 HD
HETATM   20  H   UNK N   1      29.600  18.241   3.462  0.00  0.00     0.150 HD
ENDBRANCH  17  18
ENDBRANCH  10  17
TORSDOF 2
ENDMDL
MODEL 9
REMARK VINA RESULT:      -4.9     11.505     13.044
REMARK  2 active torsions:
REMARK  status: ('A' for Active; 'I' for Inactive)
REMARK       I    between atoms: N_12  and  C_6 
REMARK    1  A    between atoms: C_13  and  C_10 
REMARK    2  A    between atoms: N_14  and  C_13 
ROOT
HETATM    1  C   UNK N   1      42.890  23.382   2.108  0.00  0.00     0.137 A 
HETATM    2  C   UNK N   1      43.024  22.172   2.703  0.00  0.00     0.086 A 
HETATM    3  N   UNK N   1      43.917  24.262   2.023  0.00  0.00    -0.176 N 
ATOM      4  HN  UNK N   1      43.793  25.168   1.570  1.00  0.00     0.186 HD
HETATM    5  C   UNK N   1      44.242  21.801   3.252  0.00  0.00     0.274 A 
HETATM    6  C   UNK N   1      45.126  23.910   2.560  0.00  0.00     0.680 A 
HETATM    7  N   UNK N   1      45.288  22.691   3.169  0.00  0.00    -0.155 N 
HETATM    8  N   UNK N   1      41.644  23.568   1.636  0.00  0.00    -0.350 N 
HETATM    9  C   UNK N   1      40.962  22.433   1.944  0.00  0.00     0.099 A 
HETATM   10  C   UNK N   1      41.808  21.546   2.613  0.00  0.00    -0.006 A 
HETATM   11  O   UNK N   1      44.391  20.720   3.793  0.00  0.00    -0.267 OA
HETATM   12  N   UNK N   1      46.213  24.802   2.489  0.00  0.00    -0.234 N 
HETATM   13  H   UNK N   1      46.163  22.450   3.551  0.00  0.00     0.187 HD
HETATM   14  H   UNK N   1      41.299  24.361   1.165  0.00  0.00     0.166 HD
HETATM   15  H   UNK N   1      47.084  24.551   2.874  0.00  0.00     0.174 HD
HETATM   16  H   UNK N   1      46.103  25.679   2.053  0.00  0.00     0.174 HD
ENDROOT
BRANCH  10  17
HETATM   17  C   UNK N   1      41.491  20.181   3.140  0.00  0.00     0.152 C 
BRANCH  17  18
HETATM   18  N   UNK N   1      40.181  20.145   3.765  0.00  0.00    -0.426 N 
HETATM   19  H   UNK N   1      39.374  20.537   3.281  0.00  0.00     0.150 HD
HETATM   20  H   UNK N   1      40.069  19.727   4.688  0.00  0.00     0.150 HD
ENDBRANCH  17  18
ENDBRANCH  10  17
TORSDOF 2
ENDMDL
