MODEL 1
REMARK VINA RESULT:      -7.1      0.000      0.000
REMARK  14 active torsions:
REMARK  status: ('A' for Active; 'I' for Inactive)
REMARK    1  A    between atoms: C_3  and  N_1 
REMARK    2  A    between atoms: C_12  and  N_18 
REMARK    3  A    between atoms: C_14  and  C_19 
REMARK    4  A    between atoms: C_15  and  O_20 
REMARK    5  A    between atoms: C_19  and  O_21 
REMARK    6  A    between atoms: O_21  and  P_22 
REMARK    7  A    between atoms: P_22  and  O_23 
REMARK    8  A    between atoms: P_22  and  O_24 
REMARK    9  A    between atoms: O_23  and  P_26 
REMARK   10  A    between atoms: P_26  and  O_27 
REMARK   11  A    between atoms: P_26  and  O_28 
REMARK   12  A    between atoms: O_27  and  P_30 
REMARK   13  A    between atoms: P_30  and  O_31 
REMARK   14  A    between atoms: P_30  and  O_32 
ROOT
HETATM    1  C   UNK N   1      29.520  16.226   4.856  0.00  0.00     0.233 C 
HETATM    2  O   UNK N   1      30.776  16.778   4.524  0.00  0.00    -0.356 OA
HETATM    3  C   UNK N   1      29.740  14.858   5.479  0.00  0.00     0.088 C 
HETATM    4  C   UNK N   1      31.742  15.905   5.064  0.00  0.00     0.177 C 
HETATM    5  C   UNK N   1      31.086  15.028   6.086  0.00  0.00     0.153 C 
ENDROOT
BRANCH   4   6
HETATM    6  C   UNK N   1      32.932  16.656   5.661  0.00  0.00     0.215 C 
BRANCH   6   7
HETATM    7  O   UNK N   1      32.830  16.611   7.060  0.00  0.00    -0.294 OA
BRANCH   7   8
HETATM    8  P   UNK N   1      33.425  18.079   7.856  0.00  0.00     0.401 P 
HETATM    9  O   UNK N   1      34.556  17.861   6.815  0.00  0.00    -0.631 OA
BRANCH   8  10
HETATM   10  O   UNK N   1      34.885  17.537   8.678  0.00  0.00    -0.195 OA
BRANCH  10  11
HETATM   11  P   UNK N   1      34.486  16.365   9.925  0.00  0.00     0.410 P 
HETATM   12  O   UNK N   1      35.637  17.214  10.533  0.00  0.00    -0.631 OA
BRANCH  11  13
HETATM   13  O   UNK N   1      35.724  15.178  10.369  0.00  0.00    -0.195 OA
BRANCH  13  14
HETATM   14  P   UNK N   1      35.090  13.657  11.051  0.00  0.00     0.399 P 
HETATM   15  O   UNK N   1      36.309  13.808  12.002  0.00  0.00    -0.631 OA
BRANCH  14  16
HETATM   16  O   UNK N   1      33.722  14.718  11.221  0.00  0.00    -0.307 OA
HETATM   17  H   UNK N   1      33.657  15.419  11.890  0.00  0.00     0.222 HD
ENDBRANCH  14  16
BRANCH  14  18
HETATM   18  O   UNK N   1      34.472  13.763  12.669  0.00  0.00    -0.307 OA
HETATM   19  H   UNK N   1      34.255  13.485  13.572  0.00  0.00     0.222 HD
ENDBRANCH  14  18
ENDBRANCH  13  14
ENDBRANCH  11  13
BRANCH  11  20
HETATM   20  O   UNK N   1      35.027  15.472   8.536  0.00  0.00    -0.307 OA
HETATM   21  H   UNK N   1      35.741  15.561   7.884  0.00  0.00     0.222 HD
ENDBRANCH  11  20
ENDBRANCH  10  11
ENDBRANCH   8  10
BRANCH   8  22
HETATM   22  O   UNK N   1      33.297  17.253   9.384  0.00  0.00    -0.307 OA
HETATM   23  H   UNK N   1      32.843  17.220  10.241  0.00  0.00     0.222 HD
ENDBRANCH   8  22
ENDBRANCH   7   8
ENDBRANCH   6   7
ENDBRANCH   4   6
BRANCH   5  24
HETATM   24  O   UNK N   1      31.745  13.803   6.181  0.00  0.00    -0.393 OA
HETATM   25  H   UNK N   1      32.629  13.674   5.804  0.00  0.00     0.210 HD
ENDBRANCH   5  24
BRANCH   1  26
HETATM   26  N   UNK N   1      28.804  17.158   5.730  0.00  0.00    -0.300 N 
HETATM   27  C   UNK N   1      28.313  18.382   5.481  0.00  0.00     0.142 A 
HETATM   28  C   UNK N   1      27.711  18.855   6.588  0.00  0.00     0.122 A 
HETATM   29  N   UNK N   1      28.357  19.085   4.324  0.00  0.00    -0.336 N 
HETATM   30  C   UNK N   1      27.114  20.104   6.577  0.00  0.00     0.131 A 
HETATM   31  N   UNK N   1      27.799  17.949   7.580  0.00  0.00    -0.346 N 
HETATM   32  N   UNK N   1      27.152  20.822   5.414  0.00  0.00    -0.337 N 
HETATM   33  C   UNK N   1      27.767  20.319   4.294  0.00  0.00     0.183 A 
ATOM     34  HN  UNK N   1      26.719  21.745   5.379  1.00  0.00     0.168 HD
HETATM   35  C   UNK N   1      28.473  16.904   7.022  0.00  0.00     0.188 A 
ATOM     36  HN  UNK N   1      27.441  18.027   8.532  1.00  0.00     0.167 HD
ATOM     37  HN  UNK N   1      28.817  18.704   3.496  1.00  0.00     0.168 HD
BRANCH  30  38
HETATM   38  N   UNK N   1      26.479  20.624   7.722  0.00  0.00    -0.383 N 
HETATM   39  H   UNK N   1      25.502  20.729   7.789  0.00  0.00     0.157 HD
HETATM   40  H   UNK N   1      27.036  20.894   8.489  0.00  0.00     0.157 HD
ENDBRANCH  30  38
ENDBRANCH   1  26
TORSDOF 14
ENDMDL
MODEL 2
REMARK VINA RESULT:      -7.1      6.596      8.847
REMARK  14 active torsions:
REMARK  status: ('A' for Active; 'I' for Inactive)
REMARK    1  A    between atoms: C_3  and  N_1 
REMARK    2  A    between atoms: C_12  and  N_18 
REMARK    3  A    between atoms: C_14  and  C_19 
REMARK    4  A    between atoms: C_15  and  O_20 
REMARK    5  A    between atoms: C_19  and  O_21 
REMARK    6  A    between atoms: O_21  and  P_22 
REMARK    7  A    between atoms: P_22  and  O_23 
REMARK    8  A    between atoms: P_22  and  O_24 
REMARK    9  A    between atoms: O_23  and  P_26 
REMARK   10  A    between atoms: P_26  and  O_27 
REMARK   11  A    between atoms: P_26  and  O_28 
REMARK   12  A    between atoms: O_27  and  P_30 
REMARK   13  A    between atoms: P_30  and  O_31 
REMARK   14  A    between atoms: P_30  and  O_32 
ROOT
HETATM    1  C   UNK N   1      36.460  15.163  10.917  0.00  0.00     0.233 C 
HETATM    2  O   UNK N   1      36.415  14.705   9.582  0.00  0.00    -0.356 OA
HETATM    3  C   UNK N   1      35.778  16.520  10.989  0.00  0.00     0.088 C 
HETATM    4  C   UNK N   1      35.600  15.619   8.883  0.00  0.00     0.177 C 
HETATM    5  C   UNK N   1      34.804  16.415   9.871  0.00  0.00     0.153 C 
ENDROOT
BRANCH   4   6
HETATM    6  C   UNK N   1      34.690  14.925   7.870  0.00  0.00     0.215 C 
BRANCH   6   7
HETATM    7  O   UNK N   1      34.899  15.506   6.611  0.00  0.00    -0.294 OA
BRANCH   7   8
HETATM    8  P   UNK N   1      33.441  16.248   5.927  0.00  0.00     0.401 P 
HETATM    9  O   UNK N   1      34.296  17.519   6.181  0.00  0.00    -0.631 OA
BRANCH   8  10
HETATM   10  O   UNK N   1      32.767  17.150   7.280  0.00  0.00    -0.195 OA
BRANCH  10  11
HETATM   11  P   UNK N   1      31.113  16.645   7.588  0.00  0.00     0.410 P 
HETATM   12  O   UNK N   1      31.026  17.523   6.309  0.00  0.00    -0.631 OA
BRANCH  11  13
HETATM   13  O   UNK N   1      29.927  17.899   7.990  0.00  0.00    -0.195 OA
BRANCH  13  14
HETATM   14  P   UNK N   1      28.741  17.433   9.238  0.00  0.00     0.399 P 
HETATM   15  O   UNK N   1      29.215  18.755   9.900  0.00  0.00    -0.631 OA
BRANCH  14  16
HETATM   16  O   UNK N   1      27.749  17.486   7.810  0.00  0.00    -0.307 OA
HETATM   17  H   UNK N   1      27.755  16.806   7.118  0.00  0.00     0.222 HD
ENDBRANCH  14  16
BRANCH  14  18
HETATM   18  O   UNK N   1      27.355  18.467   9.376  0.00  0.00    -0.307 OA
HETATM   19  H   UNK N   1      26.458  18.747   9.616  0.00  0.00     0.222 HD
ENDBRANCH  14  18
ENDBRANCH  13  14
ENDBRANCH  11  13
BRANCH  11  20
HETATM   20  O   UNK N   1      31.627  17.579   8.960  0.00  0.00    -0.307 OA
HETATM   21  H   UNK N   1      31.195  18.138   9.625  0.00  0.00     0.222 HD
ENDBRANCH  11  20
ENDBRANCH  10  11
ENDBRANCH   8  10
BRANCH   8  22
HETATM   22  O   UNK N   1      32.502  15.415   7.134  0.00  0.00    -0.307 OA
HETATM   23  H   UNK N   1      31.608  15.193   7.440  0.00  0.00     0.222 HD
ENDBRANCH   8  22
ENDBRANCH   7   8
ENDBRANCH   6   7
ENDBRANCH   4   6
BRANCH   5  24
HETATM   24  O   UNK N   1      34.500  17.676   9.359  0.00  0.00    -0.393 OA
HETATM   25  H   UNK N   1      33.758  18.196   9.705  0.00  0.00     0.210 HD
ENDBRANCH   5  24
BRANCH   1  26
HETATM   26  N   UNK N   1      35.850  14.157  11.789  0.00  0.00    -0.300 N 
HETATM   27  C   UNK N   1      36.000  13.943  13.106  0.00  0.00     0.142 A 
HETATM   28  C   UNK N   1      35.219  12.912  13.481  0.00  0.00     0.122 A 
HETATM   29  N   UNK N   1      36.773  14.623  13.985  0.00  0.00    -0.336 N 
HETATM   30  C   UNK N   1      35.191  12.505  14.804  0.00  0.00     0.131 A 
HETATM   31  N   UNK N   1      34.547  12.435  12.417  0.00  0.00    -0.346 N 
HETATM   32  N   UNK N   1      35.968  13.184  15.700  0.00  0.00    -0.337 N 
HETATM   33  C   UNK N   1      36.753  14.237  15.298  0.00  0.00     0.183 A 
ATOM     34  HN  UNK N   1      35.965  12.905  16.681  1.00  0.00     0.168 HD
HETATM   35  C   UNK N   1      34.949  13.227  11.382  0.00  0.00     0.188 A 
ATOM     36  HN  UNK N   1      33.887  11.658  12.390  1.00  0.00     0.167 HD
ATOM     37  HN  UNK N   1      37.355  15.403  13.678  1.00  0.00     0.168 HD
BRANCH  30  38
HETATM   38  N   UNK N   1      34.385  11.428  15.223  0.00  0.00    -0.383 N 
HETATM   39  H   UNK N   1      33.790  11.481  16.006  0.00  0.00     0.157 HD
HETATM   40  H   UNK N   1      34.419  10.587  14.712  0.00  0.00     0.157 HD
ENDBRANCH  30  38
ENDBRANCH   1  26
TORSDOF 14
ENDMDL
MODEL 3
REMARK VINA RESULT:      -6.7      2.656      4.503
REMARK  14 active torsions:
REMARK  status: ('A' for Active; 'I' for Inactive)
REMARK    1  A    between atoms: C_3  and  N_1 
REMARK    2  A    between atoms: C_12  and  N_18 
REMARK    3  A    between atoms: C_14  and  C_19 
REMARK    4  A    between atoms: C_15  and  O_20 
REMARK    5  A    between atoms: C_19  and  O_21 
REMARK    6  A    between atoms: O_21  and  P_22 
REMARK    7  A    between atoms: P_22  and  O_23 
REMARK    8  A    between atoms: P_22  and  O_24 
REMARK    9  A    between atoms: O_23  and  P_26 
REMARK   10  A    between atoms: P_26  and  O_27 
REMARK   11  A    between atoms: P_26  and  O_28 
REMARK   12  A    between atoms: O_27  and  P_30 
REMARK   13  A    between atoms: P_30  and  O_31 
REMARK   14  A    between atoms: P_30  and  O_32 
ROOT
HETATM    1  C   UNK N   1      33.046  17.809   7.175  0.00  0.00     0.233 C 
HETATM    2  O   UNK N   1      33.598  17.406   8.409  0.00  0.00    -0.356 OA
HETATM    3  C   UNK N   1      33.864  17.192   6.051  0.00  0.00     0.088 C 
HETATM    4  C   UNK N   1      34.588  16.450   8.101  0.00  0.00     0.177 C 
HETATM    5  C   UNK N   1      34.367  15.956   6.704  0.00  0.00     0.153 C 
ENDROOT
BRANCH   4   6
HETATM    6  C   UNK N   1      34.606  15.294   9.101  0.00  0.00     0.215 C 
BRANCH   6   7
HETATM    7  O   UNK N   1      35.752  15.416   9.902  0.00  0.00    -0.294 OA
BRANCH   7   8
HETATM    8  P   UNK N   1      35.465  15.018  11.606  0.00  0.00     0.401 P 
HETATM    9  O   UNK N   1      36.607  14.017  11.284  0.00  0.00    -0.631 OA
BRANCH   8  10
HETATM   10  O   UNK N   1      34.813  13.384  11.540  0.00  0.00    -0.195 OA
BRANCH  10  11
HETATM   11  P   UNK N   1      35.460  12.414  12.855  0.00  0.00     0.410 P 
HETATM   12  O   UNK N   1      34.323  11.547  12.246  0.00  0.00    -0.631 OA
BRANCH  11  13
HETATM   13  O   UNK N   1      34.392  12.060  14.224  0.00  0.00    -0.195 OA
BRANCH  13  14
HETATM   14  P   UNK N   1      35.209  11.972  15.806  0.00  0.00     0.399 P 
HETATM   15  O   UNK N   1      36.474  12.233  14.944  0.00  0.00    -0.631 OA
BRANCH  14  16
HETATM   16  O   UNK N   1      34.062  13.254  16.071  0.00  0.00    -0.307 OA
HETATM   17  H   UNK N   1      33.399  13.533  15.420  0.00  0.00     0.222 HD
ENDBRANCH  14  16
BRANCH  14  18
HETATM   18  O   UNK N   1      35.918  13.455  16.364  0.00  0.00    -0.307 OA
HETATM   19  H   UNK N   1      36.518  14.041  16.850  0.00  0.00     0.222 HD
ENDBRANCH  14  18
ENDBRANCH  13  14
ENDBRANCH  11  13
BRANCH  11  20
HETATM   20  O   UNK N   1      34.832  13.875  13.556  0.00  0.00    -0.307 OA
HETATM   21  H   UNK N   1      34.826  14.278  14.439  0.00  0.00     0.222 HD
ENDBRANCH  11  20
ENDBRANCH  10  11
ENDBRANCH   8  10
BRANCH   8  22
HETATM   22  O   UNK N   1      33.783  14.777  11.223  0.00  0.00    -0.307 OA
HETATM   23  H   UNK N   1      33.141  14.588  10.520  0.00  0.00     0.222 HD
ENDBRANCH   8  22
ENDBRANCH   7   8
ENDBRANCH   6   7
ENDBRANCH   4   6
BRANCH   5  24
HETATM   24  O   UNK N   1      35.570  15.548   6.130  0.00  0.00    -0.393 OA
HETATM   25  H   UNK N   1      36.307  16.166   6.008  0.00  0.00     0.210 HD
ENDBRANCH   5  24
BRANCH   1  26
HETATM   26  N   UNK N   1      31.631  17.436   7.139  0.00  0.00    -0.300 N 
HETATM   27  C   UNK N   1      30.640  17.696   8.008  0.00  0.00     0.142 A 
HETATM   28  C   UNK N   1      29.492  17.165   7.546  0.00  0.00     0.122 A 
HETATM   29  N   UNK N   1      30.703  18.389   9.169  0.00  0.00    -0.336 N 
HETATM   30  C   UNK N   1      28.319  17.312   8.266  0.00  0.00     0.131 A 
HETATM   31  N   UNK N   1      29.711  16.550   6.369  0.00  0.00    -0.346 N 
HETATM   32  N   UNK N   1      28.370  18.010   9.440  0.00  0.00    -0.337 N 
HETATM   33  C   UNK N   1      29.550  18.548   9.891  0.00  0.00     0.183 A 
ATOM     34  HN  UNK N   1      27.519  18.133   9.989  1.00  0.00     0.168 HD
HETATM   35  C   UNK N   1      31.041  16.737   6.135  0.00  0.00     0.188 A 
ATOM     36  HN  UNK N   1      29.036  16.056   5.785  1.00  0.00     0.167 HD
ATOM     37  HN  UNK N   1      31.584  18.784   9.498  1.00  0.00     0.168 HD
BRANCH  30  38
HETATM   38  N   UNK N   1      27.103  16.765   7.807  0.00  0.00    -0.383 N 
HETATM   39  H   UNK N   1      26.345  17.323   7.516  0.00  0.00     0.157 HD
HETATM   40  H   UNK N   1      27.008  15.786   7.776  0.00  0.00     0.157 HD
ENDBRANCH  30  38
ENDBRANCH   1  26
TORSDOF 14
ENDMDL
MODEL 4
REMARK VINA RESULT:      -6.5      6.354      8.830
REMARK  14 active torsions:
REMARK  status: ('A' for Active; 'I' for Inactive)
REMARK    1  A    between atoms: C_3  and  N_1 
REMARK    2  A    between atoms: C_12  and  N_18 
REMARK    3  A    between atoms: C_14  and  C_19 
REMARK    4  A    between atoms: C_15  and  O_20 
REMARK    5  A    between atoms: C_19  and  O_21 
REMARK    6  A    between atoms: O_21  and  P_22 
REMARK    7  A    between atoms: P_22  and  O_23 
REMARK    8  A    between atoms: P_22  and  O_24 
REMARK    9  A    between atoms: O_23  and  P_26 
REMARK   10  A    between atoms: P_26  and  O_27 
REMARK   11  A    between atoms: P_26  and  O_28 
REMARK   12  A    between atoms: O_27  and  P_30 
REMARK   13  A    between atoms: P_30  and  O_31 
REMARK   14  A    between atoms: P_30  and  O_32 
ROOT
HETATM    1  C   UNK N   1      36.221  14.538  10.887  0.00  0.00     0.233 C 
HETATM    2  O   UNK N   1      35.604  14.108   9.693  0.00  0.00    -0.356 OA
HETATM    3  C   UNK N   1      35.976  16.029  11.052  0.00  0.00     0.088 C 
HETATM    4  C   UNK N   1      34.860  15.208   9.220  0.00  0.00     0.177 C 
HETATM    5  C   UNK N   1      34.684  16.192  10.336  0.00  0.00     0.153 C 
ENDROOT
BRANCH   4   6
HETATM    6  C   UNK N   1      33.511  14.787   8.636  0.00  0.00     0.215 C 
BRANCH   6   7
HETATM    7  O   UNK N   1      32.781  15.943   8.324  0.00  0.00    -0.294 OA
BRANCH   7   8
HETATM    8  P   UNK N   1      33.013  16.493   6.654  0.00  0.00     0.401 P 
HETATM    9  O   UNK N   1      33.010  17.860   7.390  0.00  0.00    -0.631 OA
BRANCH   8  10
HETATM   10  O   UNK N   1      31.519  17.351   6.293  0.00  0.00    -0.195 OA
BRANCH  10  11
HETATM   11  P   UNK N   1      30.134  16.299   6.540  0.00  0.00     0.410 P 
HETATM   12  O   UNK N   1      29.711  17.246   5.382  0.00  0.00    -0.631 OA
BRANCH  11  13
HETATM   13  O   UNK N   1      28.624  17.038   7.100  0.00  0.00    -0.195 OA
BRANCH  13  14
HETATM   14  P   UNK N   1      28.755  17.927   8.641  0.00  0.00     0.399 P 
HETATM   15  O   UNK N   1      28.504  19.155   7.724  0.00  0.00    -0.631 OA
BRANCH  14  16
HETATM   16  O   UNK N   1      27.456  16.820   8.980  0.00  0.00    -0.307 OA
HETATM   17  H   UNK N   1      26.898  16.863   9.773  0.00  0.00     0.222 HD
ENDBRANCH  14  16
BRANCH  14  18
HETATM   18  O   UNK N   1      27.296  18.691   9.189  0.00  0.00    -0.307 OA
HETATM   19  H   UNK N   1      26.358  18.936   9.207  0.00  0.00     0.222 HD
ENDBRANCH  14  18
ENDBRANCH  13  14
ENDBRANCH  11  13
BRANCH  11  20
HETATM   20  O   UNK N   1      30.377  17.181   8.017  0.00  0.00    -0.307 OA
HETATM   21  H   UNK N   1      30.781  16.998   8.880  0.00  0.00     0.222 HD
ENDBRANCH  11  20
ENDBRANCH  10  11
ENDBRANCH   8  10
BRANCH   8  22
HETATM   22  O   UNK N   1      31.592  15.594   6.204  0.00  0.00    -0.307 OA
HETATM   23  H   UNK N   1      30.688  15.648   5.853  0.00  0.00     0.222 HD
ENDBRANCH   8  22
ENDBRANCH   7   8
ENDBRANCH   6   7
ENDBRANCH   4   6
BRANCH   5  24
HETATM   24  O   UNK N   1      34.555  17.487   9.836  0.00  0.00    -0.393 OA
HETATM   25  H   UNK N   1      34.620  18.261  10.417  0.00  0.00     0.210 HD
ENDBRANCH   5  24
BRANCH   1  26
HETATM   26  N   UNK N   1      35.714  13.737  12.003  0.00  0.00    -0.300 N 
HETATM   27  C   UNK N   1      35.026  12.583  12.004  0.00  0.00     0.142 A 
HETATM   28  C   UNK N   1      34.793  12.206  13.275  0.00  0.00     0.122 A 
HETATM   29  N   UNK N   1      34.616  11.849  10.943  0.00  0.00    -0.336 N 
HETATM   30  C   UNK N   1      34.105  11.033  13.537  0.00  0.00     0.131 A 
HETATM   31  N   UNK N   1      35.322  13.104  14.126  0.00  0.00    -0.346 N 
HETATM   32  N   UNK N   1      33.686  10.284  12.474  0.00  0.00    -0.337 N 
HETATM   33  C   UNK N   1      33.940  10.684  11.185  0.00  0.00     0.183 A 
ATOM     34  HN  UNK N   1      33.178   9.415  12.640  1.00  0.00     0.168 HD
HETATM   35  C   UNK N   1      35.894  14.039  13.315  0.00  0.00     0.188 A 
ATOM     36  HN  UNK N   1      35.301  13.089  15.145  1.00  0.00     0.167 HD
ATOM     37  HN  UNK N   1      34.807  12.155   9.988  1.00  0.00     0.168 HD
BRANCH  30  38
HETATM   38  N   UNK N   1      33.844  10.615  14.858  0.00  0.00    -0.383 N 
HETATM   39  H   UNK N   1      34.170   9.758  15.219  0.00  0.00     0.157 HD
HETATM   40  H   UNK N   1      33.315  11.204  15.444  0.00  0.00     0.157 HD
ENDBRANCH  30  38
ENDBRANCH   1  26
TORSDOF 14
ENDMDL
MODEL 5
REMARK VINA RESULT:      -6.4      8.828     10.828
REMARK  14 active torsions:
REMARK  status: ('A' for Active; 'I' for Inactive)
REMARK    1  A    between atoms: C_3  and  N_1 
REMARK    2  A    between atoms: C_12  and  N_18 
REMARK    3  A    between atoms: C_14  and  C_19 
REMARK    4  A    between atoms: C_15  and  O_20 
REMARK    5  A    between atoms: C_19  and  O_21 
REMARK    6  A    between atoms: O_21  and  P_22 
REMARK    7  A    between atoms: P_22  and  O_23 
REMARK    8  A    between atoms: P_22  and  O_24 
REMARK    9  A    between atoms: O_23  and  P_26 
REMARK   10  A    between atoms: P_26  and  O_27 
REMARK   11  A    between atoms: P_26  and  O_28 
REMARK   12  A    between atoms: O_27  and  P_30 
REMARK   13  A    between atoms: P_30  and  O_31 
REMARK   14  A    between atoms: P_30  and  O_32 
ROOT
HETATM    1  C   UNK N   1      35.117  11.741  14.383  0.00  0.00     0.233 C 
HETATM    2  O   UNK N   1      34.530  12.761  13.604  0.00  0.00    -0.356 OA
HETATM    3  C   UNK N   1      36.499  11.438  13.827  0.00  0.00     0.088 C 
HETATM    4  C   UNK N   1      35.537  13.209  12.725  0.00  0.00     0.177 C 
HETATM    5  C   UNK N   1      36.869  12.751  13.237  0.00  0.00     0.153 C 
ENDROOT
BRANCH   4   6
HETATM    6  C   UNK N   1      35.508  14.726  12.537  0.00  0.00     0.215 C 
BRANCH   6   7
HETATM    7  O   UNK N   1      34.905  15.010  11.303  0.00  0.00    -0.294 OA
BRANCH   7   8
HETATM    8  P   UNK N   1      36.057  15.091   9.958  0.00  0.00     0.401 P 
HETATM    9  O   UNK N   1      36.448  16.384  10.725  0.00  0.00    -0.631 OA
BRANCH   8  10
HETATM   10  O   UNK N   1      35.525  16.500   9.046  0.00  0.00    -0.195 OA
BRANCH  10  11
HETATM   11  P   UNK N   1      33.974  16.186   8.285  0.00  0.00     0.410 P 
HETATM   12  O   UNK N   1      34.759  17.034   7.246  0.00  0.00    -0.631 OA
BRANCH  11  13
HETATM   13  O   UNK N   1      32.919  17.571   7.955  0.00  0.00    -0.195 OA
BRANCH  13  14
HETATM   14  P   UNK N   1      31.174  17.202   7.971  0.00  0.00     0.399 P 
HETATM   15  O   UNK N   1      31.681  15.778   8.330  0.00  0.00    -0.631 OA
BRANCH  14  16
HETATM   16  O   UNK N   1      31.276  18.479   9.148  0.00  0.00    -0.307 OA
HETATM   17  H   UNK N   1      31.892  19.227   9.087  0.00  0.00     0.222 HD
ENDBRANCH  14  16
BRANCH  14  18
HETATM   18  O   UNK N   1      30.511  16.792   9.521  0.00  0.00    -0.307 OA
HETATM   19  H   UNK N   1      30.084  16.256  10.207  0.00  0.00     0.222 HD
ENDBRANCH  14  18
ENDBRANCH  13  14
ENDBRANCH  11  13
BRANCH  11  20
HETATM   20  O   UNK N   1      33.659  17.094   9.732  0.00  0.00    -0.307 OA
HETATM   21  H   UNK N   1      32.946  17.134  10.389  0.00  0.00     0.222 HD
ENDBRANCH  11  20
ENDBRANCH  10  11
ENDBRANCH   8  10
BRANCH   8  22
HETATM   22  O   UNK N   1      34.718  14.947   8.855  0.00  0.00    -0.307 OA
HETATM   23  H   UNK N   1      33.754  14.870   8.772  0.00  0.00     0.222 HD
ENDBRANCH   8  22
ENDBRANCH   7   8
ENDBRANCH   6   7
ENDBRANCH   4   6
BRANCH   5  24
HETATM   24  O   UNK N   1      37.771  12.586  12.187  0.00  0.00    -0.393 OA
HETATM   25  H   UNK N   1      37.800  11.765  11.671  0.00  0.00     0.210 HD
ENDBRANCH   5  24
BRANCH   1  26
HETATM   26  N   UNK N   1      35.131  12.159  15.786  0.00  0.00    -0.300 N 
HETATM   27  C   UNK N   1      35.325  11.442  16.905  0.00  0.00     0.142 A 
HETATM   28  C   UNK N   1      35.270  12.261  17.973  0.00  0.00     0.122 A 
HETATM   29  N   UNK N   1      35.566  10.114  17.021  0.00  0.00    -0.336 N 
HETATM   30  C   UNK N   1      35.454  11.753  19.248  0.00  0.00     0.131 A 
HETATM   31  N   UNK N   1      35.038  13.524  17.572  0.00  0.00    -0.346 N 
HETATM   32  N   UNK N   1      35.697  10.415  19.377  0.00  0.00    -0.337 N 
HETATM   33  C   UNK N   1      35.755   9.598  18.274  0.00  0.00     0.183 A 
ATOM     34  HN  UNK N   1      35.837  10.017  20.306  1.00  0.00     0.168 HD
HETATM   35  C   UNK N   1      34.963  13.437  16.214  0.00  0.00     0.188 A 
ATOM     36  HN  UNK N   1      34.941  14.357  18.152  1.00  0.00     0.167 HD
ATOM     37  HN  UNK N   1      35.606   9.515  16.196  1.00  0.00     0.168 HD
BRANCH  30  38
HETATM   38  N   UNK N   1      35.399  12.587  20.384  0.00  0.00    -0.383 N 
HETATM   39  H   UNK N   1      34.564  12.765  20.874  0.00  0.00     0.157 HD
HETATM   40  H   UNK N   1      36.231  13.009  20.700  0.00  0.00     0.157 HD
ENDBRANCH  30  38
ENDBRANCH   1  26
TORSDOF 14
ENDMDL
MODEL 6
REMARK VINA RESULT:      -6.4      3.866      5.903
REMARK  14 active torsions:
REMARK  status: ('A' for Active; 'I' for Inactive)
REMARK    1  A    between atoms: C_3  and  N_1 
REMARK    2  A    between atoms: C_12  and  N_18 
REMARK    3  A    between atoms: C_14  and  C_19 
REMARK    4  A    between atoms: C_15  and  O_20 
REMARK    5  A    between atoms: C_19  and  O_21 
REMARK    6  A    between atoms: O_21  and  P_22 
REMARK    7  A    between atoms: P_22  and  O_23 
REMARK    8  A    between atoms: P_22  and  O_24 
REMARK    9  A    between atoms: O_23  and  P_26 
REMARK   10  A    between atoms: P_26  and  O_27 
REMARK   11  A    between atoms: P_26  and  O_28 
REMARK   12  A    between atoms: O_27  and  P_30 
REMARK   13  A    between atoms: P_30  and  O_31 
REMARK   14  A    between atoms: P_30  and  O_32 
ROOT
HETATM    1  C   UNK N   1      32.592  17.272   7.402  0.00  0.00     0.233 C 
HETATM    2  O   UNK N   1      32.561  16.189   8.307  0.00  0.00    -0.356 OA
HETATM    3  C   UNK N   1      33.658  18.256   7.857  0.00  0.00     0.088 C 
HETATM    4  C   UNK N   1      33.654  16.376   9.177  0.00  0.00     0.177 C 
HETATM    5  C   UNK N   1      34.607  17.352   8.558  0.00  0.00     0.153 C 
ENDROOT
BRANCH   4   6
HETATM    6  C   UNK N   1      34.354  15.060   9.517  0.00  0.00     0.215 C 
BRANCH   6   7
HETATM    7  O   UNK N   1      35.664  15.111   9.019  0.00  0.00    -0.294 OA
BRANCH   7   8
HETATM    8  P   UNK N   1      36.864  14.416  10.124  0.00  0.00     0.401 P 
HETATM    9  O   UNK N   1      35.712  13.390  10.299  0.00  0.00    -0.631 OA
BRANCH   8  10
HETATM   10  O   UNK N   1      36.129  14.622  11.710  0.00  0.00    -0.195 OA
BRANCH  10  11
HETATM   11  P   UNK N   1      35.851  13.059  12.463  0.00  0.00     0.410 P 
HETATM   12  O   UNK N   1      35.211  14.088  13.437  0.00  0.00    -0.631 OA
BRANCH  11  13
HETATM   13  O   UNK N   1      36.634  12.741  14.020  0.00  0.00    -0.195 OA
BRANCH  13  14
HETATM   14  P   UNK N   1      36.965  11.020  14.352  0.00  0.00     0.399 P 
HETATM   15  O   UNK N   1      36.233  10.824  12.996  0.00  0.00    -0.631 OA
BRANCH  14  16
HETATM   16  O   UNK N   1      38.566  11.699  14.382  0.00  0.00    -0.307 OA
HETATM   17  H   UNK N   1      38.755  12.640  14.529  0.00  0.00     0.222 HD
ENDBRANCH  14  16
BRANCH  14  18
HETATM   18  O   UNK N   1      38.081  10.251  13.269  0.00  0.00    -0.307 OA
HETATM   19  H   UNK N   1      38.517   9.536  12.780  0.00  0.00     0.222 HD
ENDBRANCH  14  18
ENDBRANCH  13  14
ENDBRANCH  11  13
BRANCH  11  20
HETATM   20  O   UNK N   1      37.571  13.277  12.357  0.00  0.00    -0.307 OA
HETATM   21  H   UNK N   1      38.351  12.701  12.398  0.00  0.00     0.222 HD
ENDBRANCH  11  20
ENDBRANCH  10  11
ENDBRANCH   8  10
BRANCH   8  22
HETATM   22  O   UNK N   1      36.962  15.959  10.923  0.00  0.00    -0.307 OA
HETATM   23  H   UNK N   1      37.391  16.830  10.934  0.00  0.00     0.222 HD
ENDBRANCH   8  22
ENDBRANCH   7   8
ENDBRANCH   6   7
ENDBRANCH   4   6
BRANCH   5  24
HETATM   24  O   UNK N   1      35.314  18.043   9.541  0.00  0.00    -0.393 OA
HETATM   25  H   UNK N   1      34.859  18.589  10.201  0.00  0.00     0.210 HD
ENDBRANCH   5  24
BRANCH   1  26
HETATM   26  N   UNK N   1      32.813  16.758   6.049  0.00  0.00    -0.300 N 
HETATM   27  C   UNK N   1      32.851  15.496   5.593  0.00  0.00     0.142 A 
HETATM   28  C   UNK N   1      33.063  15.509   4.263  0.00  0.00     0.122 A 
HETATM   29  N   UNK N   1      32.691  14.346   6.290  0.00  0.00    -0.336 N 
HETATM   30  C   UNK N   1      33.132  14.319   3.558  0.00  0.00     0.131 A 
HETATM   31  N   UNK N   1      33.167  16.777   3.827  0.00  0.00    -0.346 N 
HETATM   32  N   UNK N   1      32.971  13.152   4.252  0.00  0.00    -0.337 N 
HETATM   33  C   UNK N   1      32.751  13.162   5.607  0.00  0.00     0.183 A 
ATOM     34  HN  UNK N   1      33.016  12.262   3.755  1.00  0.00     0.168 HD
HETATM   35  C   UNK N   1      33.001  17.533   4.950  0.00  0.00     0.188 A 
ATOM     36  HN  UNK N   1      33.332  17.100   2.874  1.00  0.00     0.167 HD
ATOM     37  HN  UNK N   1      32.529  14.362   7.298  1.00  0.00     0.168 HD
BRANCH  30  38
HETATM   38  N   UNK N   1      33.354  14.303   2.167  0.00  0.00    -0.383 N 
HETATM   39  H   UNK N   1      34.167  14.675   1.753  0.00  0.00     0.157 HD
HETATM   40  H   UNK N   1      32.668  13.904   1.584  0.00  0.00     0.157 HD
ENDBRANCH  30  38
ENDBRANCH   1  26
TORSDOF 14
ENDMDL
MODEL 7
REMARK VINA RESULT:      -6.4      6.963      9.007
REMARK  14 active torsions:
REMARK  status: ('A' for Active; 'I' for Inactive)
REMARK    1  A    between atoms: C_3  and  N_1 
REMARK    2  A    between atoms: C_12  and  N_18 
REMARK    3  A    between atoms: C_14  and  C_19 
REMARK    4  A    between atoms: C_15  and  O_20 
REMARK    5  A    between atoms: C_19  and  O_21 
REMARK    6  A    between atoms: O_21  and  P_22 
REMARK    7  A    between atoms: P_22  and  O_23 
REMARK    8  A    between atoms: P_22  and  O_24 
REMARK    9  A    between atoms: O_23  and  P_26 
REMARK   10  A    between atoms: P_26  and  O_27 
REMARK   11  A    between atoms: P_26  and  O_28 
REMARK   12  A    between atoms: O_27  and  P_30 
REMARK   13  A    between atoms: P_30  and  O_31 
REMARK   14  A    between atoms: P_30  and  O_32 
ROOT
HETATM    1  C   UNK N   1      35.501  10.820  13.397  0.00  0.00     0.233 C 
HETATM    2  O   UNK N   1      36.524  11.791  13.447  0.00  0.00    -0.356 OA
HETATM    3  C   UNK N   1      34.458  11.157  14.449  0.00  0.00     0.088 C 
HETATM    4  C   UNK N   1      36.077  12.783  14.343  0.00  0.00     0.177 C 
HETATM    5  C   UNK N   1      34.598  12.634  14.535  0.00  0.00     0.153 C 
ENDROOT
BRANCH   4   6
HETATM    6  C   UNK N   1      36.434  14.192  13.871  0.00  0.00     0.215 C 
BRANCH   6   7
HETATM    7  O   UNK N   1      36.474  14.196  12.469  0.00  0.00    -0.294 OA
BRANCH   7   8
HETATM    8  P   UNK N   1      35.515  15.496  11.740  0.00  0.00     0.401 P 
HETATM    9  O   UNK N   1      34.637  14.272  11.366  0.00  0.00    -0.631 OA
BRANCH   8  10
HETATM   10  O   UNK N   1      35.646  15.185  10.013  0.00  0.00    -0.195 OA
BRANCH  10  11
HETATM   11  P   UNK N   1      34.051  15.115   9.280  0.00  0.00     0.410 P 
HETATM   12  O   UNK N   1      35.035  14.818   8.114  0.00  0.00    -0.631 OA
BRANCH  11  13
HETATM   13  O   UNK N   1      33.654  16.324   8.047  0.00  0.00    -0.195 OA
BRANCH  13  14
HETATM   14  P   UNK N   1      31.922  16.733   7.933  0.00  0.00     0.399 P 
HETATM   15  O   UNK N   1      31.806  15.703   9.089  0.00  0.00    -0.631 OA
BRANCH  14  16
HETATM   16  O   UNK N   1      32.634  18.292   8.229  0.00  0.00    -0.307 OA
HETATM   17  H   UNK N   1      32.569  18.768   9.072  0.00  0.00     0.222 HD
ENDBRANCH  14  16
BRANCH  14  18
HETATM   18  O   UNK N   1      31.259  17.567   9.302  0.00  0.00    -0.307 OA
HETATM   19  H   UNK N   1      30.868  17.690  10.181  0.00  0.00     0.222 HD
ENDBRANCH  14  18
ENDBRANCH  13  14
ENDBRANCH  11  13
BRANCH  11  20
HETATM   20  O   UNK N   1      34.264  16.728   9.890  0.00  0.00    -0.307 OA
HETATM   21  H   UNK N   1      33.789  17.571   9.814  0.00  0.00     0.222 HD
ENDBRANCH  11  20
ENDBRANCH  10  11
ENDBRANCH   8  10
BRANCH   8  22
HETATM   22  O   UNK N   1      36.939  16.009  10.879  0.00  0.00    -0.307 OA
HETATM   23  H   UNK N   1      37.722  15.721  10.384  0.00  0.00     0.222 HD
ENDBRANCH   8  22
ENDBRANCH   7   8
ENDBRANCH   6   7
ENDBRANCH   4   6
BRANCH   5  24
HETATM   24  O   UNK N   1      34.215  13.096  15.793  0.00  0.00    -0.393 OA
HETATM   25  H   UNK N   1      34.674  12.810  16.598  0.00  0.00     0.210 HD
ENDBRANCH   5  24
BRANCH   1  26
HETATM   26  N   UNK N   1      34.961  10.764  12.037  0.00  0.00    -0.300 N 
HETATM   27  C   UNK N   1      35.477  11.201  10.877  0.00  0.00     0.142 A 
HETATM   28  C   UNK N   1      34.627  10.911   9.874  0.00  0.00     0.122 A 
HETATM   29  N   UNK N   1      36.662  11.821  10.666  0.00  0.00    -0.336 N 
HETATM   30  C   UNK N   1      34.945  11.255   8.571  0.00  0.00     0.131 A 
HETATM   31  N   UNK N   1      33.542  10.282  10.359  0.00  0.00    -0.346 N 
HETATM   32  N   UNK N   1      36.139  11.881   8.346  0.00  0.00    -0.337 N 
HETATM   33  C   UNK N   1      36.995  12.163   9.383  0.00  0.00     0.183 A 
ATOM     34  HN  UNK N   1      36.398  12.144   7.395  1.00  0.00     0.168 HD
HETATM   35  C   UNK N   1      33.775  10.195  11.700  0.00  0.00     0.188 A 
ATOM     36  HN  UNK N   1      32.729   9.945   9.843  1.00  0.00     0.167 HD
ATOM     37  HN  UNK N   1      37.292  12.028  11.442  1.00  0.00     0.168 HD
BRANCH  30  38
HETATM   38  N   UNK N   1      34.073  10.966   7.502  0.00  0.00    -0.383 N 
HETATM   39  H   UNK N   1      33.112  10.794   7.631  0.00  0.00     0.157 HD
HETATM   40  H   UNK N   1      34.440  10.935   6.589  0.00  0.00     0.157 HD
ENDBRANCH  30  38
ENDBRANCH   1  26
TORSDOF 14
ENDMDL
MODEL 8
REMARK VINA RESULT:      -6.4      1.455      2.248
REMARK  14 active torsions:
REMARK  status: ('A' for Active; 'I' for Inactive)
REMARK    1  A    between atoms: C_3  and  N_1 
REMARK    2  A    between atoms: C_12  and  N_18 
REMARK    3  A    between atoms: C_14  and  C_19 
REMARK    4  A    between atoms: C_15  and  O_20 
REMARK    5  A    between atoms: C_19  and  O_21 
REMARK    6  A    between atoms: O_21  and  P_22 
REMARK    7  A    between atoms: P_22  and  O_23 
REMARK    8  A    between atoms: P_22  and  O_24 
REMARK    9  A    between atoms: O_23  and  P_26 
REMARK   10  A    between atoms: P_26  and  O_27 
REMARK   11  A    between atoms: P_26  and  O_28 
REMARK   12  A    between atoms: O_27  and  P_30 
REMARK   13  A    between atoms: P_30  and  O_31 
REMARK   14  A    between atoms: P_30  and  O_32 
ROOT
HETATM    1  C   UNK N   1      30.715  14.559   4.190  0.00  0.00     0.233 C 
HETATM    2  O   UNK N   1      31.272  15.853   4.117  0.00  0.00    -0.356 OA
HETATM    3  C   UNK N   1      31.649  13.671   4.997  0.00  0.00     0.088 C 
HETATM    4  C   UNK N   1      32.393  15.844   4.972  0.00  0.00     0.177 C 
HETATM    5  C   UNK N   1      32.293  14.667   5.893  0.00  0.00     0.153 C 
ENDROOT
BRANCH   4   6
HETATM    6  C   UNK N   1      32.533  17.149   5.756  0.00  0.00     0.215 C 
BRANCH   6   7
HETATM    7  O   UNK N   1      32.807  16.836   7.096  0.00  0.00    -0.294 OA
BRANCH   7   8
HETATM    8  P   UNK N   1      33.532  18.179   7.998  0.00  0.00     0.401 P 
HETATM    9  O   UNK N   1      34.602  17.991   6.889  0.00  0.00    -0.631 OA
BRANCH   8  10
HETATM   10  O   UNK N   1      34.983  17.468   8.697  0.00  0.00    -0.195 OA
BRANCH  10  11
HETATM   11  P   UNK N   1      34.555  16.283   9.922  0.00  0.00     0.410 P 
HETATM   12  O   UNK N   1      35.753  17.065  10.529  0.00  0.00    -0.631 OA
BRANCH  11  13
HETATM   13  O   UNK N   1      35.747  15.033  10.314  0.00  0.00    -0.195 OA
BRANCH  13  14
HETATM   14  P   UNK N   1      35.075  13.581  11.103  0.00  0.00     0.399 P 
HETATM   15  O   UNK N   1      36.333  13.731  12.002  0.00  0.00    -0.631 OA
BRANCH  14  16
HETATM   16  O   UNK N   1      33.760  14.710  11.258  0.00  0.00    -0.307 OA
HETATM   17  H   UNK N   1      33.440  15.275  10.537  0.00  0.00     0.222 HD
ENDBRANCH  14  16
BRANCH  14  18
HETATM   18  O   UNK N   1      34.522  13.805  12.732  0.00  0.00    -0.307 OA
HETATM   19  H   UNK N   1      33.905  13.831  13.480  0.00  0.00     0.222 HD
ENDBRANCH  14  18
ENDBRANCH  13  14
ENDBRANCH  11  13
BRANCH  11  20
HETATM   20  O   UNK N   1      35.032  15.403   8.502  0.00  0.00    -0.307 OA
HETATM   21  H   UNK N   1      34.601  14.791   7.883  0.00  0.00     0.222 HD
ENDBRANCH  11  20
ENDBRANCH  10  11
ENDBRANCH   8  10
BRANCH   8  22
HETATM   22  O   UNK N   1      33.409  17.219   9.446  0.00  0.00    -0.307 OA
HETATM   23  H   UNK N   1      33.483  17.217  10.413  0.00  0.00     0.222 HD
ENDBRANCH   8  22
ENDBRANCH   7   8
ENDBRANCH   6   7
ENDBRANCH   4   6
BRANCH   5  24
HETATM   24  O   UNK N   1      33.560  14.235   6.282  0.00  0.00    -0.393 OA
HETATM   25  H   UNK N   1      34.218  14.854   6.637  0.00  0.00     0.210 HD
ENDBRANCH   5  24
BRANCH   1  26
HETATM   26  N   UNK N   1      29.366  14.649   4.752  0.00  0.00    -0.300 N 
HETATM   27  C   UNK N   1      28.722  15.689   5.306  0.00  0.00     0.142 A 
HETATM   28  C   UNK N   1      27.482  15.305   5.665  0.00  0.00     0.122 A 
HETATM   29  N   UNK N   1      29.171  16.954   5.489  0.00  0.00    -0.336 N 
HETATM   30  C   UNK N   1      26.616  16.212   6.252  0.00  0.00     0.131 A 
HETATM   31  N   UNK N   1      27.295  14.010   5.353  0.00  0.00    -0.346 N 
HETATM   32  N   UNK N   1      27.059  17.492   6.441  0.00  0.00    -0.337 N 
HETATM   33  C   UNK N   1      28.325  17.864   6.062  0.00  0.00     0.183 A 
ATOM     34  HN  UNK N   1      26.439  18.179   6.870  1.00  0.00     0.168 HD
HETATM   35  C   UNK N   1      28.472  13.627   4.783  0.00  0.00     0.188 A 
ATOM     36  HN  UNK N   1      26.461  13.443   5.509  1.00  0.00     0.167 HD
ATOM     37  HN  UNK N   1      30.115  17.222   5.206  1.00  0.00     0.168 HD
BRANCH  30  38
HETATM   38  N   UNK N   1      25.314  15.837   6.639  0.00  0.00    -0.383 N 
HETATM   39  H   UNK N   1      25.139  15.188   7.358  0.00  0.00     0.157 HD
HETATM   40  H   UNK N   1      24.548  16.242   6.171  0.00  0.00     0.157 HD
ENDBRANCH  30  38
ENDBRANCH   1  26
TORSDOF 14
ENDMDL
MODEL 9
REMARK VINA RESULT:      -6.3     13.191     14.564
REMARK  14 active torsions:
REMARK  status: ('A' for Active; 'I' for Inactive)
REMARK    1  A    between atoms: C_3  and  N_1 
REMARK    2  A    between atoms: C_12  and  N_18 
REMARK    3  A    between atoms: C_14  and  C_19 
REMARK    4  A    between atoms: C_15  and  O_20 
REMARK    5  A    between atoms: C_19  and  O_21 
REMARK    6  A    between atoms: O_21  and  P_22 
REMARK    7  A    between atoms: P_22  and  O_23 
REMARK    8  A    between atoms: P_22  and  O_24 
REMARK    9  A    between atoms: O_23  and  P_26 
REMARK   10  A    between atoms: P_26  and  O_27 
REMARK   11  A    between atoms: P_26  and  O_28 
REMARK   12  A    between atoms: O_27  and  P_30 
REMARK   13  A    between atoms: P_30  and  O_31 
REMARK   14  A    between atoms: P_30  and  O_32 
ROOT
HETATM    1  C   UNK N   1      26.827  26.317  -6.182  0.00  0.00     0.233 C 
HETATM    2  O   UNK N   1      27.976  25.498  -6.205  0.00  0.00    -0.356 OA
HETATM    3  C   UNK N   1      25.597  25.432  -6.298  0.00  0.00     0.088 C 
HETATM    4  C   UNK N   1      27.510  24.169  -6.156  0.00  0.00     0.177 C 
HETATM    5  C   UNK N   1      26.088  24.170  -5.685  0.00  0.00     0.153 C 
ENDROOT
BRANCH   4   6
HETATM    6  C   UNK N   1      28.385  23.282  -5.270  0.00  0.00     0.215 C 
BRANCH   6   7
HETATM    7  O   UNK N   1      29.299  24.098  -4.586  0.00  0.00    -0.294 OA
BRANCH   7   8
HETATM    8  P   UNK N   1      29.472  23.679  -2.872  0.00  0.00     0.401 P 
HETATM    9  O   UNK N   1      30.315  24.982  -2.917  0.00  0.00    -0.631 OA
BRANCH   8  10
HETATM   10  O   UNK N   1      31.180  23.280  -2.718  0.00  0.00    -0.195 OA
BRANCH  10  11
HETATM   11  P   UNK N   1      31.525  21.750  -3.510  0.00  0.00     0.410 P 
HETATM   12  O   UNK N   1      32.272  21.669  -2.149  0.00  0.00    -0.631 OA
BRANCH  11  13
HETATM   13  O   UNK N   1      33.207  21.408  -3.948  0.00  0.00    -0.195 OA
BRANCH  13  14
HETATM   14  P   UNK N   1      33.460  19.850  -4.778  0.00  0.00     0.399 P 
HETATM   15  O   UNK N   1      34.707  19.786  -3.854  0.00  0.00    -0.631 OA
BRANCH  14  16
HETATM   16  O   UNK N   1      31.870  19.637  -4.104  0.00  0.00    -0.307 OA
HETATM   17  H   UNK N   1      31.619  19.911  -3.208  0.00  0.00     0.222 HD
ENDBRANCH  14  16
BRANCH  14  18
HETATM   18  O   UNK N   1      33.294  18.437  -3.784  0.00  0.00    -0.307 OA
HETATM   19  H   UNK N   1      32.967  17.572  -3.493  0.00  0.00     0.222 HD
ENDBRANCH  14  18
ENDBRANCH  13  14
ENDBRANCH  11  13
BRANCH  11  20
HETATM   20  O   UNK N   1      32.181  23.007  -4.515  0.00  0.00    -0.307 OA
HETATM   21  H   UNK N   1      32.206  23.197  -5.466  0.00  0.00     0.222 HD
ENDBRANCH  11  20
ENDBRANCH  10  11
ENDBRANCH   8  10
BRANCH   8  22
HETATM   22  O   UNK N   1      30.035  22.104  -3.357  0.00  0.00    -0.307 OA
HETATM   23  H   UNK N   1      30.449  21.277  -3.063  0.00  0.00     0.222 HD
ENDBRANCH   8  22
ENDBRANCH   7   8
ENDBRANCH   6   7
ENDBRANCH   4   6
BRANCH   5  24
HETATM   24  O   UNK N   1      25.398  23.071  -6.195  0.00  0.00    -0.393 OA
HETATM   25  H   UNK N   1      24.455  23.124  -6.416  0.00  0.00     0.210 HD
ENDBRANCH   5  24
BRANCH   1  26
HETATM   26  N   UNK N   1      26.845  27.133  -4.966  0.00  0.00    -0.300 N 
HETATM   27  C   UNK N   1      27.878  27.652  -4.282  0.00  0.00     0.142 A 
HETATM   28  C   UNK N   1      27.410  28.353  -3.233  0.00  0.00     0.122 A 
HETATM   29  N   UNK N   1      29.201  27.549  -4.553  0.00  0.00    -0.336 N 
HETATM   30  C   UNK N   1      28.289  28.996  -2.378  0.00  0.00     0.131 A 
HETATM   31  N   UNK N   1      26.065  28.305  -3.212  0.00  0.00    -0.346 N 
HETATM   32  N   UNK N   1      29.626  28.899  -2.641  0.00  0.00    -0.337 N 
HETATM   33  C   UNK N   1      30.083  28.183  -3.720  0.00  0.00     0.183 A 
ATOM     34  HN  UNK N   1      30.294  29.365  -2.027  1.00  0.00     0.168 HD
HETATM   35  C   UNK N   1      25.739  27.550  -4.299  0.00  0.00     0.188 A 
ATOM     36  HN  UNK N   1      25.434  28.736  -2.536  1.00  0.00     0.167 HD
ATOM     37  HN  UNK N   1      29.532  27.013  -5.356  1.00  0.00     0.168 HD
BRANCH  30  38
HETATM   38  N   UNK N   1      27.826  29.736  -1.270  0.00  0.00    -0.383 N 
HETATM   39  H   UNK N   1      27.559  30.681  -1.336  0.00  0.00     0.157 HD
HETATM   40  H   UNK N   1      27.767  29.288  -0.395  0.00  0.00     0.157 HD
ENDBRANCH  30  38
ENDBRANCH   1  26
TORSDOF 14
ENDMDL
