REMARK  1 active torsions:
REMARK  status: ('A' for Active; 'I' for Inactive)
REMARK    1  A    between atoms: O_1  and  C_2 
ROOT
HETATM    1  C   UNK N   1       1.848   0.823  -0.000  0.00  0.00     0.087 A 
HETATM    2  C   UNK N   1       1.681  -0.566  -0.000  0.00  0.00     0.038 A 
HETATM    3  C   UNK N   1       0.396  -1.117  -0.000  0.00  0.00     0.003 A 
HETATM    4  C   UNK N   1      -0.724  -0.281   0.000  0.00  0.00     0.002 A 
HETATM    5  C   UNK N   1      -0.560   1.107   0.000  0.00  0.00     0.026 A 
HETATM    6  C   UNK N   1       0.724   1.661   0.000  0.00  0.00     0.067 A 
HETATM    7 Cl   UNK N   1       0.914   3.403   0.000  0.00  0.00    -0.081 Cl
ENDROOT
BRANCH   1   8
HETATM    8  O   UNK N   1       3.086   1.346  -0.000  0.00  0.00    -0.359 OA
HETATM    9  H   UNK N   1       3.833   0.781  -0.000  0.00  0.00     0.217 HD
ENDBRANCH   1   8
TORSDOF 1
