MODEL 1
REMARK VINA RESULT:      -6.3      0.000      0.000
REMARK  5 active torsions:
REMARK  status: ('A' for Active; 'I' for Inactive)
REMARK    1  A    between atoms: C_4  and  C_1 
REMARK    2  A    between atoms: O_19  and  C_1 
REMARK    3  A    between atoms: C_7  and  O_21 
REMARK    4  A    between atoms: N_11  and  C_8 
REMARK    5  A    between atoms: C_10  and  N_18 
ROOT
HETATM    1  C   UNK N   1      29.219  16.597   6.189  0.00  0.00     0.183 A 
HETATM    2  C   UNK N   1      33.494  17.575   5.590  0.00  0.00     0.188 A 
HETATM    3  C   UNK N   1      31.533  17.130   4.859  0.00  0.00     0.122 A 
HETATM    4  C   UNK N   1      30.391  16.850   4.126  0.00  0.00     0.131 A 
HETATM    5  C   UNK N   1      31.495  17.120   6.205  0.00  0.00     0.142 A 
HETATM    6  N   UNK N   1      29.238  16.589   4.814  0.00  0.00    -0.337 N 
ATOM      7  HN  UNK N   1      28.382  16.385   4.300  1.00  0.00     0.168 HD
HETATM    8  N   UNK N   1      30.361  16.853   6.899  0.00  0.00    -0.336 N 
ATOM      9  HN  UNK N   1      30.359  16.844   7.919  1.00  0.00     0.168 HD
HETATM   10  N   UNK N   1      32.779  17.418   4.440  0.00  0.00    -0.346 N 
ATOM     11  HN  UNK N   1      33.113  17.499   3.479  1.00  0.00     0.167 HD
HETATM   12  N   UNK N   1      32.716  17.385   6.689  0.00  0.00    -0.297 N 
ENDROOT
BRANCH  12  13
HETATM   13  C   UNK N   1      33.163  17.383   8.085  0.00  0.00     0.267 C 
HETATM   14  C   UNK N   1      34.645  17.719   8.274  0.00  0.00     0.239 C 
HETATM   15  C   UNK N   1      34.814  17.094   9.586  0.00  0.00     0.190 C 
HETATM   16  C   UNK N   1      33.704  16.156   9.891  0.00  0.00     0.220 C 
HETATM   17  O   UNK N   1      35.770  17.290  10.320  0.00  0.00    -0.292 OA
HETATM   18  O   UNK N   1      32.921  16.135   8.712  0.00  0.00    -0.348 OA
BRANCH  14  19
HETATM   19  O   UNK N   1      34.833  19.103   8.332  0.00  0.00    -0.383 OA
HETATM   20  H   UNK N   1      34.161  19.801   8.380  0.00  0.00     0.210 HD
ENDBRANCH  14  19
BRANCH  16  21
HETATM   21  C   UNK N   1      34.219  14.751  10.174  0.00  0.00     0.204 C 
BRANCH  21  22
HETATM   22  O   UNK N   1      33.900  14.372  11.481  0.00  0.00    -0.398 OA
HETATM   23  H   UNK N   1      34.569  14.429  12.182  0.00  0.00     0.209 HD
ENDBRANCH  21  22
ENDBRANCH  16  21
ENDBRANCH  12  13
BRANCH   4  24
HETATM   24  N   UNK N   1      30.411  16.817   2.718  0.00  0.00    -0.383 N 
HETATM   25  H   UNK N   1      30.880  17.508   2.198  0.00  0.00     0.157 HD
HETATM   26  H   UNK N   1      29.946  16.089   2.246  0.00  0.00     0.157 HD
ENDBRANCH   4  24
TORSDOF 5
ENDMDL
MODEL 2
REMARK VINA RESULT:      -6.1      2.787      4.515
REMARK  5 active torsions:
REMARK  status: ('A' for Active; 'I' for Inactive)
REMARK    1  A    between atoms: C_4  and  C_1 
REMARK    2  A    between atoms: O_19  and  C_1 
REMARK    3  A    between atoms: C_7  and  O_21 
REMARK    4  A    between atoms: N_11  and  C_8 
REMARK    5  A    between atoms: C_10  and  N_18 
ROOT
HETATM    1  C   UNK N   1      28.142  19.270   4.714  0.00  0.00     0.183 A 
HETATM    2  C   UNK N   1      28.944  18.006   8.879  0.00  0.00     0.188 A 
HETATM    3  C   UNK N   1      27.887  19.162   7.422  0.00  0.00     0.122 A 
HETATM    4  C   UNK N   1      27.076  20.029   6.709  0.00  0.00     0.131 A 
HETATM    5  C   UNK N   1      28.796  18.402   6.781  0.00  0.00     0.142 A 
HETATM    6  N   UNK N   1      27.217  20.065   5.349  0.00  0.00    -0.337 N 
ATOM      7  HN  UNK N   1      26.629  20.690   4.799  1.00  0.00     0.168 HD
HETATM    8  N   UNK N   1      28.953  18.435   5.435  0.00  0.00    -0.336 N 
ATOM      9  HN  UNK N   1      29.653  17.854   4.973  1.00  0.00     0.168 HD
HETATM   10  N   UNK N   1      27.953  18.932   8.746  0.00  0.00    -0.346 N 
ATOM     11  HN  UNK N   1      27.389  19.356   9.483  1.00  0.00     0.167 HD
HETATM   12  N   UNK N   1      29.480  17.675   7.674  0.00  0.00    -0.297 N 
ENDROOT
BRANCH  12  13
HETATM   13  C   UNK N   1      30.622  16.784   7.442  0.00  0.00     0.267 C 
HETATM   14  C   UNK N   1      31.690  16.827   8.539  0.00  0.00     0.239 C 
HETATM   15  C   UNK N   1      32.804  16.321   7.737  0.00  0.00     0.190 C 
HETATM   16  C   UNK N   1      32.512  16.403   6.283  0.00  0.00     0.220 C 
HETATM   17  O   UNK N   1      33.858  15.919   8.205  0.00  0.00    -0.292 OA
HETATM   18  O   UNK N   1      31.261  17.061   6.208  0.00  0.00    -0.348 OA
BRANCH  14  19
HETATM   19  O   UNK N   1      31.362  15.954   9.580  0.00  0.00    -0.383 OA
HETATM   20  H   UNK N   1      31.938  15.328  10.046  0.00  0.00     0.210 HD
ENDBRANCH  14  19
BRANCH  16  21
HETATM   21  C   UNK N   1      33.558  17.230   5.547  0.00  0.00     0.204 C 
BRANCH  21  22
HETATM   22  O   UNK N   1      34.299  17.993   6.453  0.00  0.00    -0.398 OA
HETATM   23  H   UNK N   1      33.846  18.536   7.117  0.00  0.00     0.209 HD
ENDBRANCH  21  22
ENDBRANCH  16  21
ENDBRANCH  12  13
BRANCH   4  24
HETATM   24  N   UNK N   1      26.143  20.863   7.357  0.00  0.00    -0.383 N 
HETATM   25  H   UNK N   1      26.432  21.666   7.848  0.00  0.00     0.157 HD
HETATM   26  H   UNK N   1      25.186  20.639   7.317  0.00  0.00     0.157 HD
ENDBRANCH   4  24
TORSDOF 5
ENDMDL
MODEL 3
REMARK VINA RESULT:      -6.1      2.329      3.519
REMARK  5 active torsions:
REMARK  status: ('A' for Active; 'I' for Inactive)
REMARK    1  A    between atoms: C_4  and  C_1 
REMARK    2  A    between atoms: O_19  and  C_1 
REMARK    3  A    between atoms: C_7  and  O_21 
REMARK    4  A    between atoms: N_11  and  C_8 
REMARK    5  A    between atoms: C_10  and  N_18 
ROOT
HETATM    1  C   UNK N   1      29.582  18.095   9.973  0.00  0.00     0.183 A 
HETATM    2  C   UNK N   1      30.818  16.832   5.916  0.00  0.00     0.188 A 
HETATM    3  C   UNK N   1      29.476  17.804   7.270  0.00  0.00     0.122 A 
HETATM    4  C   UNK N   1      28.446  18.471   7.910  0.00  0.00     0.131 A 
HETATM    5  C   UNK N   1      30.501  17.295   7.982  0.00  0.00     0.142 A 
HETATM    6  N   UNK N   1      28.520  18.610   9.268  0.00  0.00    -0.337 N 
ATOM      7  HN  UNK N   1      27.778  19.102   9.765  1.00  0.00     0.168 HD
HETATM    8  N   UNK N   1      30.582  17.417   9.329  0.00  0.00    -0.336 N 
ATOM      9  HN  UNK N   1      31.364  17.018   9.847  1.00  0.00     0.168 HD
HETATM   10  N   UNK N   1      29.650  17.532   5.963  0.00  0.00    -0.346 N 
ATOM     11  HN  UNK N   1      29.043  17.790   5.185  1.00  0.00     0.167 HD
HETATM   12  N   UNK N   1      31.352  16.670   7.157  0.00  0.00    -0.297 N 
ENDROOT
BRANCH  12  13
HETATM   13  C   UNK N   1      32.548  15.895   7.498  0.00  0.00     0.267 C 
HETATM   14  C   UNK N   1      32.267  14.444   7.898  0.00  0.00     0.239 C 
HETATM   15  C   UNK N   1      33.499  14.216   8.655  0.00  0.00     0.190 C 
HETATM   16  C   UNK N   1      34.169  15.494   9.005  0.00  0.00     0.220 C 
HETATM   17  O   UNK N   1      33.903  13.113   8.991  0.00  0.00    -0.292 OA
HETATM   18  O   UNK N   1      33.281  16.498   8.550  0.00  0.00    -0.348 OA
BRANCH  14  19
HETATM   19  O   UNK N   1      32.196  13.626   6.767  0.00  0.00    -0.383 OA
HETATM   20  H   UNK N   1      31.430  13.143   6.419  0.00  0.00     0.210 HD
ENDBRANCH  14  19
BRANCH  16  21
HETATM   21  C   UNK N   1      34.357  15.635  10.510  0.00  0.00     0.204 C 
BRANCH  21  22
HETATM   22  O   UNK N   1      33.327  14.980  11.190  0.00  0.00    -0.398 OA
HETATM   23  H   UNK N   1      33.248  15.067  12.154  0.00  0.00     0.209 HD
ENDBRANCH  21  22
ENDBRANCH  16  21
ENDBRANCH  12  13
BRANCH   4  24
HETATM   24  N   UNK N   1      27.343  18.980   7.195  0.00  0.00    -0.383 N 
HETATM   25  H   UNK N   1      26.443  18.597   7.304  0.00  0.00     0.157 HD
HETATM   26  H   UNK N   1      27.476  19.733   6.575  0.00  0.00     0.157 HD
ENDBRANCH   4  24
TORSDOF 5
ENDMDL
MODEL 4
REMARK VINA RESULT:      -6.1      3.737      5.527
REMARK  5 active torsions:
REMARK  status: ('A' for Active; 'I' for Inactive)
REMARK    1  A    between atoms: C_4  and  C_1 
REMARK    2  A    between atoms: O_19  and  C_1 
REMARK    3  A    between atoms: C_7  and  O_21 
REMARK    4  A    between atoms: N_11  and  C_8 
REMARK    5  A    between atoms: C_10  and  N_18 
ROOT
HETATM    1  C   UNK N   1      32.560  14.087   8.986  0.00  0.00     0.183 A 
HETATM    2  C   UNK N   1      35.525  16.588  11.118  0.00  0.00     0.188 A 
HETATM    3  C   UNK N   1      34.032  16.288   9.615  0.00  0.00     0.122 A 
HETATM    4  C   UNK N   1      33.134  16.364   8.564  0.00  0.00     0.131 A 
HETATM    5  C   UNK N   1      34.181  15.137  10.299  0.00  0.00     0.142 A 
HETATM    6  N   UNK N   1      32.402  15.248   8.266  0.00  0.00    -0.337 N 
ATOM      7  HN  UNK N   1      31.729  15.277   7.501  1.00  0.00     0.168 HD
HETATM    8  N   UNK N   1      33.469  14.021  10.008  0.00  0.00    -0.336 N 
ATOM      9  HN  UNK N   1      33.604  13.159  10.536  1.00  0.00     0.168 HD
HETATM   10  N   UNK N   1      34.863  17.224  10.111  0.00  0.00    -0.346 N 
ATOM     11  HN  UNK N   1      34.973  18.190   9.802  1.00  0.00     0.167 HD
HETATM   12  N   UNK N   1      35.121  15.295  11.241  0.00  0.00    -0.297 N 
ENDROOT
BRANCH  12  13
HETATM   13  C   UNK N   1      35.677  14.289  12.151  0.00  0.00     0.267 C 
HETATM   14  C   UNK N   1      36.540  13.226  11.465  0.00  0.00     0.239 C 
HETATM   15  C   UNK N   1      36.419  12.192  12.495  0.00  0.00     0.190 C 
HETATM   16  C   UNK N   1      35.288  12.470  13.416  0.00  0.00     0.220 C 
HETATM   17  O   UNK N   1      37.135  11.205  12.562  0.00  0.00    -0.292 OA
HETATM   18  O   UNK N   1      34.660  13.617  12.874  0.00  0.00    -0.348 OA
BRANCH  14  19
HETATM   19  O   UNK N   1      37.858  13.672  11.332  0.00  0.00    -0.383 OA
HETATM   20  H   UNK N   1      38.175  14.572  11.158  0.00  0.00     0.210 HD
ENDBRANCH  14  19
BRANCH  16  21
HETATM   21  C   UNK N   1      34.292  11.319  13.443  0.00  0.00     0.204 C 
BRANCH  21  22
HETATM   22  O   UNK N   1      33.967  10.928  12.142  0.00  0.00    -0.398 OA
HETATM   23  H   UNK N   1      33.275  10.265  11.991  0.00  0.00     0.209 HD
ENDBRANCH  21  22
ENDBRANCH  16  21
ENDBRANCH  12  13
BRANCH   4  24
HETATM   24  N   UNK N   1      32.985  17.544   7.808  0.00  0.00    -0.383 N 
HETATM   25  H   UNK N   1      33.313  18.409   8.143  0.00  0.00     0.157 HD
HETATM   26  H   UNK N   1      32.544  17.501   6.929  0.00  0.00     0.157 HD
ENDBRANCH   4  24
TORSDOF 5
ENDMDL
MODEL 5
REMARK VINA RESULT:      -6.0      8.839     11.811
REMARK  5 active torsions:
REMARK  status: ('A' for Active; 'I' for Inactive)
REMARK    1  A    between atoms: C_4  and  C_1 
REMARK    2  A    between atoms: O_19  and  C_1 
REMARK    3  A    between atoms: C_7  and  O_21 
REMARK    4  A    between atoms: N_11  and  C_8 
REMARK    5  A    between atoms: C_10  and  N_18 
ROOT
HETATM    1  C   UNK N   1      26.512  20.543   3.745  0.00  0.00     0.183 A 
HETATM    2  C   UNK N   1      23.763  17.079   3.911  0.00  0.00     0.188 A 
HETATM    3  C   UNK N   1      25.720  17.943   3.864  0.00  0.00     0.122 A 
HETATM    4  C   UNK N   1      27.075  18.226   3.822  0.00  0.00     0.131 A 
HETATM    5  C   UNK N   1      24.816  18.941   3.827  0.00  0.00     0.142 A 
HETATM    6  N   UNK N   1      27.452  19.539   3.767  0.00  0.00    -0.337 N 
ATOM      7  HN  UNK N   1      28.443  19.778   3.741  1.00  0.00     0.168 HD
HETATM    8  N   UNK N   1      25.176  20.246   3.763  0.00  0.00    -0.336 N 
ATOM      9  HN  UNK N   1      24.473  20.984   3.729  1.00  0.00     0.168 HD
HETATM   10  N   UNK N   1      25.087  16.756   3.921  0.00  0.00    -0.346 N 
ATOM     11  HN  UNK N   1      25.504  15.826   3.962  1.00  0.00     0.167 HD
HETATM   12  N   UNK N   1      23.580  18.425   3.845  0.00  0.00    -0.297 N 
ENDROOT
BRANCH  12  13
HETATM   13  C   UNK N   1      22.298  19.127   3.724  0.00  0.00     0.267 C 
HETATM   14  C   UNK N   1      21.109  18.217   3.401  0.00  0.00     0.239 C 
HETATM   15  C   UNK N   1      20.235  19.244   2.833  0.00  0.00     0.190 C 
HETATM   16  C   UNK N   1      20.994  20.471   2.479  0.00  0.00     0.220 C 
HETATM   17  O   UNK N   1      19.039  19.095   2.638  0.00  0.00    -0.292 OA
HETATM   18  O   UNK N   1      22.346  20.140   2.735  0.00  0.00    -0.348 OA
BRANCH  14  19
HETATM   19  O   UNK N   1      20.573  17.672   4.572  0.00  0.00    -0.383 OA
HETATM   20  H   UNK N   1      19.658  17.404   4.749  0.00  0.00     0.210 HD
ENDBRANCH  14  19
BRANCH  16  21
HETATM   21  C   UNK N   1      20.835  20.823   1.006  0.00  0.00     0.204 C 
BRANCH  21  22
HETATM   22  O   UNK N   1      20.616  19.667   0.252  0.00  0.00    -0.398 OA
HETATM   23  H   UNK N   1      21.362  19.210  -0.168  0.00  0.00     0.209 HD
ENDBRANCH  21  22
ENDBRANCH  16  21
ENDBRANCH  12  13
BRANCH   4  24
HETATM   24  N   UNK N   1      28.042  17.201   3.821  0.00  0.00    -0.383 N 
HETATM   25  H   UNK N   1      28.633  17.059   3.048  0.00  0.00     0.157 HD
HETATM   26  H   UNK N   1      28.126  16.616   4.608  0.00  0.00     0.157 HD
ENDBRANCH   4  24
TORSDOF 5
ENDMDL
MODEL 6
REMARK VINA RESULT:      -6.0      5.748      8.410
REMARK  5 active torsions:
REMARK  status: ('A' for Active; 'I' for Inactive)
REMARK    1  A    between atoms: C_4  and  C_1 
REMARK    2  A    between atoms: O_19  and  C_1 
REMARK    3  A    between atoms: C_7  and  O_21 
REMARK    4  A    between atoms: N_11  and  C_8 
REMARK    5  A    between atoms: C_10  and  N_18 
ROOT
HETATM    1  C   UNK N   1      33.937  10.642  13.506  0.00  0.00     0.183 A 
HETATM    2  C   UNK N   1      36.265  14.402  13.659  0.00  0.00     0.188 A 
HETATM    3  C   UNK N   1      35.381  12.684  14.578  0.00  0.00     0.122 A 
HETATM    4  C   UNK N   1      34.902  11.693  15.418  0.00  0.00     0.131 A 
HETATM    5  C   UNK N   1      35.118  12.640  13.257  0.00  0.00     0.142 A 
HETATM    6  N   UNK N   1      34.182  10.674  14.859  0.00  0.00    -0.337 N 
ATOM      7  HN  UNK N   1      33.822   9.928  15.453  1.00  0.00     0.168 HD
HETATM    8  N   UNK N   1      34.398  11.641  12.692  0.00  0.00    -0.336 N 
ATOM      9  HN  UNK N   1      34.206  11.634  11.690  1.00  0.00     0.168 HD
HETATM   10  N   UNK N   1      36.107  13.782  14.862  0.00  0.00    -0.346 N 
ATOM     11  HN  UNK N   1      36.458  14.081  15.772  1.00  0.00     0.167 HD
HETATM   12  N   UNK N   1      35.653  13.714  12.659  0.00  0.00    -0.297 N 
ENDROOT
BRANCH  12  13
HETATM   13  C   UNK N   1      35.537  14.128  11.257  0.00  0.00     0.267 C 
HETATM   14  C   UNK N   1      35.540  15.645  11.045  0.00  0.00     0.239 C 
HETATM   15  C   UNK N   1      34.877  15.653   9.740  0.00  0.00     0.190 C 
HETATM   16  C   UNK N   1      34.200  14.361   9.464  0.00  0.00     0.220 C 
HETATM   17  O   UNK N   1      34.852  16.617   8.991  0.00  0.00    -0.292 OA
HETATM   18  O   UNK N   1      34.364  13.611  10.653  0.00  0.00    -0.348 OA
BRANCH  14  19
HETATM   19  O   UNK N   1      36.849  16.128  10.964  0.00  0.00    -0.383 OA
HETATM   20  H   UNK N   1      37.317  16.473  10.188  0.00  0.00     0.210 HD
ENDBRANCH  14  19
BRANCH  16  21
HETATM   21  C   UNK N   1      32.713  14.554   9.195  0.00  0.00     0.204 C 
BRANCH  21  22
HETATM   22  O   UNK N   1      32.126  15.295  10.224  0.00  0.00    -0.398 OA
HETATM   23  H   UNK N   1      31.851  16.212  10.068  0.00  0.00     0.209 HD
ENDBRANCH  21  22
ENDBRANCH  16  21
ENDBRANCH  12  13
BRANCH   4  24
HETATM   24  N   UNK N   1      35.130  11.733  16.808  0.00  0.00    -0.383 N 
HETATM   25  H   UNK N   1      35.879  11.243  17.216  0.00  0.00     0.157 HD
HETATM   26  H   UNK N   1      34.529  12.262  17.380  0.00  0.00     0.157 HD
ENDBRANCH   4  24
TORSDOF 5
ENDMDL
MODEL 7
REMARK VINA RESULT:      -5.8      4.474      7.401
REMARK  5 active torsions:
REMARK  status: ('A' for Active; 'I' for Inactive)
REMARK    1  A    between atoms: C_4  and  C_1 
REMARK    2  A    between atoms: O_19  and  C_1 
REMARK    3  A    between atoms: C_7  and  O_21 
REMARK    4  A    between atoms: N_11  and  C_8 
REMARK    5  A    between atoms: C_10  and  N_18 
ROOT
HETATM    1  C   UNK N   1      34.809  11.850  12.425  0.00  0.00     0.183 A 
HETATM    2  C   UNK N   1      35.639  16.051  11.306  0.00  0.00     0.188 A 
HETATM    3  C   UNK N   1      35.900  14.339  12.564  0.00  0.00     0.122 A 
HETATM    4  C   UNK N   1      36.230  13.411  13.537  0.00  0.00     0.131 A 
HETATM    5  C   UNK N   1      35.040  14.014  11.579  0.00  0.00     0.142 A 
HETATM    6  N   UNK N   1      35.674  12.165  13.447  0.00  0.00    -0.337 N 
ATOM      7  HN  UNK N   1      35.904  11.460  14.146  1.00  0.00     0.168 HD
HETATM    8  N   UNK N   1      34.475  12.786  11.484  0.00  0.00    -0.336 N 
ATOM      9  HN  UNK N   1      33.821  12.565  10.733  1.00  0.00     0.168 HD
HETATM   10  N   UNK N   1      36.299  15.617  12.417  0.00  0.00    -0.346 N 
ATOM     11  HN  UNK N   1      36.947  16.141  13.005  1.00  0.00     0.167 HD
HETATM   12  N   UNK N   1      34.850  15.075  10.783  0.00  0.00    -0.297 N 
ENDROOT
BRANCH  12  13
HETATM   13  C   UNK N   1      33.931  15.210   9.648  0.00  0.00     0.267 C 
HETATM   14  C   UNK N   1      34.454  14.613   8.338  0.00  0.00     0.239 C 
HETATM   15  C   UNK N   1      33.614  15.394   7.428  0.00  0.00     0.190 C 
HETATM   16  C   UNK N   1      33.023  16.574   8.108  0.00  0.00     0.220 C 
HETATM   17  O   UNK N   1      33.451  15.128   6.247  0.00  0.00    -0.292 OA
HETATM   18  O   UNK N   1      33.597  16.565   9.402  0.00  0.00    -0.348 OA
BRANCH  14  19
HETATM   19  O   UNK N   1      34.163  13.248   8.268  0.00  0.00    -0.383 OA
HETATM   20  H   UNK N   1      34.294  12.568   8.947  0.00  0.00     0.210 HD
ENDBRANCH  14  19
BRANCH  16  21
HETATM   21  C   UNK N   1      33.398  17.872   7.404  0.00  0.00     0.204 C 
BRANCH  21  22
HETATM   22  O   UNK N   1      34.595  17.714   6.701  0.00  0.00    -0.398 OA
HETATM   23  H   UNK N   1      34.609  17.811   5.735  0.00  0.00     0.209 HD
ENDBRANCH  21  22
ENDBRANCH  16  21
ENDBRANCH  12  13
BRANCH   4  24
HETATM   24  N   UNK N   1      37.097  13.736  14.599  0.00  0.00    -0.383 N 
HETATM   25  H   UNK N   1      36.896  14.478  15.213  0.00  0.00     0.157 HD
HETATM   26  H   UNK N   1      37.919  13.210  14.728  0.00  0.00     0.157 HD
ENDBRANCH   4  24
TORSDOF 5
ENDMDL
MODEL 8
REMARK VINA RESULT:      -5.7      3.677      6.560
REMARK  5 active torsions:
REMARK  status: ('A' for Active; 'I' for Inactive)
REMARK    1  A    between atoms: C_4  and  C_1 
REMARK    2  A    between atoms: O_19  and  C_1 
REMARK    3  A    between atoms: C_7  and  O_21 
REMARK    4  A    between atoms: N_11  and  C_8 
REMARK    5  A    between atoms: C_10  and  N_18 
ROOT
HETATM    1  C   UNK N   1      35.468  15.913  11.932  0.00  0.00     0.183 A 
HETATM    2  C   UNK N   1      35.804  14.766   7.671  0.00  0.00     0.188 A 
HETATM    3  C   UNK N   1      36.359  14.587   9.730  0.00  0.00     0.122 A 
HETATM    4  C   UNK N   1      36.915  14.284  10.961  0.00  0.00     0.131 A 
HETATM    5  C   UNK N   1      35.408  15.535   9.629  0.00  0.00     0.142 A 
HETATM    6  N   UNK N   1      36.450  14.959  12.056  0.00  0.00    -0.337 N 
ATOM      7  HN  UNK N   1      36.837  14.752  12.976  1.00  0.00     0.168 HD
HETATM    8  N   UNK N   1      34.945  16.218  10.704  0.00  0.00    -0.336 N 
ATOM      9  HN  UNK N   1      34.228  16.937  10.602  1.00  0.00     0.168 HD
HETATM   10  N   UNK N   1      36.628  14.080   8.512  0.00  0.00    -0.346 N 
ATOM     11  HN  UNK N   1      37.298  13.349   8.273  1.00  0.00     0.167 HD
HETATM   12  N   UNK N   1      35.050  15.675   8.345  0.00  0.00    -0.297 N 
ENDROOT
BRANCH  12  13
HETATM   13  C   UNK N   1      34.123  16.648   7.758  0.00  0.00     0.267 C 
HETATM   14  C   UNK N   1      32.645  16.268   7.885  0.00  0.00     0.239 C 
HETATM   15  C   UNK N   1      32.145  17.088   6.780  0.00  0.00     0.190 C 
HETATM   16  C   UNK N   1      33.245  17.521   5.881  0.00  0.00     0.220 C 
HETATM   17  O   UNK N   1      30.966  17.349   6.600  0.00  0.00    -0.292 OA
HETATM   18  O   UNK N   1      34.396  16.870   6.386  0.00  0.00    -0.348 OA
BRANCH  14  19
HETATM   19  O   UNK N   1      32.132  16.688   9.115  0.00  0.00    -0.383 OA
HETATM   20  H   UNK N   1      31.885  16.148   9.882  0.00  0.00     0.210 HD
ENDBRANCH  14  19
BRANCH  16  21
HETATM   21  C   UNK N   1      33.005  17.073   4.445  0.00  0.00     0.204 C 
BRANCH  21  22
HETATM   22  O   UNK N   1      31.980  17.826   3.867  0.00  0.00    -0.398 OA
HETATM   23  H   UNK N   1      31.463  18.444   4.410  0.00  0.00     0.209 HD
ENDBRANCH  21  22
ENDBRANCH  16  21
ENDBRANCH  12  13
BRANCH   4  24
HETATM   24  N   UNK N   1      37.938  13.324  11.090  0.00  0.00    -0.383 N 
HETATM   25  H   UNK N   1      37.740  12.403  11.374  0.00  0.00     0.157 HD
HETATM   26  H   UNK N   1      38.868  13.580  10.893  0.00  0.00     0.157 HD
ENDBRANCH   4  24
TORSDOF 5
ENDMDL
MODEL 9
REMARK VINA RESULT:      -5.6      2.636      3.302
REMARK  5 active torsions:
REMARK  status: ('A' for Active; 'I' for Inactive)
REMARK    1  A    between atoms: C_4  and  C_1 
REMARK    2  A    between atoms: O_19  and  C_1 
REMARK    3  A    between atoms: C_7  and  O_21 
REMARK    4  A    between atoms: N_11  and  C_8 
REMARK    5  A    between atoms: C_10  and  N_18 
ROOT
HETATM    1  C   UNK N   1      35.107  13.235   4.857  0.00  0.00     0.183 A 
HETATM    2  C   UNK N   1      32.793  16.986   4.456  0.00  0.00     0.188 A 
HETATM    3  C   UNK N   1      33.823  15.300   3.635  0.00  0.00     0.122 A 
HETATM    4  C   UNK N   1      34.435  14.337   2.850  0.00  0.00     0.131 A 
HETATM    5  C   UNK N   1      33.882  15.219   4.978  0.00  0.00     0.142 A 
HETATM    6  N   UNK N   1      35.071  13.305   3.484  0.00  0.00    -0.337 N 
ATOM      7  HN  UNK N   1      35.525  12.579   2.931  1.00  0.00     0.168 HD
HETATM    8  N   UNK N   1      34.517  14.207   5.619  0.00  0.00    -0.336 N 
ATOM      9  HN  UNK N   1      34.554  14.171   6.637  1.00  0.00     0.168 HD
HETATM   10  N   UNK N   1      33.140  16.402   3.274  0.00  0.00    -0.346 N 
ATOM     11  HN  UNK N   1      32.929  16.726   2.330  1.00  0.00     0.167 HD
HETATM   12  N   UNK N   1      33.253  16.271   5.518  0.00  0.00    -0.297 N 
ENDROOT
BRANCH  12  13
HETATM   13  C   UNK N   1      33.149  16.644   6.932  0.00  0.00     0.267 C 
HETATM   14  C   UNK N   1      34.464  17.121   7.557  0.00  0.00     0.239 C 
HETATM   15  C   UNK N   1      34.117  16.851   8.953  0.00  0.00     0.190 C 
HETATM   16  C   UNK N   1      32.949  15.940   9.059  0.00  0.00     0.220 C 
HETATM   17  O   UNK N   1      34.737  17.289   9.910  0.00  0.00    -0.292 OA
HETATM   18  O   UNK N   1      32.659  15.575   7.722  0.00  0.00    -0.348 OA
BRANCH  14  19
HETATM   19  O   UNK N   1      34.652  18.487   7.325  0.00  0.00    -0.383 OA
HETATM   20  H   UNK N   1      35.485  18.968   7.202  0.00  0.00     0.210 HD
ENDBRANCH  14  19
BRANCH  16  21
HETATM   21  C   UNK N   1      33.285  14.688   9.858  0.00  0.00     0.204 C 
BRANCH  21  22
HETATM   22  O   UNK N   1      33.437  15.003  11.211  0.00  0.00    -0.398 OA
HETATM   23  H   UNK N   1      33.262  14.332  11.890  0.00  0.00     0.209 HD
ENDBRANCH  21  22
ENDBRANCH  16  21
ENDBRANCH  12  13
BRANCH   4  24
HETATM   24  N   UNK N   1      34.422  14.416   1.444  0.00  0.00    -0.383 N 
HETATM   25  H   UNK N   1      34.684  15.243   0.977  0.00  0.00     0.157 HD
HETATM   26  H   UNK N   1      34.145  13.632   0.918  0.00  0.00     0.157 HD
ENDBRANCH   4  24
TORSDOF 5
ENDMDL
