MODEL 1
REMARK VINA RESULT:      -6.5      0.000      0.000
REMARK  7 active torsions:
REMARK  status: ('A' for Active; 'I' for Inactive)
REMARK    1  A    between atoms: C_8  and  C_5 
REMARK    2  A    between atoms: O_21  and  C_5 
REMARK    3  A    between atoms: C_9  and  O_20 
REMARK    4  A    between atoms: C_11  and  N_14 
REMARK    5  A    between atoms: P_23  and  O_17 
REMARK    6  A    between atoms: P_23  and  O_18 
REMARK    7  A    between atoms: P_23  and  O_21 
ROOT
HETATM    1  C   UNK N   1      31.698  17.590   4.223  0.00  0.00     0.015 C 
HETATM    2  C   UNK N   1      31.938  17.177   5.671  0.00  0.00     0.046 C 
HETATM    3  C   UNK N   1      30.742  16.544   6.347  0.00  0.00     0.155 C 
HETATM    4  C   UNK N   1      32.947  16.065   5.841  0.00  0.00     0.176 C 
HETATM    5  C   UNK N   1      32.528  15.496   7.225  0.00  0.00     0.261 C 
HETATM    6  O   UNK N   1      31.253  16.051   7.562  0.00  0.00    -0.356 OA
ENDROOT
BRANCH   5   7
HETATM    7  N   UNK N   1      33.518  15.700   8.307  0.00  0.00    -0.279 N 
HETATM    8  C   UNK N   1      34.439  14.728   8.567  0.00  0.00     0.110 A 
HETATM    9  C   UNK N   1      35.471  14.939   9.482  0.00  0.00     0.022 A 
HETATM   10  C   UNK N   1      36.481  13.869   9.716  0.00  0.00     0.056 C 
HETATM   11  C   UNK N   1      35.548  16.170  10.137  0.00  0.00     0.256 A 
HETATM   12  N   UNK N   1      34.609  17.129   9.882  0.00  0.00    -0.275 N 
HETATM   13  O   UNK N   1      36.449  16.400  10.925  0.00  0.00    -0.267 OA
HETATM   14  C   UNK N   1      33.604  16.913   8.976  0.00  0.00     0.331 A 
HETATM   15  H   UNK N   1      34.656  17.990  10.358  0.00  0.00     0.173 HD
HETATM   16  O   UNK N   1      32.810  17.808   8.747  0.00  0.00    -0.246 OA
ENDBRANCH   5   7
BRANCH   4  17
HETATM   17  O   UNK N   1      32.694  15.079   4.851  0.00  0.00    -0.386 OA
HETATM   18  C   UNK N   1      33.666  14.072   4.940  0.00  0.00     0.202 C 
ENDBRANCH   4  17
BRANCH   3  19
HETATM   19  C   UNK N   1      29.586  17.531   6.534  0.00  0.00     0.213 C 
BRANCH  19  20
HETATM   20  O   UNK N   1      28.608  16.889   7.309  0.00  0.00    -0.295 OA
BRANCH  20  21
HETATM   21  P   UNK N   1      28.453  17.675   8.858  0.00  0.00     0.390 P 
HETATM   22  O   UNK N   1      27.603  16.804   9.823  0.00  0.00    -0.632 OA
BRANCH  21  23
HETATM   23  O   UNK N   1      29.986  18.002   9.604  0.00  0.00    -0.307 OA
HETATM   24  H   UNK N   1      30.667  18.552  10.022  0.00  0.00     0.222 HD
ENDBRANCH  21  23
BRANCH  21  25
HETATM   25  O   UNK N   1      27.579  19.158   8.636  0.00  0.00    -0.307 OA
HETATM   26  H   UNK N   1      26.657  19.302   8.371  0.00  0.00     0.222 HD
ENDBRANCH  21  25
ENDBRANCH  20  21
ENDBRANCH  19  20
ENDBRANCH   3  19
TORSDOF 7
ENDMDL
MODEL 2
REMARK VINA RESULT:      -6.5      3.026      5.841
REMARK  7 active torsions:
REMARK  status: ('A' for Active; 'I' for Inactive)
REMARK    1  A    between atoms: C_8  and  C_5 
REMARK    2  A    between atoms: O_21  and  C_5 
REMARK    3  A    between atoms: C_9  and  O_20 
REMARK    4  A    between atoms: C_11  and  N_14 
REMARK    5  A    between atoms: P_23  and  O_17 
REMARK    6  A    between atoms: P_23  and  O_18 
REMARK    7  A    between atoms: P_23  and  O_21 
ROOT
HETATM    1  C   UNK N   1      33.185  13.629   7.511  0.00  0.00     0.015 C 
HETATM    2  C   UNK N   1      32.499  14.917   7.070  0.00  0.00     0.046 C 
HETATM    3  C   UNK N   1      33.176  15.624   5.917  0.00  0.00     0.155 C 
HETATM    4  C   UNK N   1      31.124  14.717   6.475  0.00  0.00     0.176 C 
HETATM    5  C   UNK N   1      30.980  16.009   5.623  0.00  0.00     0.261 C 
HETATM    6  O   UNK N   1      32.266  16.631   5.545  0.00  0.00    -0.356 OA
ENDROOT
BRANCH   5   7
HETATM    7  N   UNK N   1      29.942  16.953   6.095  0.00  0.00    -0.279 N 
HETATM    8  C   UNK N   1      29.841  17.232   7.426  0.00  0.00     0.110 A 
HETATM    9  C   UNK N   1      28.971  18.217   7.892  0.00  0.00     0.022 A 
HETATM   10  C   UNK N   1      28.911  18.521   9.351  0.00  0.00     0.056 C 
HETATM   11  C   UNK N   1      28.193  18.920   6.970  0.00  0.00     0.256 A 
HETATM   12  N   UNK N   1      28.290  18.620   5.640  0.00  0.00    -0.275 N 
HETATM   13  O   UNK N   1      27.439  19.805   7.337  0.00  0.00    -0.267 OA
HETATM   14  C   UNK N   1      29.154  17.655   5.193  0.00  0.00     0.331 A 
HETATM   15  H   UNK N   1      27.728  19.105   4.993  0.00  0.00     0.173 HD
HETATM   16  O   UNK N   1      29.240  17.445   3.996  0.00  0.00    -0.246 OA
ENDBRANCH   5   7
BRANCH   4  17
HETATM   17  O   UNK N   1      31.177  13.600   5.599  0.00  0.00    -0.386 OA
HETATM   18  C   UNK N   1      30.112  13.675   4.688  0.00  0.00     0.202 C 
ENDBRANCH   4  17
BRANCH   3  19
HETATM   19  C   UNK N   1      34.558  16.168   6.296  0.00  0.00     0.213 C 
BRANCH  19  20
HETATM   20  O   UNK N   1      34.417  17.546   6.522  0.00  0.00    -0.295 OA
BRANCH  20  21
HETATM   21  P   UNK N   1      34.490  17.887   8.230  0.00  0.00     0.390 P 
HETATM   22  O   UNK N   1      35.184  16.719   8.985  0.00  0.00    -0.632 OA
BRANCH  21  23
HETATM   23  O   UNK N   1      35.334  19.361   8.588  0.00  0.00    -0.307 OA
HETATM   24  H   UNK N   1      35.933  19.939   9.087  0.00  0.00     0.222 HD
ENDBRANCH  21  23
BRANCH  21  25
HETATM   25  O   UNK N   1      32.869  17.973   8.843  0.00  0.00    -0.307 OA
HETATM   26  H   UNK N   1      32.031  18.086   8.369  0.00  0.00     0.222 HD
ENDBRANCH  21  25
ENDBRANCH  20  21
ENDBRANCH  19  20
ENDBRANCH   3  19
TORSDOF 7
ENDMDL
MODEL 3
REMARK VINA RESULT:      -6.4      9.760     12.916
REMARK  7 active torsions:
REMARK  status: ('A' for Active; 'I' for Inactive)
REMARK    1  A    between atoms: C_8  and  C_5 
REMARK    2  A    between atoms: O_21  and  C_5 
REMARK    3  A    between atoms: C_9  and  O_20 
REMARK    4  A    between atoms: C_11  and  N_14 
REMARK    5  A    between atoms: P_23  and  O_17 
REMARK    6  A    between atoms: P_23  and  O_18 
REMARK    7  A    between atoms: P_23  and  O_21 
ROOT
HETATM    1  C   UNK N   1      24.259  15.852   6.214  0.00  0.00     0.015 C 
HETATM    2  C   UNK N   1      22.965  16.137   5.457  0.00  0.00     0.046 C 
HETATM    3  C   UNK N   1      21.889  16.801   6.287  0.00  0.00     0.155 C 
HETATM    4  C   UNK N   1      23.103  17.157   4.351  0.00  0.00     0.176 C 
HETATM    5  C   UNK N   1      21.635  17.648   4.219  0.00  0.00     0.261 C 
HETATM    6  O   UNK N   1      20.904  17.163   5.349  0.00  0.00    -0.356 OA
ENDROOT
BRANCH   5   7
HETATM    7  N   UNK N   1      20.972  17.294   2.943  0.00  0.00    -0.279 N 
HETATM    8  C   UNK N   1      21.202  16.072   2.383  0.00  0.00     0.110 A 
HETATM    9  C   UNK N   1      20.492  15.649   1.259  0.00  0.00     0.022 A 
HETATM   10  C   UNK N   1      20.743  14.293   0.693  0.00  0.00     0.056 C 
HETATM   11  C   UNK N   1      19.534  16.503   0.708  0.00  0.00     0.256 A 
HETATM   12  N   UNK N   1      19.325  17.732   1.267  0.00  0.00    -0.275 N 
HETATM   13  O   UNK N   1      18.877  16.159  -0.260  0.00  0.00    -0.267 OA
HETATM   14  C   UNK N   1      20.024  18.134   2.375  0.00  0.00     0.331 A 
HETATM   15  H   UNK N   1      18.661  18.339   0.866  0.00  0.00     0.173 HD
HETATM   16  O   UNK N   1      19.779  19.220   2.868  0.00  0.00    -0.246 OA
ENDBRANCH   5   7
BRANCH   4  17
HETATM   17  O   UNK N   1      23.899  18.231   4.833  0.00  0.00    -0.386 OA
HETATM   18  C   UNK N   1      24.674  18.741   3.782  0.00  0.00     0.202 C 
ENDBRANCH   4  17
BRANCH   3  19
HETATM   19  C   UNK N   1      21.359  15.888   7.397  0.00  0.00     0.213 C 
BRANCH  19  20
HETATM   20  O   UNK N   1      20.885  16.714   8.427  0.00  0.00    -0.295 OA
BRANCH  20  21
HETATM   21  P   UNK N   1      19.151  16.590   8.551  0.00  0.00     0.390 P 
HETATM   22  O   UNK N   1      18.759  15.413   9.485  0.00  0.00    -0.632 OA
BRANCH  21  23
HETATM   23  O   UNK N   1      18.411  18.044   9.144  0.00  0.00    -0.307 OA
HETATM   24  H   UNK N   1      18.102  18.962   9.096  0.00  0.00     0.222 HD
ENDBRANCH  21  23
BRANCH  21  25
HETATM   25  O   UNK N   1      18.515  16.204   6.982  0.00  0.00    -0.307 OA
HETATM   26  H   UNK N   1      18.512  15.361   6.503  0.00  0.00     0.222 HD
ENDBRANCH  21  25
ENDBRANCH  20  21
ENDBRANCH  19  20
ENDBRANCH   3  19
TORSDOF 7
ENDMDL
MODEL 4
REMARK VINA RESULT:      -6.4      6.480      9.332
REMARK  7 active torsions:
REMARK  status: ('A' for Active; 'I' for Inactive)
REMARK    1  A    between atoms: C_8  and  C_5 
REMARK    2  A    between atoms: O_21  and  C_5 
REMARK    3  A    between atoms: C_9  and  O_20 
REMARK    4  A    between atoms: C_11  and  N_14 
REMARK    5  A    between atoms: P_23  and  O_17 
REMARK    6  A    between atoms: P_23  and  O_18 
REMARK    7  A    between atoms: P_23  and  O_21 
ROOT
HETATM    1  C   UNK N   1      37.603  12.223  11.832  0.00  0.00     0.015 C 
HETATM    2  C   UNK N   1      36.670  12.408  13.024  0.00  0.00     0.046 C 
HETATM    3  C   UNK N   1      35.198  12.303  12.689  0.00  0.00     0.155 C 
HETATM    4  C   UNK N   1      36.773  11.321  14.069  0.00  0.00     0.176 C 
HETATM    5  C   UNK N   1      35.385  11.443  14.758  0.00  0.00     0.261 C 
HETATM    6  O   UNK N   1      34.559  12.279  13.942  0.00  0.00    -0.356 OA
ENDROOT
BRANCH   5   7
HETATM    7  N   UNK N   1      35.426  11.915  16.161  0.00  0.00    -0.279 N 
HETATM    8  C   UNK N   1      35.550  13.248  16.419  0.00  0.00     0.110 A 
HETATM    9  C   UNK N   1      35.454  13.742  17.720  0.00  0.00     0.022 A 
HETATM   10  C   UNK N   1      35.560  15.209  17.963  0.00  0.00     0.056 C 
HETATM   11  C   UNK N   1      35.230  12.845  18.766  0.00  0.00     0.256 A 
HETATM   12  N   UNK N   1      35.125  11.510  18.498  0.00  0.00    -0.275 N 
HETATM   13  O   UNK N   1      35.116  13.242  19.913  0.00  0.00    -0.267 OA
HETATM   14  C   UNK N   1      35.214  11.036  17.215  0.00  0.00     0.331 A 
HETATM   15  H   UNK N   1      34.984  10.877  19.239  0.00  0.00     0.173 HD
HETATM   16  O   UNK N   1      35.075   9.843  17.012  0.00  0.00    -0.246 OA
ENDBRANCH   5   7
BRANCH   4  17
HETATM   17  O   UNK N   1      36.838  10.068  13.402  0.00  0.00    -0.386 OA
HETATM   18  C   UNK N   1      37.312   9.093  14.293  0.00  0.00     0.202 C 
ENDBRANCH   4  17
BRANCH   3  19
HETATM   19  C   UNK N   1      34.721  13.448  11.789  0.00  0.00     0.213 C 
BRANCH  19  20
HETATM   20  O   UNK N   1      35.343  14.622  12.241  0.00  0.00    -0.295 OA
BRANCH  20  21
HETATM   21  P   UNK N   1      35.620  15.710  10.908  0.00  0.00     0.390 P 
HETATM   22  O   UNK N   1      35.012  15.129   9.601  0.00  0.00    -0.632 OA
BRANCH  21  23
HETATM   23  O   UNK N   1      34.954  17.291  11.177  0.00  0.00    -0.307 OA
HETATM   24  H   UNK N   1      34.898  18.255  11.083  0.00  0.00     0.222 HD
ENDBRANCH  21  23
BRANCH  21  25
HETATM   25  O   UNK N   1      37.331  15.829  10.642  0.00  0.00    -0.307 OA
HETATM   26  H   UNK N   1      37.975  15.139  10.421  0.00  0.00     0.222 HD
ENDBRANCH  21  25
ENDBRANCH  20  21
ENDBRANCH  19  20
ENDBRANCH   3  19
TORSDOF 7
ENDMDL
MODEL 5
REMARK VINA RESULT:      -6.4     14.005     16.374
REMARK  7 active torsions:
REMARK  status: ('A' for Active; 'I' for Inactive)
REMARK    1  A    between atoms: C_8  and  C_5 
REMARK    2  A    between atoms: O_21  and  C_5 
REMARK    3  A    between atoms: C_9  and  O_20 
REMARK    4  A    between atoms: C_11  and  N_14 
REMARK    5  A    between atoms: P_23  and  O_17 
REMARK    6  A    between atoms: P_23  and  O_18 
REMARK    7  A    between atoms: P_23  and  O_21 
ROOT
HETATM    1  C   UNK N   1      27.824  26.942  -8.350  0.00  0.00     0.015 C 
HETATM    2  C   UNK N   1      27.929  26.470  -6.903  0.00  0.00     0.046 C 
HETATM    3  C   UNK N   1      26.868  27.032  -5.983  0.00  0.00     0.155 C 
HETATM    4  C   UNK N   1      27.678  24.992  -6.711  0.00  0.00     0.176 C 
HETATM    5  C   UNK N   1      27.263  24.956  -5.214  0.00  0.00     0.261 C 
HETATM    6  O   UNK N   1      27.022  26.301  -4.790  0.00  0.00    -0.356 OA
ENDROOT
BRANCH   5   7
HETATM    7  N   UNK N   1      28.218  24.262  -4.320  0.00  0.00    -0.279 N 
HETATM    8  C   UNK N   1      29.530  24.168  -4.680  0.00  0.00     0.110 A 
HETATM    9  C   UNK N   1      30.481  23.646  -3.804  0.00  0.00     0.022 A 
HETATM   10  C   UNK N   1      31.913  23.590  -4.217  0.00  0.00     0.056 C 
HETATM   11  C   UNK N   1      30.069  23.213  -2.542  0.00  0.00     0.256 A 
HETATM   12  N   UNK N   1      28.750  23.295  -2.199  0.00  0.00    -0.275 N 
HETATM   13  O   UNK N   1      30.876  22.773  -1.741  0.00  0.00    -0.267 OA
HETATM   14  C   UNK N   1      27.824  23.817  -3.065  0.00  0.00     0.331 A 
HETATM   15  H   UNK N   1      28.459  22.973  -1.315  0.00  0.00     0.173 HD
HETATM   16  O   UNK N   1      26.664  23.911  -2.707  0.00  0.00    -0.246 OA
ENDBRANCH   5   7
BRANCH   4  17
HETATM   17  O   UNK N   1      26.556  24.625  -7.501  0.00  0.00    -0.386 OA
HETATM   18  C   UNK N   1      26.002  23.439  -6.998  0.00  0.00     0.202 C 
ENDBRANCH   4  17
BRANCH   3  19
HETATM   19  C   UNK N   1      27.007  28.545  -5.786  0.00  0.00     0.213 C 
BRANCH  19  20
HETATM   20  O   UNK N   1      27.817  28.748  -4.659  0.00  0.00    -0.295 OA
BRANCH  20  21
HETATM   21  P   UNK N   1      26.856  29.314  -3.319  0.00  0.00     0.390 P 
HETATM   22  O   UNK N   1      27.758  29.585  -2.084  0.00  0.00    -0.632 OA
BRANCH  21  23
HETATM   23  O   UNK N   1      25.968  30.759  -3.690  0.00  0.00    -0.307 OA
HETATM   24  H   UNK N   1      25.739  31.549  -4.204  0.00  0.00     0.222 HD
ENDBRANCH  21  23
BRANCH  21  25
HETATM   25  O   UNK N   1      25.759  28.051  -2.858  0.00  0.00    -0.307 OA
HETATM   26  H   UNK N   1      24.790  28.050  -2.827  0.00  0.00     0.222 HD
ENDBRANCH  21  25
ENDBRANCH  20  21
ENDBRANCH  19  20
ENDBRANCH   3  19
TORSDOF 7
ENDMDL
MODEL 6
REMARK VINA RESULT:      -6.4      3.854      7.436
REMARK  7 active torsions:
REMARK  status: ('A' for Active; 'I' for Inactive)
REMARK    1  A    between atoms: C_8  and  C_5 
REMARK    2  A    between atoms: O_21  and  C_5 
REMARK    3  A    between atoms: C_9  and  O_20 
REMARK    4  A    between atoms: C_11  and  N_14 
REMARK    5  A    between atoms: P_23  and  O_17 
REMARK    6  A    between atoms: P_23  and  O_18 
REMARK    7  A    between atoms: P_23  and  O_21 
ROOT
HETATM    1  C   UNK N   1      36.144  10.833  10.924  0.00  0.00     0.015 C 
HETATM    2  C   UNK N   1      35.570  12.246  10.929  0.00  0.00     0.046 C 
HETATM    3  C   UNK N   1      35.778  13.001  12.223  0.00  0.00     0.155 C 
HETATM    4  C   UNK N   1      36.247  13.196   9.967  0.00  0.00     0.176 C 
HETATM    5  C   UNK N   1      35.899  14.566  10.612  0.00  0.00     0.261 C 
HETATM    6  O   UNK N   1      35.382  14.318  11.923  0.00  0.00    -0.356 OA
ENDROOT
BRANCH   5   7
HETATM    7  N   UNK N   1      34.987  15.416   9.814  0.00  0.00    -0.279 N 
HETATM    8  C   UNK N   1      34.019  14.833   9.051  0.00  0.00     0.110 A 
HETATM    9  C   UNK N   1      33.056  15.601   8.396  0.00  0.00     0.022 A 
HETATM   10  C   UNK N   1      31.991  14.930   7.599  0.00  0.00     0.056 C 
HETATM   11  C   UNK N   1      33.098  16.991   8.532  0.00  0.00     0.256 A 
HETATM   12  N   UNK N   1      34.083  17.565   9.284  0.00  0.00    -0.275 N 
HETATM   13  O   UNK N   1      32.260  17.694   7.994  0.00  0.00    -0.267 OA
HETATM   14  C   UNK N   1      35.020  16.800   9.929  0.00  0.00     0.331 A 
HETATM   15  H   UNK N   1      34.120  18.546   9.364  0.00  0.00     0.173 HD
HETATM   16  O   UNK N   1      35.857  17.347  10.623  0.00  0.00    -0.246 OA
ENDBRANCH   5   7
BRANCH   4  17
HETATM   17  O   UNK N   1      37.650  12.995  10.057  0.00  0.00    -0.386 OA
HETATM   18  C   UNK N   1      38.313  14.139   9.590  0.00  0.00     0.202 C 
ENDBRANCH   4  17
BRANCH   3  19
HETATM   19  C   UNK N   1      34.998  12.387  13.390  0.00  0.00     0.213 C 
BRANCH  19  20
HETATM   20  O   UNK N   1      34.850  13.384  14.365  0.00  0.00    -0.295 OA
BRANCH  20  21
HETATM   21  P   UNK N   1      36.064  13.201  15.604  0.00  0.00     0.390 P 
HETATM   22  O   UNK N   1      36.504  11.715  15.713  0.00  0.00    -0.632 OA
BRANCH  21  23
HETATM   23  O   UNK N   1      37.469  14.180  15.320  0.00  0.00    -0.307 OA
HETATM   24  H   UNK N   1      38.119  14.873  15.518  0.00  0.00     0.222 HD
ENDBRANCH  21  23
BRANCH  21  25
HETATM   25  O   UNK N   1      35.356  13.616  17.133  0.00  0.00    -0.307 OA
HETATM   26  H   UNK N   1      35.560  14.350  17.733  0.00  0.00     0.222 HD
ENDBRANCH  21  25
ENDBRANCH  20  21
ENDBRANCH  19  20
ENDBRANCH   3  19
TORSDOF 7
ENDMDL
MODEL 7
REMARK VINA RESULT:      -6.2     13.375     16.575
REMARK  7 active torsions:
REMARK  status: ('A' for Active; 'I' for Inactive)
REMARK    1  A    between atoms: C_8  and  C_5 
REMARK    2  A    between atoms: O_21  and  C_5 
REMARK    3  A    between atoms: C_9  and  O_20 
REMARK    4  A    between atoms: C_11  and  N_14 
REMARK    5  A    between atoms: P_23  and  O_17 
REMARK    6  A    between atoms: P_23  and  O_18 
REMARK    7  A    between atoms: P_23  and  O_21 
ROOT
HETATM    1  C   UNK N   1      31.103  25.665  -3.875  0.00  0.00     0.015 C 
HETATM    2  C   UNK N   1      29.932  24.786  -4.304  0.00  0.00     0.046 C 
HETATM    3  C   UNK N   1      29.230  24.080  -3.165  0.00  0.00     0.155 C 
HETATM    4  C   UNK N   1      28.766  25.546  -4.893  0.00  0.00     0.176 C 
HETATM    5  C   UNK N   1      27.607  24.538  -4.653  0.00  0.00     0.261 C 
HETATM    6  O   UNK N   1      28.080  23.527  -3.757  0.00  0.00    -0.356 OA
ENDROOT
BRANCH   5   7
HETATM    7  N   UNK N   1      27.026  23.954  -5.883  0.00  0.00    -0.279 N 
HETATM    8  C   UNK N   1      27.633  22.883  -6.471  0.00  0.00     0.110 A 
HETATM    9  C   UNK N   1      27.043  22.221  -7.546  0.00  0.00     0.022 A 
HETATM   10  C   UNK N   1      27.717  21.033  -8.143  0.00  0.00     0.056 C 
HETATM   11  C   UNK N   1      25.810  22.673  -8.021  0.00  0.00     0.256 A 
HETATM   12  N   UNK N   1      25.219  23.757  -7.436  0.00  0.00    -0.275 N 
HETATM   13  O   UNK N   1      25.251  22.105  -8.944  0.00  0.00    -0.267 OA
HETATM   14  C   UNK N   1      25.806  24.396  -6.374  0.00  0.00     0.331 A 
HETATM   15  H   UNK N   1      24.358  24.085  -7.783  0.00  0.00     0.173 HD
HETATM   16  O   UNK N   1      25.228  25.334  -5.854  0.00  0.00    -0.246 OA
ENDBRANCH   5   7
BRANCH   4  17
HETATM   17  O   UNK N   1      28.538  26.698  -4.094  0.00  0.00    -0.386 OA
HETATM   18  C   UNK N   1      27.978  27.709  -4.889  0.00  0.00     0.202 C 
ENDBRANCH   4  17
BRANCH   3  19
HETATM   19  C   UNK N   1      30.121  23.035  -2.486  0.00  0.00     0.213 C 
BRANCH  19  20
HETATM   20  O   UNK N   1      30.147  21.905  -3.316  0.00  0.00    -0.295 OA
BRANCH  20  21
HETATM   21  P   UNK N   1      31.781  21.325  -3.495  0.00  0.00     0.390 P 
HETATM   22  O   UNK N   1      32.574  22.236  -4.471  0.00  0.00    -0.632 OA
BRANCH  21  23
HETATM   23  O   UNK N   1      32.638  21.245  -1.986  0.00  0.00    -0.307 OA
HETATM   24  H   UNK N   1      33.413  21.299  -1.406  0.00  0.00     0.222 HD
ENDBRANCH  21  23
BRANCH  21  25
HETATM   25  O   UNK N   1      31.729  19.751  -4.225  0.00  0.00    -0.307 OA
HETATM   26  H   UNK N   1      31.437  19.487  -5.111  0.00  0.00     0.222 HD
ENDBRANCH  21  25
ENDBRANCH  20  21
ENDBRANCH  19  20
ENDBRANCH   3  19
TORSDOF 7
ENDMDL
MODEL 8
REMARK VINA RESULT:      -6.2      3.736      5.816
REMARK  7 active torsions:
REMARK  status: ('A' for Active; 'I' for Inactive)
REMARK    1  A    between atoms: C_8  and  C_5 
REMARK    2  A    between atoms: O_21  and  C_5 
REMARK    3  A    between atoms: C_9  and  O_20 
REMARK    4  A    between atoms: C_11  and  N_14 
REMARK    5  A    between atoms: P_23  and  O_17 
REMARK    6  A    between atoms: P_23  and  O_18 
REMARK    7  A    between atoms: P_23  and  O_21 
ROOT
HETATM    1  C   UNK N   1      35.895  12.533   7.893  0.00  0.00     0.015 C 
HETATM    2  C   UNK N   1      35.642  13.308   9.182  0.00  0.00     0.046 C 
HETATM    3  C   UNK N   1      34.423  14.203   9.145  0.00  0.00     0.155 C 
HETATM    4  C   UNK N   1      35.288  12.442  10.369  0.00  0.00     0.176 C 
HETATM    5  C   UNK N   1      34.537  13.465  11.266  0.00  0.00     0.261 C 
HETATM    6  O   UNK N   1      34.265  14.627  10.477  0.00  0.00    -0.356 OA
ENDROOT
BRANCH   5   7
HETATM    7  N   UNK N   1      35.227  13.808  12.530  0.00  0.00    -0.279 N 
HETATM    8  C   UNK N   1      35.121  12.973  13.603  0.00  0.00     0.110 A 
HETATM    9  C   UNK N   1      35.866  13.191  14.762  0.00  0.00     0.022 A 
HETATM   10  C   UNK N   1      35.751  12.239  15.903  0.00  0.00     0.056 C 
HETATM   11  C   UNK N   1      36.729  14.287  14.812  0.00  0.00     0.256 A 
HETATM   12  N   UNK N   1      36.814  15.127  13.738  0.00  0.00    -0.275 N 
HETATM   13  O   UNK N   1      37.414  14.497  15.798  0.00  0.00    -0.267 OA
HETATM   14  C   UNK N   1      36.082  14.900  12.601  0.00  0.00     0.331 A 
HETATM   15  H   UNK N   1      37.411  15.909  13.781  0.00  0.00     0.173 HD
HETATM   16  O   UNK N   1      36.217  15.649  11.650  0.00  0.00    -0.246 OA
ENDBRANCH   5   7
BRANCH   4  17
HETATM   17  O   UNK N   1      34.364  11.453   9.937  0.00  0.00    -0.386 OA
HETATM   18  C   UNK N   1      34.247  10.465  10.926  0.00  0.00     0.202 C 
ENDBRANCH   4  17
BRANCH   3  19
HETATM   19  C   UNK N   1      34.581  15.364   8.157  0.00  0.00     0.213 C 
BRANCH  19  20
HETATM   20  O   UNK N   1      34.751  16.535   8.910  0.00  0.00    -0.295 OA
BRANCH  20  21
HETATM   21  P   UNK N   1      34.237  17.924   7.990  0.00  0.00     0.390 P 
HETATM   22  O   UNK N   1      35.048  19.180   8.411  0.00  0.00    -0.632 OA
BRANCH  21  23
HETATM   23  O   UNK N   1      34.408  17.698   6.277  0.00  0.00    -0.307 OA
HETATM   24  H   UNK N   1      34.891  17.581   5.444  0.00  0.00     0.222 HD
ENDBRANCH  21  23
BRANCH  21  25
HETATM   25  O   UNK N   1      32.579  18.257   8.377  0.00  0.00    -0.307 OA
HETATM   26  H   UNK N   1      32.203  18.875   9.023  0.00  0.00     0.222 HD
ENDBRANCH  21  25
ENDBRANCH  20  21
ENDBRANCH  19  20
ENDBRANCH   3  19
TORSDOF 7
ENDMDL
MODEL 9
REMARK VINA RESULT:      -6.2      1.574      2.053
REMARK  7 active torsions:
REMARK  status: ('A' for Active; 'I' for Inactive)
REMARK    1  A    between atoms: C_8  and  C_5 
REMARK    2  A    between atoms: O_21  and  C_5 
REMARK    3  A    between atoms: C_9  and  O_20 
REMARK    4  A    between atoms: C_11  and  N_14 
REMARK    5  A    between atoms: P_23  and  O_17 
REMARK    6  A    between atoms: P_23  and  O_18 
REMARK    7  A    between atoms: P_23  and  O_21 
ROOT
HETATM    1  C   UNK N   1      32.531  17.528   4.914  0.00  0.00     0.015 C 
HETATM    2  C   UNK N   1      32.488  16.797   6.252  0.00  0.00     0.046 C 
HETATM    3  C   UNK N   1      31.103  16.377   6.691  0.00  0.00     0.155 C 
HETATM    4  C   UNK N   1      33.175  15.451   6.247  0.00  0.00     0.176 C 
HETATM    5  C   UNK N   1      32.468  14.756   7.443  0.00  0.00     0.261 C 
HETATM    6  O   UNK N   1      31.331  15.546   7.803  0.00  0.00    -0.356 OA
ENDROOT
BRANCH   5   7
HETATM    7  N   UNK N   1      33.339  14.485   8.609  0.00  0.00    -0.279 N 
HETATM    8  C   UNK N   1      33.982  15.519   9.224  0.00  0.00     0.110 A 
HETATM    9  C   UNK N   1      34.698  15.323  10.404  0.00  0.00     0.022 A 
HETATM   10  C   UNK N   1      35.360  16.482  11.069  0.00  0.00     0.056 C 
HETATM   11  C   UNK N   1      34.752  14.040  10.954  0.00  0.00     0.256 A 
HETATM   12  N   UNK N   1      34.119  13.009  10.321  0.00  0.00    -0.275 N 
HETATM   13  O   UNK N   1      35.348  13.835  11.998  0.00  0.00    -0.267 OA
HETATM   14  C   UNK N   1      33.412  13.214   9.164  0.00  0.00     0.331 A 
HETATM   15  H   UNK N   1      34.172  12.102  10.701  0.00  0.00     0.173 HD
HETATM   16  O   UNK N   1      32.828  12.276   8.652  0.00  0.00    -0.246 OA
ENDBRANCH   5   7
BRANCH   4  17
HETATM   17  O   UNK N   1      32.816  14.773   5.052  0.00  0.00    -0.386 OA
HETATM   18  C   UNK N   1      32.924  13.389   5.253  0.00  0.00     0.202 C 
ENDBRANCH   4  17
BRANCH   3  19
HETATM   19  C   UNK N   1      30.202  17.575   7.007  0.00  0.00     0.213 C 
BRANCH  19  20
HETATM   20  O   UNK N   1      28.973  17.068   7.453  0.00  0.00    -0.295 OA
BRANCH  20  21
HETATM   21  P   UNK N   1      28.533  17.802   8.972  0.00  0.00     0.390 P 
HETATM   22  O   UNK N   1      27.680  16.819   9.820  0.00  0.00    -0.632 OA
BRANCH  21  23
HETATM   23  O   UNK N   1      29.910  18.295   9.907  0.00  0.00    -0.307 OA
HETATM   24  H   UNK N   1      30.415  18.871  10.502  0.00  0.00     0.222 HD
ENDBRANCH  21  23
BRANCH  21  25
HETATM   25  O   UNK N   1      27.521  19.174   8.647  0.00  0.00    -0.307 OA
HETATM   26  H   UNK N   1      27.428  20.007   9.135  0.00  0.00     0.222 HD
ENDBRANCH  21  25
ENDBRANCH  20  21
ENDBRANCH  19  20
ENDBRANCH   3  19
TORSDOF 7
ENDMDL
