REMARK  10 active torsions:
REMARK  status: ('A' for Active; 'I' for Inactive)
REMARK    1  A    between atoms: C_8  and  C_5 
REMARK    2  A    between atoms: O_25  and  C_5 
REMARK    3  A    between atoms: C_8  and  C_6 
REMARK    4  A    between atoms: O_28  and  C_6 
REMARK    5  A    between atoms: C_8  and  O_26 
REMARK    6  A    between atoms: C_16  and  C_9 
REMARK    7  A    between atoms: N_22  and  C_12 
REMARK    8  A    between atoms: N_22  and  C_15 
REMARK    9  A    between atoms: O_27  and  C_16 
REMARK   10  A    between atoms: N_23  and  O_28 
ROOT
HETATM    1  C   UNK N   1       2.863  -1.394   0.664  0.00  0.00     0.040 A 
HETATM    2  C   UNK N   1       2.874  -2.790   0.575  0.00  0.00     0.048 A 
HETATM    3  C   UNK N   1       3.969  -0.652   0.247  0.00  0.00     0.053 A 
HETATM    4  C   UNK N   1       5.082  -1.304  -0.296  0.00  0.00     0.174 A 
HETATM    5  C   UNK N   1       5.095  -2.700  -0.409  0.00  0.00     0.183 A 
HETATM    6  C   UNK N   1       3.993  -3.456   0.049  0.00  0.00     0.089 A 
HETATM    7 Br   UNK N   1       3.945   1.249   0.425  0.00  0.00    -0.048 Br
HETATM    8  F   UNK N   1       6.147  -0.583  -0.729  0.00  0.00    -0.201 F 
HETATM    9  F   UNK N   1       6.160  -3.297  -0.999  0.00  0.00    -0.200 F 
ENDROOT
BRANCH   2  10
HETATM   10  C   UNK N   1       1.719  -3.577   1.069  0.00  0.00     0.172 C 
HETATM   11  N   UNK N   1       0.520  -3.330   0.678  0.00  0.00    -0.244 N 
ATOM     12  HN  UNK N   1      -0.253  -3.857   1.086  1.00  0.00     0.196 HD
BRANCH  11  13
HETATM   13  O   UNK N   1       0.258  -2.415  -0.233  0.00  0.00    -0.276 OA
BRANCH  13  14
HETATM   14  C   UNK N   1      -0.998  -2.278  -0.798  0.00  0.00     0.235 C 
BRANCH  14  15
HETATM   15  C   UNK N   1      -2.070  -3.154  -0.145  0.00  0.00     0.167 C 
BRANCH  15  16
HETATM   16  C   UNK N   1      -3.428  -2.774  -0.700  0.00  0.00     0.198 C 
BRANCH  16  17
HETATM   17  O   UNK N   1      -4.433  -3.452  -0.008  0.00  0.00    -0.398 OA
HETATM   18  H   UNK N   1      -5.190  -3.083   0.473  0.00  0.00     0.209 HD
ENDBRANCH  16  17
ENDBRANCH  15  16
BRANCH  15  19
HETATM   19  O   UNK N   1      -1.820  -4.506  -0.401  0.00  0.00    -0.391 OA
HETATM   20  H   UNK N   1      -2.545  -5.125  -0.579  0.00  0.00     0.210 HD
ENDBRANCH  15  19
ENDBRANCH  14  15
ENDBRANCH  13  14
ENDBRANCH  11  13
BRANCH  10  21
HETATM   21  O   UNK N   1       1.935  -4.619   1.893  0.00  0.00    -0.344 OA
HETATM   22  H   UNK N   1       1.383  -5.112   2.467  0.00  0.00     0.219 HD
ENDBRANCH  10  21
ENDBRANCH   2  10
BRANCH   6  23
HETATM   23  N   UNK N   1       3.919  -4.870  -0.099  0.00  0.00    -0.350 N 
HETATM   24  H   UNK N   1       3.023  -5.238  -0.275  0.00  0.00     0.166 HD
BRANCH  23  25
HETATM   25  C   UNK N   1       4.970  -5.814  -0.024  0.00  0.00     0.071 A 
HETATM   26  C   UNK N   1       6.200  -5.497   0.568  0.00  0.00     0.034 A 
HETATM   27  C   UNK N   1       7.198  -6.468   0.674  0.00  0.00     0.020 A 
HETATM   28  C   UNK N   1       6.967  -7.761   0.199  0.00  0.00     0.009 A 
HETATM   29  C   UNK N   1       5.738  -8.086  -0.380  0.00  0.00     0.062 A 
HETATM   30  I   UNK N   1       8.463  -9.226   0.372  0.00  0.00    -0.044 I 
HETATM   31  C   UNK N   1       4.740  -7.117  -0.488  0.00  0.00     0.144 A 
HETATM   32  F   UNK N   1       3.544  -7.445  -1.040  0.00  0.00    -0.204 F 
ENDBRANCH  23  25
ENDBRANCH   6  23
TORSDOF 10
