REMARK  13 active torsions:
REMARK  status: ('A' for Active; 'I' for Inactive)
REMARK    1  A    between atoms: C_24  and  C_18 
REMARK    2  A    between atoms: C_27  and  C_19 
REMARK    3  A    between atoms: C_31  and  C_19 
REMARK    4  A    between atoms: C_23  and  C_20 
REMARK    5  A    between atoms: N_38  and  C_20 
REMARK    6  A    between atoms: C_28  and  C_21 
REMARK    7  A    between atoms: O_40  and  C_22 
REMARK    8  A    between atoms: C_26  and  C_25 
REMARK    9  A    between atoms: C_29  and  N_36 
REMARK   10  A    between atoms: C_32  and  C_30 
REMARK   11  A    between atoms: N_34  and  C_30 
REMARK   12  A    between atoms: O_42  and  C_31 
REMARK   13  A    between atoms: C_32  and  O_43 
ROOT
HETATM    1  C   UNK N   1       1.822   3.931  -0.873  0.00  0.00     0.164 C 
HETATM    2  N   UNK N   1       1.798   3.001   0.014  0.00  0.00    -0.356 N 
ATOM      3  HN  UNK N   1       1.096   2.275  -0.127  1.00  0.00     0.162 HD
ENDROOT
BRANCH   1   4
HETATM    4  C   UNK N   1       2.713   5.098  -0.802  0.00  0.00     0.085 C 
HETATM    5  C   UNK N   1       2.086   6.285  -0.645  0.00  0.00     0.045 C 
BRANCH   5   6
HETATM    6  C   UNK N   1       2.693   7.615  -0.640  0.00  0.00    -0.033 A 
HETATM    7  C   UNK N   1       3.962   7.858  -1.159  0.00  0.00     0.012 A 
HETATM    8  C   UNK N   1       4.562   9.089  -0.978  0.00  0.00     0.009 A 
HETATM    9  C   UNK N   1       3.897  10.099  -0.276  0.00  0.00    -0.035 A 
HETATM   10  C   UNK N   1       2.570   9.897   0.158  0.00  0.00     0.009 A 
HETATM   11  C   UNK N   1       1.979   8.650  -0.037  0.00  0.00     0.026 A 
BRANCH   9  12
HETATM   12  C   UNK N   1       4.665  11.326   0.085  0.00  0.00     0.149 C 
BRANCH  12  13
HETATM   13  C   UNK N   1       5.932  10.894   0.779  0.00  0.00     0.143 C 
HETATM   14  O   UNK N   1       7.009  11.304   0.383  0.00  0.00    -0.650 OA
BRANCH  13  15
HETATM   15  O   UNK N   1       5.890   9.967   1.760  0.00  0.00    -0.776 OA
HETATM   16  H   UNK N   1       5.319   9.670   2.440  0.00  0.00     0.167 HD
ENDBRANCH  13  15
ENDBRANCH  12  13
ENDBRANCH   9  12
BRANCH  10  17
HETATM   17  C   UNK N   1       1.814  10.949   0.862  0.00  0.00     0.270 C 
HETATM   18  O   UNK N   1       0.655  10.765   1.205  0.00  0.00    -0.301 OA
ENDBRANCH  10  17
ENDBRANCH   5   6
BRANCH   4  19
HETATM   19  N   UNK N   1       4.128   4.939  -1.003  0.00  0.00    -0.338 N 
HETATM   20  C   UNK N   1       5.062   5.415  -0.243  0.00  0.00     0.111 C 
HETATM   21  C   UNK N   1       6.491   5.236  -0.635  0.00  0.00     0.097 C 
ATOM     22  HN  UNK N   1       4.423   4.401  -1.818  1.00  0.00     0.168 HD
BRANCH  20  23
HETATM   23  O   UNK N   1       4.771   6.047   0.913  0.00  0.00    -0.350 OA
HETATM   24  H   UNK N   1       5.049   6.442   1.716  0.00  0.00     0.219 HD
ENDBRANCH  20  23
ENDBRANCH   4  19
ENDBRANCH   1   4
BRANCH   1  25
HETATM   25  O   UNK N   1       0.895   3.904  -1.849  0.00  0.00    -0.345 OA
HETATM   26  H   UNK N   1       0.556   4.453  -2.529  0.00  0.00     0.219 HD
ENDBRANCH   1  25
BRANCH   2  27
HETATM   27  C   UNK N   1       2.635   2.846   1.189  0.00  0.00     0.176 C 
HETATM   28  C   UNK N   1       2.106   1.623   1.942  0.00  0.00     0.035 C 
HETATM   29  C   UNK N   1       2.464   0.269   1.309  0.00  0.00     0.004 C 
HETATM   30  C   UNK N   1       2.392   0.220  -0.224  0.00  0.00     0.020 C 
HETATM   31  C   UNK N   1       3.425   1.080  -0.995  0.00  0.00     0.126 C 
HETATM   32  N   UNK N   1       4.437   1.745  -0.165  0.00  0.00    -0.346 N 
HETATM   33  C   UNK N   1       4.080   2.602   0.836  0.00  0.00     0.242 C 
HETATM   34  O   UNK N   1       4.953   3.155   1.504  0.00  0.00    -0.271 OA
BRANCH  32  35
HETATM   35  C   UNK N   1       5.837   1.450  -0.411  0.00  0.00     0.164 C 
BRANCH  35  36
HETATM   36  C   UNK N   1       6.014  -0.013  -0.232  0.00  0.00    -0.040 A 
HETATM   37  C   UNK N   1       5.423  -0.592   0.887  0.00  0.00     0.009 A 
HETATM   38  C   UNK N   1       5.244  -1.954   0.948  0.00  0.00     0.013 A 
HETATM   39  C   UNK N   1       5.713  -2.774  -0.076  0.00  0.00    -0.026 A 
HETATM   40  C   UNK N   1       6.406  -2.214  -1.164  0.00  0.00     0.013 A 
HETATM   41  C   UNK N   1       6.523  -0.818  -1.260  0.00  0.00     0.009 A 
BRANCH  39  42
HETATM   42  C   UNK N   1       5.337  -4.185  -0.040  0.00  0.00    -0.026 A 
HETATM   43  C   UNK N   1       6.228  -5.199  -0.401  0.00  0.00     0.012 A 
HETATM   44  C   UNK N   1       5.822  -6.536  -0.318  0.00  0.00     0.001 A 
HETATM   45  C   UNK N   1       4.515  -6.854   0.069  0.00  0.00     0.000 A 
HETATM   46  C   UNK N   1       3.614  -5.839   0.393  0.00  0.00     0.001 A 
HETATM   47  C   UNK N   1       4.032  -4.513   0.361  0.00  0.00     0.012 A 
ENDBRANCH  39  42
ENDBRANCH  35  36
ENDBRANCH  32  35
ENDBRANCH   2  27
TORSDOF 13
