MODEL 1
REMARK VINA RESULT:      -4.5      0.000      0.000
REMARK  7 active torsions:
REMARK  status: ('A' for Active; 'I' for Inactive)
REMARK    1  A    between atoms: C_2  and  C_1 
REMARK    2  A    between atoms: C_3  and  C_2 
REMARK    3  A    between atoms: C_2  and  O_10 
REMARK    4  A    between atoms: O_6  and  C_3 
REMARK    5  A    between atoms: P_11  and  O_7 
REMARK    6  A    between atoms: P_11  and  O_8 
REMARK    7  A    between atoms: P_11  and  O_10 
ROOT
HETATM    1  C   UNK N   1      33.695  17.054   8.591  0.00  0.00     0.259 C 
ENDROOT
BRANCH   1   2
HETATM    2  C   UNK N   1      32.169  17.159   8.513  0.00  0.00     0.265 C 
HETATM    3  F   UNK N   1      31.762  18.480   8.601  0.00  0.00    -0.252 F 
ENDBRANCH   1   2
BRANCH   1   4
HETATM    4  C   UNK N   1      34.387  18.120   7.759  0.00  0.00     0.173 C 
HETATM    5  O   UNK N   1      34.335  18.100   6.540  0.00  0.00    -0.648 OA
BRANCH   4   6
HETATM    6  O   UNK N   1      35.041  19.125   8.371  0.00  0.00    -0.774 OA
HETATM    7  H   UNK N   1      35.914  19.358   8.123  0.00  0.00     0.167 HD
ENDBRANCH   4   6
ENDBRANCH   1   4
BRANCH   1   8
HETATM    8  O   UNK N   1      34.151  16.977   9.935  0.00  0.00    -0.278 OA
BRANCH   8   9
HETATM    9  P   UNK N   1      35.435  15.792  10.122  0.00  0.00     0.391 P 
HETATM   10  O   UNK N   1      34.368  15.324  11.148  0.00  0.00    -0.632 OA
BRANCH   9  11
HETATM   11  O   UNK N   1      36.311  15.675  11.616  0.00  0.00    -0.307 OA
HETATM   12  H   UNK N   1      37.208  15.305  11.626  0.00  0.00     0.222 HD
ENDBRANCH   9  11
BRANCH   9  13
HETATM   13  O   UNK N   1      36.053  17.349  10.579  0.00  0.00    -0.307 OA
HETATM   14  H   UNK N   1      36.982  17.557  10.769  0.00  0.00     0.222 HD
ENDBRANCH   9  13
ENDBRANCH   8   9
ENDBRANCH   1   8
TORSDOF 7
ENDMDL
MODEL 2
REMARK VINA RESULT:      -4.4      2.511      3.234
REMARK  7 active torsions:
REMARK  status: ('A' for Active; 'I' for Inactive)
REMARK    1  A    between atoms: C_2  and  C_1 
REMARK    2  A    between atoms: C_3  and  C_2 
REMARK    3  A    between atoms: C_2  and  O_10 
REMARK    4  A    between atoms: O_6  and  C_3 
REMARK    5  A    between atoms: P_11  and  O_7 
REMARK    6  A    between atoms: P_11  and  O_8 
REMARK    7  A    between atoms: P_11  and  O_10 
ROOT
HETATM    1  C   UNK N   1      34.098  17.243   9.245  0.00  0.00     0.259 C 
ENDROOT
BRANCH   1   2
HETATM    2  C   UNK N   1      35.220  16.538  10.012  0.00  0.00     0.265 C 
HETATM    3  F   UNK N   1      35.188  16.881  11.354  0.00  0.00    -0.252 F 
ENDBRANCH   1   2
BRANCH   1   4
HETATM    4  C   UNK N   1      34.634  18.189   8.184  0.00  0.00     0.173 C 
HETATM    5  O   UNK N   1      35.257  19.193   8.493  0.00  0.00    -0.648 OA
BRANCH   4   6
HETATM    6  O   UNK N   1      34.451  17.905   6.881  0.00  0.00    -0.774 OA
HETATM    7  H   UNK N   1      34.983  18.301   6.219  0.00  0.00     0.167 HD
ENDBRANCH   4   6
ENDBRANCH   1   4
BRANCH   1   8
HETATM    8  O   UNK N   1      33.126  16.322   8.765  0.00  0.00    -0.278 OA
BRANCH   8   9
HETATM    9  P   UNK N   1      33.504  14.673   9.238  0.00  0.00     0.391 P 
HETATM   10  O   UNK N   1      33.207  14.547   7.719  0.00  0.00    -0.632 OA
BRANCH   9  11
HETATM   11  O   UNK N   1      32.290  13.434   9.147  0.00  0.00    -0.307 OA
HETATM   12  H   UNK N   1      31.378  13.626   9.414  0.00  0.00     0.222 HD
ENDBRANCH   9  11
BRANCH   9  13
HETATM   13  O   UNK N   1      32.071  15.172  10.082  0.00  0.00    -0.307 OA
HETATM   14  H   UNK N   1      32.047  15.650  10.926  0.00  0.00     0.222 HD
ENDBRANCH   9  13
ENDBRANCH   8   9
ENDBRANCH   1   8
TORSDOF 7
ENDMDL
MODEL 3
REMARK VINA RESULT:      -4.3     15.383     16.010
REMARK  7 active torsions:
REMARK  status: ('A' for Active; 'I' for Inactive)
REMARK    1  A    between atoms: C_2  and  C_1 
REMARK    2  A    between atoms: C_3  and  C_2 
REMARK    3  A    between atoms: C_2  and  O_10 
REMARK    4  A    between atoms: O_6  and  C_3 
REMARK    5  A    between atoms: P_11  and  O_7 
REMARK    6  A    between atoms: P_11  and  O_8 
REMARK    7  A    between atoms: P_11  and  O_10 
ROOT
HETATM    1  C   UNK N   1      20.345  17.579   2.426  0.00  0.00     0.259 C 
ENDROOT
BRANCH   1   2
HETATM    2  C   UNK N   1      19.719  16.768   3.565  0.00  0.00     0.265 C 
HETATM    3  F   UNK N   1      20.628  15.857   4.076  0.00  0.00    -0.252 F 
ENDBRANCH   1   2
BRANCH   1   4
HETATM    4  C   UNK N   1      20.096  16.947   1.067  0.00  0.00     0.173 C 
HETATM    5  O   UNK N   1      19.735  15.785   0.970  0.00  0.00    -0.648 OA
BRANCH   4   6
HETATM    6  O   UNK N   1      20.243  17.684  -0.049  0.00  0.00    -0.774 OA
HETATM    7  H   UNK N   1      20.862  18.386  -0.090  0.00  0.00     0.167 HD
ENDBRANCH   4   6
ENDBRANCH   1   4
BRANCH   1   8
HETATM    8  O   UNK N   1      19.992  18.955   2.501  0.00  0.00    -0.278 OA
BRANCH   8   9
HETATM    9  P   UNK N   1      21.405  19.981   2.690  0.00  0.00     0.391 P 
HETATM   10  O   UNK N   1      20.506  20.390   3.888  0.00  0.00    -0.632 OA
BRANCH   9  11
HETATM   11  O   UNK N   1      21.265  21.705   2.541  0.00  0.00    -0.307 OA
HETATM   12  H   UNK N   1      22.054  22.265   2.604  0.00  0.00     0.222 HD
ENDBRANCH   9  11
BRANCH   9  13
HETATM   13  O   UNK N   1      20.623  20.392   1.195  0.00  0.00    -0.307 OA
HETATM   14  H   UNK N   1      21.069  20.586   0.356  0.00  0.00     0.222 HD
ENDBRANCH   9  13
ENDBRANCH   8   9
ENDBRANCH   1   8
TORSDOF 7
ENDMDL
MODEL 4
REMARK VINA RESULT:      -4.2     15.298     15.886
REMARK  7 active torsions:
REMARK  status: ('A' for Active; 'I' for Inactive)
REMARK    1  A    between atoms: C_2  and  C_1 
REMARK    2  A    between atoms: C_3  and  C_2 
REMARK    3  A    between atoms: C_2  and  O_10 
REMARK    4  A    between atoms: O_6  and  C_3 
REMARK    5  A    between atoms: P_11  and  O_7 
REMARK    6  A    between atoms: P_11  and  O_8 
REMARK    7  A    between atoms: P_11  and  O_10 
ROOT
HETATM    1  C   UNK N   1      20.240  19.535   2.770  0.00  0.00     0.259 C 
ENDROOT
BRANCH   1   2
HETATM    2  C   UNK N   1      21.379  19.224   3.747  0.00  0.00     0.265 C 
HETATM    3  F   UNK N   1      20.966  19.405   5.056  0.00  0.00    -0.252 F 
ENDBRANCH   1   2
BRANCH   1   4
HETATM    4  C   UNK N   1      20.740  20.198   1.499  0.00  0.00     0.173 C 
HETATM    5  O   UNK N   1      21.399  21.225   1.541  0.00  0.00    -0.648 OA
BRANCH   4   6
HETATM    6  O   UNK N   1      20.483  19.633   0.305  0.00  0.00    -0.774 OA
HETATM    7  H   UNK N   1      20.304  20.156  -0.452  0.00  0.00     0.167 HD
ENDBRANCH   4   6
ENDBRANCH   1   4
BRANCH   1   8
HETATM    8  O   UNK N   1      19.411  18.401   2.549  0.00  0.00    -0.278 OA
BRANCH   8   9
HETATM    9  P   UNK N   1      20.280  16.897   2.811  0.00  0.00     0.391 P 
HETATM   10  O   UNK N   1      19.864  16.810   1.318  0.00  0.00    -0.632 OA
BRANCH   9  11
HETATM   11  O   UNK N   1      19.455  15.374   2.692  0.00  0.00    -0.307 OA
HETATM   12  H   UNK N   1      19.702  14.739   2.002  0.00  0.00     0.222 HD
ENDBRANCH   9  11
BRANCH   9  13
HETATM   13  O   UNK N   1      18.868  16.899   3.821  0.00  0.00    -0.307 OA
HETATM   14  H   UNK N   1      17.953  17.005   3.517  0.00  0.00     0.222 HD
ENDBRANCH   9  13
ENDBRANCH   8   9
ENDBRANCH   1   8
TORSDOF 7
ENDMDL
MODEL 5
REMARK VINA RESULT:      -4.0      1.847      2.144
REMARK  7 active torsions:
REMARK  status: ('A' for Active; 'I' for Inactive)
REMARK    1  A    between atoms: C_2  and  C_1 
REMARK    2  A    between atoms: C_3  and  C_2 
REMARK    3  A    between atoms: C_2  and  O_10 
REMARK    4  A    between atoms: O_6  and  C_3 
REMARK    5  A    between atoms: P_11  and  O_7 
REMARK    6  A    between atoms: P_11  and  O_8 
REMARK    7  A    between atoms: P_11  and  O_10 
ROOT
HETATM    1  C   UNK N   1      32.781  16.774   7.327  0.00  0.00     0.259 C 
ENDROOT
BRANCH   1   2
HETATM    2  C   UNK N   1      31.420  17.089   6.699  0.00  0.00     0.265 C 
HETATM    3  F   UNK N   1      30.497  16.104   7.008  0.00  0.00    -0.252 F 
ENDBRANCH   1   2
BRANCH   1   4
HETATM    4  C   UNK N   1      33.884  17.666   6.784  0.00  0.00     0.173 C 
HETATM    5  O   UNK N   1      34.026  17.833   5.583  0.00  0.00    -0.648 OA
BRANCH   4   6
HETATM    6  O   UNK N   1      34.701  18.312   7.637  0.00  0.00    -0.774 OA
HETATM    7  H   UNK N   1      34.764  18.058   8.537  0.00  0.00     0.167 HD
ENDBRANCH   4   6
ENDBRANCH   1   4
BRANCH   1   8
HETATM    8  O   UNK N   1      32.711  16.733   8.746  0.00  0.00    -0.278 OA
BRANCH   8   9
HETATM    9  P   UNK N   1      33.366  15.235   9.389  0.00  0.00     0.391 P 
HETATM   10  O   UNK N   1      31.866  15.163   9.781  0.00  0.00    -0.632 OA
BRANCH   9  11
HETATM   11  O   UNK N   1      33.392  14.952  11.102  0.00  0.00    -0.307 OA
HETATM   12  H   UNK N   1      33.953  15.495  11.676  0.00  0.00     0.222 HD
ENDBRANCH   9  11
BRANCH   9  13
HETATM   13  O   UNK N   1      34.129  16.564  10.206  0.00  0.00    -0.307 OA
HETATM   14  H   UNK N   1      34.496  16.543  11.104  0.00  0.00     0.222 HD
ENDBRANCH   9  13
ENDBRANCH   8   9
ENDBRANCH   1   8
TORSDOF 7
ENDMDL
MODEL 6
REMARK VINA RESULT:      -4.0      4.270      5.886
REMARK  7 active torsions:
REMARK  status: ('A' for Active; 'I' for Inactive)
REMARK    1  A    between atoms: C_2  and  C_1 
REMARK    2  A    between atoms: C_3  and  C_2 
REMARK    3  A    between atoms: C_2  and  O_10 
REMARK    4  A    between atoms: O_6  and  C_3 
REMARK    5  A    between atoms: P_11  and  O_7 
REMARK    6  A    between atoms: P_11  and  O_8 
REMARK    7  A    between atoms: P_11  and  O_10 
ROOT
HETATM    1  C   UNK N   1      35.846  14.274  12.184  0.00  0.00     0.259 C 
ENDROOT
BRANCH   1   2
HETATM    2  C   UNK N   1      37.002  13.606  11.434  0.00  0.00     0.265 C 
HETATM    3  F   UNK N   1      37.362  12.417  12.046  0.00  0.00    -0.252 F 
ENDBRANCH   1   2
BRANCH   1   4
HETATM    4  C   UNK N   1      35.932  14.056  13.684  0.00  0.00     0.173 C 
HETATM    5  O   UNK N   1      35.040  13.482  14.290  0.00  0.00    -0.648 OA
BRANCH   4   6
HETATM    6  O   UNK N   1      37.021  14.470  14.358  0.00  0.00    -0.774 OA
HETATM    7  H   UNK N   1      37.044  15.308  14.777  0.00  0.00     0.167 HD
ENDBRANCH   4   6
ENDBRANCH   1   4
BRANCH   1   8
HETATM    8  O   UNK N   1      35.685  15.634  11.802  0.00  0.00    -0.278 OA
BRANCH   8   9
HETATM    9  P   UNK N   1      35.106  15.783  10.150  0.00  0.00     0.391 P 
HETATM   10  O   UNK N   1      35.584  17.221  10.489  0.00  0.00    -0.632 OA
BRANCH   9  11
HETATM   11  O   UNK N   1      33.731  16.780   9.787  0.00  0.00    -0.307 OA
HETATM   12  H   UNK N   1      33.791  17.743   9.879  0.00  0.00     0.222 HD
ENDBRANCH   9  11
BRANCH   9  13
HETATM   13  O   UNK N   1      33.765  15.349  11.165  0.00  0.00    -0.307 OA
HETATM   14  H   UNK N   1      33.776  14.674  11.862  0.00  0.00     0.222 HD
ENDBRANCH   9  13
ENDBRANCH   8   9
ENDBRANCH   1   8
TORSDOF 7
ENDMDL
MODEL 7
REMARK VINA RESULT:      -4.0     13.947     15.074
REMARK  7 active torsions:
REMARK  status: ('A' for Active; 'I' for Inactive)
REMARK    1  A    between atoms: C_2  and  C_1 
REMARK    2  A    between atoms: C_3  and  C_2 
REMARK    3  A    between atoms: C_2  and  O_10 
REMARK    4  A    between atoms: O_6  and  C_3 
REMARK    5  A    between atoms: P_11  and  O_7 
REMARK    6  A    between atoms: P_11  and  O_8 
REMARK    7  A    between atoms: P_11  and  O_10 
ROOT
HETATM    1  C   UNK N   1      28.982  23.788  -3.891  0.00  0.00     0.259 C 
ENDROOT
BRANCH   1   2
HETATM    2  C   UNK N   1      28.899  23.558  -5.404  0.00  0.00     0.265 C 
HETATM    3  F   UNK N   1      28.713  22.215  -5.686  0.00  0.00    -0.252 F 
ENDBRANCH   1   2
BRANCH   1   4
HETATM    4  C   UNK N   1      27.691  24.352  -3.325  0.00  0.00     0.173 C 
HETATM    5  O   UNK N   1      27.055  23.741  -2.480  0.00  0.00    -0.648 OA
BRANCH   4   6
HETATM    6  O   UNK N   1      27.252  25.557  -3.732  0.00  0.00    -0.774 OA
HETATM    7  H   UNK N   1      26.337  25.739  -3.814  0.00  0.00     0.167 HD
ENDBRANCH   4   6
ENDBRANCH   1   4
BRANCH   1   8
HETATM    8  O   UNK N   1      29.465  22.638  -3.208  0.00  0.00    -0.278 OA
BRANCH   8   9
HETATM    9  P   UNK N   1      31.219  22.547  -3.244  0.00  0.00     0.391 P 
HETATM   10  O   UNK N   1      30.781  21.106  -3.622  0.00  0.00    -0.632 OA
BRANCH   9  11
HETATM   11  O   UNK N   1      32.069  21.539  -2.114  0.00  0.00    -0.307 OA
HETATM   12  H   UNK N   1      31.581  21.064  -1.423  0.00  0.00     0.222 HD
ENDBRANCH   9  11
BRANCH   9  13
HETATM   13  O   UNK N   1      30.720  22.911  -1.620  0.00  0.00    -0.307 OA
HETATM   14  H   UNK N   1      30.665  22.277  -0.888  0.00  0.00     0.222 HD
ENDBRANCH   9  13
ENDBRANCH   8   9
ENDBRANCH   1   8
TORSDOF 7
ENDMDL
MODEL 8
REMARK VINA RESULT:      -3.9     11.781     12.799
REMARK  7 active torsions:
REMARK  status: ('A' for Active; 'I' for Inactive)
REMARK    1  A    between atoms: C_2  and  C_1 
REMARK    2  A    between atoms: C_3  and  C_2 
REMARK    3  A    between atoms: C_2  and  O_10 
REMARK    4  A    between atoms: O_6  and  C_3 
REMARK    5  A    between atoms: P_11  and  O_7 
REMARK    6  A    between atoms: P_11  and  O_8 
REMARK    7  A    between atoms: P_11  and  O_10 
ROOT
HETATM    1  C   UNK N   1      43.484  21.726   3.909  0.00  0.00     0.259 C 
ENDROOT
BRANCH   1   2
HETATM    2  C   UNK N   1      42.726  20.618   3.172  0.00  0.00     0.265 C 
HETATM    3  F   UNK N   1      41.634  20.194   3.910  0.00  0.00    -0.252 F 
ENDBRANCH   1   2
BRANCH   1   4
HETATM    4  C   UNK N   1      44.985  21.494   3.908  0.00  0.00     0.173 C 
HETATM    5  O   UNK N   1      45.452  20.398   3.642  0.00  0.00    -0.648 OA
BRANCH   4   6
HETATM    6  O   UNK N   1      45.819  22.517   4.172  0.00  0.00    -0.774 OA
HETATM    7  H   UNK N   1      45.643  23.382   3.857  0.00  0.00     0.167 HD
ENDBRANCH   4   6
ENDBRANCH   1   4
BRANCH   1   8
HETATM    8  O   UNK N   1      43.094  23.019   3.462  0.00  0.00    -0.278 OA
BRANCH   8   9
HETATM    9  P   UNK N   1      43.034  23.111   1.709  0.00  0.00     0.391 P 
HETATM   10  O   UNK N   1      44.170  24.102   2.077  0.00  0.00    -0.632 OA
BRANCH   9  11
HETATM   11  O   UNK N   1      42.574  24.590   0.923  0.00  0.00    -0.307 OA
HETATM   12  H   UNK N   1      43.136  25.376   0.999  0.00  0.00     0.222 HD
ENDBRANCH   9  11
BRANCH   9  13
HETATM   13  O   UNK N   1      41.521  23.683   2.342  0.00  0.00    -0.307 OA
HETATM   14  H   UNK N   1      41.289  24.611   2.505  0.00  0.00     0.222 HD
ENDBRANCH   9  13
ENDBRANCH   8   9
ENDBRANCH   1   8
TORSDOF 7
ENDMDL
MODEL 9
REMARK VINA RESULT:      -3.9      2.413      3.020
REMARK  7 active torsions:
REMARK  status: ('A' for Active; 'I' for Inactive)
REMARK    1  A    between atoms: C_2  and  C_1 
REMARK    2  A    between atoms: C_3  and  C_2 
REMARK    3  A    between atoms: C_2  and  O_10 
REMARK    4  A    between atoms: O_6  and  C_3 
REMARK    5  A    between atoms: P_11  and  O_7 
REMARK    6  A    between atoms: P_11  and  O_8 
REMARK    7  A    between atoms: P_11  and  O_10 
ROOT
HETATM    1  C   UNK N   1      34.703  16.632   8.428  0.00  0.00     0.259 C 
ENDROOT
BRANCH   1   2
HETATM    2  C   UNK N   1      34.544  15.467   7.446  0.00  0.00     0.265 C 
HETATM    3  F   UNK N   1      35.665  15.345   6.642  0.00  0.00    -0.252 F 
ENDBRANCH   1   2
BRANCH   1   4
HETATM    4  C   UNK N   1      34.606  17.981   7.737  0.00  0.00     0.173 C 
HETATM    5  O   UNK N   1      34.155  18.079   6.606  0.00  0.00    -0.648 OA
BRANCH   4   6
HETATM    6  O   UNK N   1      34.989  19.094   8.389  0.00  0.00    -0.774 OA
HETATM    7  H   UNK N   1      34.365  19.647   8.816  0.00  0.00     0.167 HD
ENDBRANCH   4   6
ENDBRANCH   1   4
BRANCH   1   8
HETATM    8  O   UNK N   1      33.849  16.492   9.556  0.00  0.00    -0.278 OA
BRANCH   8   9
HETATM    9  P   UNK N   1      32.687  15.193   9.336  0.00  0.00     0.391 P 
HETATM   10  O   UNK N   1      31.844  16.470   9.075  0.00  0.00    -0.632 OA
BRANCH   9  11
HETATM   11  O   UNK N   1      31.335  15.032  10.414  0.00  0.00    -0.307 OA
HETATM   12  H   UNK N   1      31.330  15.503  11.262  0.00  0.00     0.222 HD
ENDBRANCH   9  11
BRANCH   9  13
HETATM   13  O   UNK N   1      33.233  15.169  10.985  0.00  0.00    -0.307 OA
HETATM   14  H   UNK N   1      33.638  15.913  11.459  0.00  0.00     0.222 HD
ENDBRANCH   9  13
ENDBRANCH   8   9
ENDBRANCH   1   8
TORSDOF 7
ENDMDL
