MODEL 1
REMARK VINA RESULT:      -5.7      0.000      0.000
REMARK  1 active torsions:
REMARK  status: ('A' for Active; 'I' for Inactive)
REMARK    1  A    between atoms: N_11  and  C_6 
ROOT
HETATM    1  C   UNK N   1      21.422  12.186  11.404  0.00  0.00     0.017 A 
HETATM    2  C   UNK N   1      20.540  12.878  10.550  0.00  0.00     0.037 A 
HETATM    3  C   UNK N   1      22.435  13.815   9.309  0.00  0.00     0.067 A 
HETATM    4  C   UNK N   1      23.887  11.815  11.805  0.00  0.00     0.120 A 
HETATM    5  C   UNK N   1      22.785  12.338  11.172  0.00  0.00     0.009 A 
HETATM    6  C   UNK N   1      21.041  13.696   9.499  0.00  0.00     0.105 A 
HETATM    7  C   UNK N   1      23.265  13.119  10.169  0.00  0.00     0.062 A 
HETATM    8  N   UNK N   1      24.984  12.295  11.165  0.00  0.00    -0.311 N 
HETATM    9  N   UNK N   1      24.602  13.089  10.170  0.00  0.00    -0.300 N 
ATOM     10  HN  UNK N   1      25.216  13.585   9.523  1.00  0.00     0.187 HD
HETATM   11  H   UNK N   1      25.917  12.088  11.402  0.00  0.00     0.186 HD
ENDROOT
BRANCH   6  12
HETATM   12  N   UNK N   1      20.154  14.394   8.639  0.00  0.00    -0.116 N 
HETATM   13  O   UNK N   1      19.457  15.261   9.071  0.00  0.00    -0.532 OA
HETATM   14  O   UNK N   1      20.100  14.119   7.478  0.00  0.00    -0.532 OA
ENDBRANCH   6  12
TORSDOF 1
ENDMDL
MODEL 2
REMARK VINA RESULT:      -5.5     11.251     12.447
REMARK  1 active torsions:
REMARK  status: ('A' for Active; 'I' for Inactive)
REMARK    1  A    between atoms: N_11  and  C_6 
ROOT
HETATM    1  C   UNK N   1      32.731  17.225   5.657  0.00  0.00     0.017 A 
HETATM    2  C   UNK N   1      33.828  17.609   6.454  0.00  0.00     0.037 A 
HETATM    3  C   UNK N   1      32.382  17.746   8.427  0.00  0.00     0.067 A 
HETATM    4  C   UNK N   1      30.252  16.773   5.808  0.00  0.00     0.120 A 
HETATM    5  C   UNK N   1      31.495  17.117   6.284  0.00  0.00     0.009 A 
HETATM    6  C   UNK N   1      33.660  17.871   7.842  0.00  0.00     0.105 A 
HETATM    7  C   UNK N   1      31.332  17.367   7.609  0.00  0.00     0.062 A 
HETATM    8  N   UNK N   1      29.391  16.828   6.856  0.00  0.00    -0.311 N 
HETATM    9  N   UNK N   1      30.051  17.190   7.952  0.00  0.00    -0.300 N 
ATOM     10  HN  UNK N   1      29.654  17.311   8.884  1.00  0.00     0.187 HD
HETATM   11  H   UNK N   1      28.427  16.630   6.812  0.00  0.00     0.186 HD
ENDROOT
BRANCH   6  12
HETATM   12  N   UNK N   1      34.764  18.257   8.646  0.00  0.00    -0.116 N 
HETATM   13  O   UNK N   1      35.140  17.549   9.530  0.00  0.00    -0.532 OA
HETATM   14  O   UNK N   1      35.323  19.293   8.443  0.00  0.00    -0.532 OA
ENDBRANCH   6  12
TORSDOF 1
ENDMDL
MODEL 3
REMARK VINA RESULT:      -5.4     14.338     15.272
REMARK  1 active torsions:
REMARK  status: ('A' for Active; 'I' for Inactive)
REMARK    1  A    between atoms: N_11  and  C_6 
ROOT
HETATM    1  C   UNK N   1      35.529  10.807  17.450  0.00  0.00     0.017 A 
HETATM    2  C   UNK N   1      35.529  11.345  16.147  0.00  0.00     0.037 A 
HETATM    3  C   UNK N   1      35.211  13.601  17.050  0.00  0.00     0.067 A 
HETATM    4  C   UNK N   1      35.325  11.505  19.867  0.00  0.00     0.120 A 
HETATM    5  C   UNK N   1      35.369  11.696  18.507  0.00  0.00     0.009 A 
HETATM    6  C   UNK N   1      35.369  12.744  15.941  0.00  0.00     0.105 A 
HETATM    7  C   UNK N   1      35.217  13.031  18.311  0.00  0.00     0.062 A 
HETATM    8  N   UNK N   1      35.149  12.724  20.439  0.00  0.00    -0.311 N 
HETATM    9  N   UNK N   1      35.084  13.652  19.489  0.00  0.00    -0.300 N 
ATOM     10  HN  UNK N   1      34.955  14.654  19.632  1.00  0.00     0.187 HD
HETATM   11  H   UNK N   1      35.081  12.894  21.406  0.00  0.00     0.186 HD
ENDROOT
BRANCH   6  12
HETATM   12  N   UNK N   1      35.369  13.287  14.629  0.00  0.00    -0.116 N 
HETATM   13  O   UNK N   1      36.192  14.090  14.312  0.00  0.00    -0.532 OA
HETATM   14  O   UNK N   1      34.544  12.944  13.836  0.00  0.00    -0.532 OA
ENDBRANCH   6  12
TORSDOF 1
ENDMDL
MODEL 4
REMARK VINA RESULT:      -5.4     10.339     11.469
REMARK  1 active torsions:
REMARK  status: ('A' for Active; 'I' for Inactive)
REMARK    1  A    between atoms: N_11  and  C_6 
ROOT
HETATM    1  C   UNK N   1      30.360  17.053   6.469  0.00  0.00     0.017 A 
HETATM    2  C   UNK N   1      31.744  17.089   6.212  0.00  0.00     0.037 A 
HETATM    3  C   UNK N   1      32.162  18.012   8.443  0.00  0.00     0.067 A 
HETATM    4  C   UNK N   1      28.678  17.599   8.271  0.00  0.00     0.120 A 
HETATM    5  C   UNK N   1      29.930  17.502   7.713  0.00  0.00     0.009 A 
HETATM    6  C   UNK N   1      32.653  17.568   7.197  0.00  0.00     0.105 A 
HETATM    7  C   UNK N   1      30.796  17.960   8.654  0.00  0.00     0.062 A 
HETATM    8  N   UNK N   1      28.833  18.108   9.520  0.00  0.00    -0.311 N 
HETATM    9  N   UNK N   1      30.124  18.327   9.751  0.00  0.00    -0.300 N 
ATOM     10  HN  UNK N   1      30.528  18.705  10.608  1.00  0.00     0.187 HD
HETATM   11  H   UNK N   1      28.102  18.287  10.156  0.00  0.00     0.186 HD
ENDROOT
BRANCH   6  12
HETATM   12  N   UNK N   1      34.048  17.604   6.939  0.00  0.00    -0.116 N 
HETATM   13  O   UNK N   1      34.737  18.415   7.480  0.00  0.00    -0.532 OA
HETATM   14  O   UNK N   1      34.541  16.825   6.180  0.00  0.00    -0.532 OA
ENDBRANCH   6  12
TORSDOF 1
ENDMDL
MODEL 5
REMARK VINA RESULT:      -5.3     12.539     13.301
REMARK  1 active torsions:
REMARK  status: ('A' for Active; 'I' for Inactive)
REMARK    1  A    between atoms: N_11  and  C_6 
ROOT
HETATM    1  C   UNK N   1      33.636  14.969   9.813  0.00  0.00     0.017 A 
HETATM    2  C   UNK N   1      33.677  16.090   8.961  0.00  0.00     0.037 A 
HETATM    3  C   UNK N   1      35.526  17.041  10.258  0.00  0.00     0.067 A 
HETATM    4  C   UNK N   1      34.772  14.002  11.850  0.00  0.00     0.120 A 
HETATM    5  C   UNK N   1      34.550  14.930  10.861  0.00  0.00     0.009 A 
HETATM    6  C   UNK N   1      34.621  17.132   9.179  0.00  0.00     0.105 A 
HETATM    7  C   UNK N   1      35.452  15.924  11.069  0.00  0.00     0.062 A 
HETATM    8  N   UNK N   1      35.793  14.467  12.614  0.00  0.00    -0.311 N 
HETATM    9  N   UNK N   1      36.205  15.637  12.137  0.00  0.00    -0.300 N 
ATOM     10  HN  UNK N   1      36.959  16.212  12.515  1.00  0.00     0.187 HD
HETATM   11  H   UNK N   1      36.170  14.008  13.401  0.00  0.00     0.186 HD
ENDROOT
BRANCH   6  12
HETATM   12  N   UNK N   1      34.663  18.262   8.321  0.00  0.00    -0.116 N 
HETATM   13  O   UNK N   1      35.328  19.211   8.611  0.00  0.00    -0.532 OA
HETATM   14  O   UNK N   1      34.035  18.271   7.306  0.00  0.00    -0.532 OA
ENDBRANCH   6  12
TORSDOF 1
ENDMDL
MODEL 6
REMARK VINA RESULT:      -5.2     11.737     12.815
REMARK  1 active torsions:
REMARK  status: ('A' for Active; 'I' for Inactive)
REMARK    1  A    between atoms: N_11  and  C_6 
ROOT
HETATM    1  C   UNK N   1      31.233  17.166   7.344  0.00  0.00     0.017 A 
HETATM    2  C   UNK N   1      32.274  17.525   8.223  0.00  0.00     0.037 A 
HETATM    3  C   UNK N   1      33.837  17.697   6.343  0.00  0.00     0.067 A 
HETATM    4  C   UNK N   1      30.775  16.773   4.893  0.00  0.00     0.120 A 
HETATM    5  C   UNK N   1      31.540  17.088   5.990  0.00  0.00     0.009 A 
HETATM    6  C   UNK N   1      33.581  17.792   7.728  0.00  0.00     0.105 A 
HETATM    7  C   UNK N   1      32.787  17.342   5.516  0.00  0.00     0.062 A 
HETATM    8  N   UNK N   1      31.582  16.848   3.804  0.00  0.00    -0.311 N 
HETATM    9  N   UNK N   1      32.807  17.195   4.186  0.00  0.00    -0.300 N 
ATOM     10  HN  UNK N   1      33.615  17.326   3.577  1.00  0.00     0.187 HD
HETATM   11  H   UNK N   1      31.304  16.673   2.875  0.00  0.00     0.186 HD
ENDROOT
BRANCH   6  12
HETATM   12  N   UNK N   1      34.631  18.153   8.612  0.00  0.00    -0.116 N 
HETATM   13  O   UNK N   1      34.904  17.451   9.537  0.00  0.00    -0.532 OA
HETATM   14  O   UNK N   1      35.246  19.162   8.436  0.00  0.00    -0.532 OA
ENDBRANCH   6  12
TORSDOF 1
ENDMDL
MODEL 7
REMARK VINA RESULT:      -5.1     20.770     21.820
REMARK  1 active torsions:
REMARK  status: ('A' for Active; 'I' for Inactive)
REMARK    1  A    between atoms: N_11  and  C_6 
ROOT
HETATM    1  C   UNK N   1      27.448  28.450  -6.468  0.00  0.00     0.017 A 
HETATM    2  C   UNK N   1      27.052  27.276  -7.139  0.00  0.00     0.037 A 
HETATM    3  C   UNK N   1      25.487  26.738  -5.332  0.00  0.00     0.067 A 
HETATM    4  C   UNK N   1      26.995  29.757  -4.356  0.00  0.00     0.120 A 
HETATM    5  C   UNK N   1      26.841  28.722  -5.246  0.00  0.00     0.009 A 
HETATM    6  C   UNK N   1      26.070  26.414  -6.575  0.00  0.00     0.105 A 
HETATM    7  C   UNK N   1      25.904  27.900  -4.707  0.00  0.00     0.062 A 
HETATM    8  N   UNK N   1      26.151  29.525  -3.319  0.00  0.00    -0.311 N 
HETATM    9  N   UNK N   1      25.488  28.393  -3.535  0.00  0.00    -0.300 N 
ATOM     10  HN  UNK N   1      24.788  27.976  -2.920  1.00  0.00     0.187 HD
HETATM   11  H   UNK N   1      26.046  30.104  -2.529  0.00  0.00     0.186 HD
ENDROOT
BRANCH   6  12
HETATM   12  N   UNK N   1      25.671  25.231  -7.250  0.00  0.00    -0.116 N 
HETATM   13  O   UNK N   1      25.309  24.279  -6.628  0.00  0.00    -0.532 OA
HETATM   14  O   UNK N   1      25.694  25.182  -8.443  0.00  0.00    -0.532 OA
ENDBRANCH   6  12
TORSDOF 1
ENDMDL
MODEL 8
REMARK VINA RESULT:      -5.1      1.781      2.362
REMARK  1 active torsions:
REMARK  status: ('A' for Active; 'I' for Inactive)
REMARK    1  A    between atoms: N_11  and  C_6 
ROOT
HETATM    1  C   UNK N   1      24.030  12.925   9.697  0.00  0.00     0.017 A 
HETATM    2  C   UNK N   1      23.351  13.451   8.580  0.00  0.00     0.037 A 
HETATM    3  C   UNK N   1      21.191  12.925   9.612  0.00  0.00     0.067 A 
HETATM    4  C   UNK N   1      23.592  11.844  11.936  0.00  0.00     0.120 A 
HETATM    5  C   UNK N   1      23.254  12.417  10.733  0.00  0.00     0.009 A 
HETATM    6  C   UNK N   1      21.928  13.454   8.531  0.00  0.00     0.105 A 
HETATM    7  C   UNK N   1      21.897  12.419  10.688  0.00  0.00     0.062 A 
HETATM    8  N   UNK N   1      22.435  11.524  12.569  0.00  0.00    -0.311 N 
HETATM    9  N   UNK N   1      21.404  11.875  11.807  0.00  0.00    -0.300 N 
ATOM     10  HN  UNK N   1      20.416  11.752  12.033  1.00  0.00     0.187 HD
HETATM   11  H   UNK N   1      22.369  11.098  13.455  0.00  0.00     0.186 HD
ENDROOT
BRANCH   6  12
HETATM   12  N   UNK N   1      21.243  13.983   7.406  0.00  0.00    -0.116 N 
HETATM   13  O   UNK N   1      21.706  14.900   6.799  0.00  0.00    -0.532 OA
HETATM   14  O   UNK N   1      20.200  13.515   7.062  0.00  0.00    -0.532 OA
ENDBRANCH   6  12
TORSDOF 1
ENDMDL
MODEL 9
REMARK VINA RESULT:      -5.0     11.300     12.382
REMARK  1 active torsions:
REMARK  status: ('A' for Active; 'I' for Inactive)
REMARK    1  A    between atoms: N_11  and  C_6 
ROOT
HETATM    1  C   UNK N   1      30.391  17.082   6.276  0.00  0.00     0.017 A 
HETATM    2  C   UNK N   1      31.704  17.162   6.779  0.00  0.00     0.037 A 
HETATM    3  C   UNK N   1      32.608  17.126   4.501  0.00  0.00     0.067 A 
HETATM    4  C   UNK N   1      29.123  16.946   4.097  0.00  0.00     0.120 A 
HETATM    5  C   UNK N   1      30.239  17.027   4.895  0.00  0.00     0.009 A 
HETATM    6  C   UNK N   1      32.819  17.184   5.895  0.00  0.00     0.105 A 
HETATM    7  C   UNK N   1      31.302  17.048   4.050  0.00  0.00     0.062 A 
HETATM    8  N   UNK N   1      29.550  16.922   2.809  0.00  0.00    -0.311 N 
HETATM    9  N   UNK N   1      30.878  16.984   2.783  0.00  0.00    -0.300 N 
ATOM     10  HN  UNK N   1      31.466  16.982   1.949  1.00  0.00     0.187 HD
HETATM   11  H   UNK N   1      28.967  16.866   2.017  0.00  0.00     0.186 HD
ENDROOT
BRANCH   6  12
HETATM   12  N   UNK N   1      34.143  17.265   6.401  0.00  0.00    -0.116 N 
HETATM   13  O   UNK N   1      34.924  16.389   6.180  0.00  0.00    -0.532 OA
HETATM   14  O   UNK N   1      34.484  18.208   7.049  0.00  0.00    -0.532 OA
ENDBRANCH   6  12
TORSDOF 1
ENDMDL
