MODEL 1
REMARK VINA RESULT:      -8.2      0.000      0.000
REMARK  14 active torsions:
REMARK  status: ('A' for Active; 'I' for Inactive)
REMARK    1  A    between atoms: C_9  and  C_5 
REMARK    2  A    between atoms: C_11  and  C_5 
REMARK    3  A    between atoms: C_12  and  C_6 
REMARK    4  A    between atoms: O_37  and  C_6 
REMARK    5  A    between atoms: O_31  and  C_10 
REMARK    6  A    between atoms: C_18  and  C_11 
REMARK    7  A    between atoms: C_11  and  N_20 
REMARK    8  A    between atoms: C_14  and  O_32 
REMARK    9  A    between atoms: C_15  and  O_33 
REMARK   10  A    between atoms: N_21  and  C_16 
REMARK   11  A    between atoms: O_34  and  C_18 
REMARK   12  A    between atoms: C_19  and  N_30 
REMARK   13  A    between atoms: N_28  and  S_39 
REMARK   14  A    between atoms: S_39  and  O_37 
ROOT
HETATM    1  C   UNK N   1      34.204  15.442   9.594  0.00  0.00     0.180 C 
HETATM    2  C   UNK N   1      34.971  16.667   9.102  0.00  0.00     0.182 C 
HETATM    3  C   UNK N   1      33.981  17.275   8.120  0.00  0.00     0.198 C 
HETATM    4  C   UNK N   1      32.875  16.228   8.066  0.00  0.00     0.262 C 
HETATM    5  O   UNK N   1      32.827  15.717   9.387  0.00  0.00    -0.353 OA
ENDROOT
BRANCH   1   6
HETATM    6  C   UNK N   1      34.604  15.008  11.009  0.00  0.00     0.226 C 
BRANCH   6   7
HETATM    7  O   UNK N   1      35.205  13.723  11.015  0.00  0.00    -0.257 OA
BRANCH   7   8
HETATM    8  S   UNK N   1      36.818  13.472  11.753  0.00  0.00     0.363 S 
HETATM    9  O   UNK N   1      37.592  12.213  11.320  0.00  0.00    -0.175 OA
HETATM   10  O   UNK N   1      37.404  13.890  10.394  0.00  0.00    -0.175 OA
BRANCH   8  11
HETATM   11  N   UNK N   1      35.783  12.038  11.637  0.00  0.00    -0.243 N 
HETATM   12  C   UNK N   1      35.371  11.357  12.664  0.00  0.00     0.149 C 
ATOM     13  HN  UNK N   1      35.493  11.729  10.708  1.00  0.00     0.182 HD
BRANCH  12  14
HETATM   14  C   UNK N   1      35.782  11.701  14.076  0.00  0.00     0.154 C 
BRANCH  14  15
HETATM   15  C   UNK N   1      34.728  11.173  15.053  0.00  0.00     0.071 C 
BRANCH  15  16
HETATM   16  C   UNK N   1      34.963  11.640  16.446  0.00  0.00    -0.056 A 
HETATM   17  C   UNK N   1      35.229  10.722  17.466  0.00  0.00     0.010 A 
HETATM   18  C   UNK N   1      35.429  11.175  18.774  0.00  0.00     0.037 A 
HETATM   19  C   UNK N   1      35.359  12.543  19.059  0.00  0.00     0.065 A 
HETATM   20  C   UNK N   1      35.099  13.459  18.037  0.00  0.00     0.037 A 
HETATM   21  C   UNK N   1      34.904  13.008  16.730  0.00  0.00     0.010 A 
BRANCH  19  22
HETATM   22  O   UNK N   1      35.539  12.977  20.316  0.00  0.00    -0.361 OA
HETATM   23  H   UNK N   1      35.639  12.371  21.024  0.00  0.00     0.217 HD
ENDBRANCH  19  22
ENDBRANCH  15  16
ENDBRANCH  14  15
BRANCH  14  24
HETATM   24  N   UNK N   1      37.092  11.134  14.365  0.00  0.00    -0.419 N 
HETATM   25  H   UNK N   1      37.981  11.486  14.719  0.00  0.00     0.150 HD
HETATM   26  H   UNK N   1      37.130  10.135  14.163  0.00  0.00     0.150 HD
ENDBRANCH  14  24
ENDBRANCH  12  14
BRANCH  12  27
HETATM   27  O   UNK N   1      34.545  10.313  12.466  0.00  0.00    -0.347 OA
HETATM   28  H   UNK N   1      33.812  10.157  13.029  0.00  0.00     0.219 HD
ENDBRANCH  12  27
ENDBRANCH   8  11
ENDBRANCH   7   8
ENDBRANCH   6   7
ENDBRANCH   1   6
BRANCH   2  29
HETATM   29  O   UNK N   1      35.205  17.575  10.143  0.00  0.00    -0.390 OA
HETATM   30  H   UNK N   1      34.824  17.928  10.962  0.00  0.00     0.210 HD
ENDBRANCH   2  29
BRANCH   3  31
HETATM   31  O   UNK N   1      34.545  17.529   6.868  0.00  0.00    -0.388 OA
HETATM   32  H   UNK N   1      34.441  17.580   5.905  0.00  0.00     0.210 HD
ENDBRANCH   3  31
BRANCH   4  33
HETATM   33  N   UNK N   1      31.576  16.705   7.564  0.00  0.00    -0.297 N 
HETATM   34  C   UNK N   1      31.201  16.697   6.257  0.00  0.00     0.188 A 
HETATM   35  N   UNK N   1      30.000  17.316   6.077  0.00  0.00    -0.346 N 
HETATM   36  C   UNK N   1      29.645  17.721   7.310  0.00  0.00     0.122 A 
ATOM     37  HN  UNK N   1      29.485  17.443   5.205  1.00  0.00     0.167 HD
HETATM   38  C   UNK N   1      28.543  18.457   7.721  0.00  0.00     0.131 A 
HETATM   39  C   UNK N   1      30.581  17.344   8.203  0.00  0.00     0.142 A 
HETATM   40  N   UNK N   1      28.440  18.770   9.046  0.00  0.00    -0.337 N 
HETATM   41  C   UNK N   1      29.400  18.371   9.942  0.00  0.00     0.183 A 
ATOM     42  HN  UNK N   1      27.637  19.308   9.375  1.00  0.00     0.168 HD
HETATM   43  N   UNK N   1      30.489  17.660   9.519  0.00  0.00    -0.336 N 
ATOM     44  HN  UNK N   1      31.215  17.374  10.176  1.00  0.00     0.168 HD
BRANCH  38  45
HETATM   45  N   UNK N   1      27.572  18.899   6.801  0.00  0.00    -0.383 N 
HETATM   46  H   UNK N   1      27.788  19.605   6.149  0.00  0.00     0.157 HD
HETATM   47  H   UNK N   1      26.672  18.500   6.808  0.00  0.00     0.157 HD
ENDBRANCH  38  45
ENDBRANCH   4  33
TORSDOF 14
ENDMDL
MODEL 2
REMARK VINA RESULT:      -8.0     11.942     16.500
REMARK  14 active torsions:
REMARK  status: ('A' for Active; 'I' for Inactive)
REMARK    1  A    between atoms: C_9  and  C_5 
REMARK    2  A    between atoms: C_11  and  C_5 
REMARK    3  A    between atoms: C_12  and  C_6 
REMARK    4  A    between atoms: O_37  and  C_6 
REMARK    5  A    between atoms: O_31  and  C_10 
REMARK    6  A    between atoms: C_18  and  C_11 
REMARK    7  A    between atoms: C_11  and  N_20 
REMARK    8  A    between atoms: C_14  and  O_32 
REMARK    9  A    between atoms: C_15  and  O_33 
REMARK   10  A    between atoms: N_21  and  C_16 
REMARK   11  A    between atoms: O_34  and  C_18 
REMARK   12  A    between atoms: C_19  and  N_30 
REMARK   13  A    between atoms: N_28  and  S_39 
REMARK   14  A    between atoms: S_39  and  O_37 
ROOT
HETATM    1  C   UNK N   1      20.942  15.351   6.299  0.00  0.00     0.180 C 
HETATM    2  C   UNK N   1      20.355  16.477   7.146  0.00  0.00     0.182 C 
HETATM    3  C   UNK N   1      20.206  15.798   8.499  0.00  0.00     0.198 C 
HETATM    4  C   UNK N   1      20.565  14.349   8.189  0.00  0.00     0.262 C 
HETATM    5  O   UNK N   1      21.573  14.454   7.200  0.00  0.00    -0.353 OA
ENDROOT
BRANCH   1   6
HETATM    6  C   UNK N   1      21.799  15.856   5.133  0.00  0.00     0.226 C 
BRANCH   6   7
HETATM    7  O   UNK N   1      21.299  17.073   4.601  0.00  0.00    -0.257 OA
BRANCH   7   8
HETATM    8  S   UNK N   1      22.375  18.188   3.702  0.00  0.00     0.363 S 
HETATM    9  O   UNK N   1      22.032  19.688   3.768  0.00  0.00    -0.175 OA
HETATM   10  O   UNK N   1      22.940  18.600   5.071  0.00  0.00    -0.175 OA
BRANCH   8  11
HETATM   11  N   UNK N   1      20.636  18.500   3.560  0.00  0.00    -0.243 N 
HETATM   12  C   UNK N   1      19.887  18.013   2.617  0.00  0.00     0.149 C 
ATOM     13  HN  UNK N   1      20.197  19.099   4.261  1.00  0.00     0.182 HD
BRANCH  12  14
HETATM   14  C   UNK N   1      20.445  17.157   1.507  0.00  0.00     0.154 C 
BRANCH  14  15
HETATM   15  C   UNK N   1      19.995  15.707   1.708  0.00  0.00     0.071 C 
BRANCH  15  16
HETATM   16  C   UNK N   1      21.021  14.728   1.258  0.00  0.00    -0.056 A 
HETATM   17  C   UNK N   1      20.640  13.465   0.794  0.00  0.00     0.010 A 
HETATM   18  C   UNK N   1      21.617  12.549   0.393  0.00  0.00     0.037 A 
HETATM   19  C   UNK N   1      22.971  12.894   0.460  0.00  0.00     0.065 A 
HETATM   20  C   UNK N   1      23.349  14.160   0.918  0.00  0.00     0.037 A 
HETATM   21  C   UNK N   1      22.374  15.077   1.314  0.00  0.00     0.010 A 
BRANCH  19  22
HETATM   22  O   UNK N   1      23.909  12.011   0.087  0.00  0.00    -0.361 OA
HETATM   23  H   UNK N   1      24.771  12.296  -0.148  0.00  0.00     0.217 HD
ENDBRANCH  19  22
ENDBRANCH  15  16
ENDBRANCH  14  15
BRANCH  14  24
HETATM   24  N   UNK N   1      20.002  17.666   0.215  0.00  0.00    -0.419 N 
HETATM   25  H   UNK N   1      20.398  18.258  -0.514  0.00  0.00     0.150 HD
HETATM   26  H   UNK N   1      19.060  17.352  -0.017  0.00  0.00     0.150 HD
ENDBRANCH  14  24
ENDBRANCH  12  14
BRANCH  12  27
HETATM   27  O   UNK N   1      18.566  18.273   2.634  0.00  0.00    -0.347 OA
HETATM   28  H   UNK N   1      17.936  17.610   2.430  0.00  0.00     0.219 HD
ENDBRANCH  12  27
ENDBRANCH   8  11
ENDBRANCH   7   8
ENDBRANCH   6   7
ENDBRANCH   1   6
BRANCH   2  29
HETATM   29  O   UNK N   1      21.252  17.548   7.263  0.00  0.00    -0.390 OA
HETATM   30  H   UNK N   1      21.512  18.279   7.843  0.00  0.00     0.210 HD
ENDBRANCH   2  29
BRANCH   3  31
HETATM   31  O   UNK N   1      18.924  15.933   9.035  0.00  0.00    -0.388 OA
HETATM   32  H   UNK N   1      17.963  15.931   8.902  0.00  0.00     0.210 HD
ENDBRANCH   3  31
BRANCH   4  33
HETATM   33  N   UNK N   1      20.950  13.532   9.351  0.00  0.00    -0.297 N 
HETATM   34  C   UNK N   1      20.094  13.108  10.318  0.00  0.00     0.188 A 
HETATM   35  N   UNK N   1      20.755  12.480  11.332  0.00  0.00    -0.346 N 
HETATM   36  C   UNK N   1      22.050  12.537  10.972  0.00  0.00     0.122 A 
ATOM     37  HN  UNK N   1      20.358  12.061  12.173  1.00  0.00     0.167 HD
HETATM   38  C   UNK N   1      23.181  12.109  11.651  0.00  0.00     0.131 A 
HETATM   39  C   UNK N   1      22.167  13.154   9.780  0.00  0.00     0.142 A 
HETATM   40  N   UNK N   1      24.398  12.324  11.070  0.00  0.00    -0.337 N 
HETATM   41  C   UNK N   1      24.497  12.948   9.851  0.00  0.00     0.183 A 
ATOM     42  HN  UNK N   1      25.246  12.016  11.547  1.00  0.00     0.168 HD
HETATM   43  N   UNK N   1      23.373  13.379   9.201  0.00  0.00    -0.336 N 
ATOM     44  HN  UNK N   1      23.440  13.858   8.302  1.00  0.00     0.168 HD
BRANCH  38  45
HETATM   45  N   UNK N   1      23.088  11.499  12.918  0.00  0.00    -0.383 N 
HETATM   46  H   UNK N   1      23.032  10.519  12.997  0.00  0.00     0.157 HD
HETATM   47  H   UNK N   1      23.081  12.055  13.730  0.00  0.00     0.157 HD
ENDBRANCH  38  45
ENDBRANCH   4  33
TORSDOF 14
ENDMDL
MODEL 3
REMARK VINA RESULT:      -8.0     11.918     15.972
REMARK  14 active torsions:
REMARK  status: ('A' for Active; 'I' for Inactive)
REMARK    1  A    between atoms: C_9  and  C_5 
REMARK    2  A    between atoms: C_11  and  C_5 
REMARK    3  A    between atoms: C_12  and  C_6 
REMARK    4  A    between atoms: O_37  and  C_6 
REMARK    5  A    between atoms: O_31  and  C_10 
REMARK    6  A    between atoms: C_18  and  C_11 
REMARK    7  A    between atoms: C_11  and  N_20 
REMARK    8  A    between atoms: C_14  and  O_32 
REMARK    9  A    between atoms: C_15  and  O_33 
REMARK   10  A    between atoms: N_21  and  C_16 
REMARK   11  A    between atoms: O_34  and  C_18 
REMARK   12  A    between atoms: C_19  and  N_30 
REMARK   13  A    between atoms: N_28  and  S_39 
REMARK   14  A    between atoms: S_39  and  O_37 
ROOT
HETATM    1  C   UNK N   1      21.334  17.017   6.245  0.00  0.00     0.180 C 
HETATM    2  C   UNK N   1      20.238  17.683   7.074  0.00  0.00     0.182 C 
HETATM    3  C   UNK N   1      19.955  16.615   8.120  0.00  0.00     0.198 C 
HETATM    4  C   UNK N   1      20.798  15.440   7.639  0.00  0.00     0.262 C 
HETATM    5  O   UNK N   1      21.949  16.054   7.086  0.00  0.00    -0.353 OA
ENDROOT
BRANCH   1   6
HETATM    6  C   UNK N   1      22.272  18.023   5.566  0.00  0.00     0.226 C 
BRANCH   6   7
HETATM    7  O   UNK N   1      21.587  18.820   4.613  0.00  0.00    -0.257 OA
BRANCH   7   8
HETATM    8  S   UNK N   1      22.340  19.203   3.032  0.00  0.00     0.363 S 
HETATM    9  O   UNK N   1      21.741  20.382   2.245  0.00  0.00    -0.175 OA
HETATM   10  O   UNK N   1      22.966  20.422   3.729  0.00  0.00    -0.175 OA
BRANCH   8  11
HETATM   11  N   UNK N   1      20.568  19.227   3.078  0.00  0.00    -0.243 N 
HETATM   12  C   UNK N   1      19.816  18.373   2.451  0.00  0.00     0.149 C 
ATOM     13  HN  UNK N   1      20.112  19.956   3.629  1.00  0.00     0.182 HD
BRANCH  12  14
HETATM   14  C   UNK N   1      20.389  17.288   1.572  0.00  0.00     0.154 C 
BRANCH  14  15
HETATM   15  C   UNK N   1      19.897  15.923   2.065  0.00  0.00     0.071 C 
BRANCH  15  16
HETATM   16  C   UNK N   1      20.913  15.223   2.897  0.00  0.00    -0.056 A 
HETATM   17  C   UNK N   1      22.273  15.512   2.746  0.00  0.00     0.010 A 
HETATM   18  C   UNK N   1      23.218  14.831   3.521  0.00  0.00     0.037 A 
HETATM   19  C   UNK N   1      22.802  13.863   4.440  0.00  0.00     0.065 A 
HETATM   20  C   UNK N   1      21.442  13.581   4.594  0.00  0.00     0.037 A 
HETATM   21  C   UNK N   1      20.498  14.263   3.824  0.00  0.00     0.010 A 
BRANCH  19  22
HETATM   22  O   UNK N   1      23.709  13.201   5.175  0.00  0.00    -0.361 OA
HETATM   23  H   UNK N   1      23.454  12.481   5.719  0.00  0.00     0.217 HD
ENDBRANCH  19  22
ENDBRANCH  15  16
ENDBRANCH  14  15
BRANCH  14  24
HETATM   24  N   UNK N   1      19.999  17.513   0.187  0.00  0.00    -0.419 N 
HETATM   25  H   UNK N   1      19.664  18.305  -0.361  0.00  0.00     0.150 HD
HETATM   26  H   UNK N   1      20.081  16.666  -0.376  0.00  0.00     0.150 HD
ENDBRANCH  14  24
ENDBRANCH  12  14
BRANCH  12  27
HETATM   27  O   UNK N   1      18.480  18.452   2.596  0.00  0.00    -0.347 OA
HETATM   28  H   UNK N   1      17.909  18.477   1.853  0.00  0.00     0.219 HD
ENDBRANCH  12  27
ENDBRANCH   8  11
ENDBRANCH   7   8
ENDBRANCH   6   7
ENDBRANCH   1   6
BRANCH   2  29
HETATM   29  O   UNK N   1      20.711  18.838   7.710  0.00  0.00    -0.390 OA
HETATM   30  H   UNK N   1      21.343  19.152   8.375  0.00  0.00     0.210 HD
ENDBRANCH   2  29
BRANCH   3  31
HETATM   31  O   UNK N   1      18.598  16.300   8.219  0.00  0.00    -0.388 OA
HETATM   32  H   UNK N   1      17.677  16.516   8.005  0.00  0.00     0.210 HD
ENDBRANCH   3  31
BRANCH   4  33
HETATM   33  N   UNK N   1      21.097  14.419   8.655  0.00  0.00    -0.297 N 
HETATM   34  C   UNK N   1      20.271  14.084   9.683  0.00  0.00     0.188 A 
HETATM   35  N   UNK N   1      20.865  13.201  10.534  0.00  0.00    -0.346 N 
HETATM   36  C   UNK N   1      22.090  13.006  10.013  0.00  0.00     0.122 A 
ATOM     37  HN  UNK N   1      20.471  12.781  11.377  1.00  0.00     0.167 HD
HETATM   38  C   UNK N   1      23.149  12.250  10.492  0.00  0.00     0.131 A 
HETATM   39  C   UNK N   1      22.225  13.723   8.881  0.00  0.00     0.142 A 
HETATM   40  N   UNK N   1      24.314  12.253   9.778  0.00  0.00    -0.337 N 
HETATM   41  C   UNK N   1      24.430  12.985   8.622  0.00  0.00     0.183 A 
ATOM     42  HN  UNK N   1      25.108  11.703  10.107  1.00  0.00     0.168 HD
HETATM   43  N   UNK N   1      23.381  13.738   8.171  0.00  0.00    -0.336 N 
ATOM     44  HN  UNK N   1      23.465  14.297   7.322  1.00  0.00     0.168 HD
BRANCH  38  45
HETATM   45  N   UNK N   1      23.048  11.525  11.696  0.00  0.00    -0.383 N 
HETATM   46  H   UNK N   1      23.302  10.573  11.727  0.00  0.00     0.157 HD
HETATM   47  H   UNK N   1      22.723  11.970  12.511  0.00  0.00     0.157 HD
ENDBRANCH  38  45
ENDBRANCH   4  33
TORSDOF 14
ENDMDL
MODEL 4
REMARK VINA RESULT:      -7.7     12.908     15.332
REMARK  14 active torsions:
REMARK  status: ('A' for Active; 'I' for Inactive)
REMARK    1  A    between atoms: C_9  and  C_5 
REMARK    2  A    between atoms: C_11  and  C_5 
REMARK    3  A    between atoms: C_12  and  C_6 
REMARK    4  A    between atoms: O_37  and  C_6 
REMARK    5  A    between atoms: O_31  and  C_10 
REMARK    6  A    between atoms: C_18  and  C_11 
REMARK    7  A    between atoms: C_11  and  N_20 
REMARK    8  A    between atoms: C_14  and  O_32 
REMARK    9  A    between atoms: C_15  and  O_33 
REMARK   10  A    between atoms: N_21  and  C_16 
REMARK   11  A    between atoms: O_34  and  C_18 
REMARK   12  A    between atoms: C_19  and  N_30 
REMARK   13  A    between atoms: N_28  and  S_39 
REMARK   14  A    between atoms: S_39  and  O_37 
ROOT
HETATM    1  C   UNK N   1      20.618  18.954   2.863  0.00  0.00     0.180 C 
HETATM    2  C   UNK N   1      20.683  20.258   2.072  0.00  0.00     0.182 C 
HETATM    3  C   UNK N   1      22.100  20.726   2.369  0.00  0.00     0.198 C 
HETATM    4  C   UNK N   1      22.575  19.720   3.411  0.00  0.00     0.262 C 
HETATM    5  O   UNK N   1      21.956  18.508   3.018  0.00  0.00    -0.353 OA
ENDROOT
BRANCH   1   6
HETATM    6  C   UNK N   1      19.629  17.940   2.274  0.00  0.00     0.226 C 
BRANCH   6   7
HETATM    7  O   UNK N   1      19.927  16.615   2.686  0.00  0.00    -0.257 OA
BRANCH   7   8
HETATM    8  S   UNK N   1      20.815  15.498   1.601  0.00  0.00     0.363 S 
HETATM    9  O   UNK N   1      19.965  14.558   0.727  0.00  0.00    -0.175 OA
HETATM   10  O   UNK N   1      20.378  16.418   0.448  0.00  0.00    -0.175 OA
BRANCH   8  11
HETATM   11  N   UNK N   1      19.440  14.804   2.477  0.00  0.00    -0.243 N 
HETATM   12  C   UNK N   1      19.545  14.179   3.612  0.00  0.00     0.149 C 
ATOM     13  HN  UNK N   1      18.510  14.901   2.066  1.00  0.00     0.182 HD
BRANCH  12  14
HETATM   14  C   UNK N   1      20.877  13.940   4.279  0.00  0.00     0.154 C 
BRANCH  14  15
HETATM   15  C   UNK N   1      20.678  13.860   5.796  0.00  0.00     0.071 C 
BRANCH  15  16
HETATM   16  C   UNK N   1      20.636  15.204   6.432  0.00  0.00    -0.056 A 
HETATM   17  C   UNK N   1      20.011  15.382   7.671  0.00  0.00     0.010 A 
HETATM   18  C   UNK N   1      19.963  16.655   8.248  0.00  0.00     0.037 A 
HETATM   19  C   UNK N   1      20.534  17.746   7.585  0.00  0.00     0.065 A 
HETATM   20  C   UNK N   1      21.164  17.564   6.350  0.00  0.00     0.037 A 
HETATM   21  C   UNK N   1      21.217  16.293   5.776  0.00  0.00     0.010 A 
BRANCH  19  22
HETATM   22  O   UNK N   1      20.477  18.970   8.132  0.00  0.00    -0.361 OA
HETATM   23  H   UNK N   1      20.094  19.100   8.978  0.00  0.00     0.217 HD
ENDBRANCH  19  22
ENDBRANCH  15  16
ENDBRANCH  14  15
BRANCH  14  24
HETATM   24  N   UNK N   1      21.478  12.716   3.767  0.00  0.00    -0.419 N 
HETATM   25  H   UNK N   1      22.071  11.977   4.144  0.00  0.00     0.150 HD
HETATM   26  H   UNK N   1      21.248  12.558   2.785  0.00  0.00     0.150 HD
ENDBRANCH  14  24
ENDBRANCH  12  14
BRANCH  12  27
HETATM   27  O   UNK N   1      18.428  13.735   4.218  0.00  0.00    -0.347 OA
HETATM   28  H   UNK N   1      17.605  14.169   4.102  0.00  0.00     0.219 HD
ENDBRANCH  12  27
ENDBRANCH   8  11
ENDBRANCH   7   8
ENDBRANCH   6   7
ENDBRANCH   1   6
BRANCH   2  29
HETATM   29  O   UNK N   1      20.551  20.028   0.696  0.00  0.00    -0.390 OA
HETATM   30  H   UNK N   1      19.920  20.073  -0.038  0.00  0.00     0.210 HD
ENDBRANCH   2  29
BRANCH   3  31
HETATM   31  O   UNK N   1      22.151  22.044   2.828  0.00  0.00    -0.388 OA
HETATM   32  H   UNK N   1      21.760  22.932   2.851  0.00  0.00     0.210 HD
ENDBRANCH   3  31
BRANCH   4  33
HETATM   33  N   UNK N   1      24.034  19.621   3.573  0.00  0.00    -0.297 N 
HETATM   34  C   UNK N   1      24.932  20.512   3.074  0.00  0.00     0.188 A 
HETATM   35  N   UNK N   1      26.214  20.095   3.271  0.00  0.00    -0.346 N 
HETATM   36  C   UNK N   1      26.088  18.910   3.897  0.00  0.00     0.122 A 
ATOM     37  HN  UNK N   1      27.076  20.572   3.005  1.00  0.00     0.167 HD
HETATM   38  C   UNK N   1      27.061  18.004   4.289  0.00  0.00     0.131 A 
HETATM   39  C   UNK N   1      24.784  18.632   4.090  0.00  0.00     0.142 A 
HETATM   40  N   UNK N   1      26.655  16.842   4.880  0.00  0.00    -0.337 N 
HETATM   41  C   UNK N   1      25.322  16.579   5.076  0.00  0.00     0.183 A 
ATOM     42  HN  UNK N   1      27.351  16.159   5.181  1.00  0.00     0.168 HD
HETATM   43  N   UNK N   1      24.372  17.476   4.668  0.00  0.00    -0.336 N 
ATOM     44  HN  UNK N   1      23.379  17.280   4.796  1.00  0.00     0.168 HD
BRANCH  38  45
HETATM   45  N   UNK N   1      28.430  18.252   4.060  0.00  0.00    -0.383 N 
HETATM   46  H   UNK N   1      28.787  18.261   3.142  0.00  0.00     0.157 HD
HETATM   47  H   UNK N   1      29.032  18.418   4.821  0.00  0.00     0.157 HD
ENDBRANCH  38  45
ENDBRANCH   4  33
TORSDOF 14
ENDMDL
MODEL 5
REMARK VINA RESULT:      -7.7      4.008      6.061
REMARK  14 active torsions:
REMARK  status: ('A' for Active; 'I' for Inactive)
REMARK    1  A    between atoms: C_9  and  C_5 
REMARK    2  A    between atoms: C_11  and  C_5 
REMARK    3  A    between atoms: C_12  and  C_6 
REMARK    4  A    between atoms: O_37  and  C_6 
REMARK    5  A    between atoms: O_31  and  C_10 
REMARK    6  A    between atoms: C_18  and  C_11 
REMARK    7  A    between atoms: C_11  and  N_20 
REMARK    8  A    between atoms: C_14  and  O_32 
REMARK    9  A    between atoms: C_15  and  O_33 
REMARK   10  A    between atoms: N_21  and  C_16 
REMARK   11  A    between atoms: O_34  and  C_18 
REMARK   12  A    between atoms: C_19  and  N_30 
REMARK   13  A    between atoms: N_28  and  S_39 
REMARK   14  A    between atoms: S_39  and  O_37 
ROOT
HETATM    1  C   UNK N   1      33.628  15.437   9.212  0.00  0.00     0.180 C 
HETATM    2  C   UNK N   1      34.426  16.698   8.887  0.00  0.00     0.182 C 
HETATM    3  C   UNK N   1      33.501  17.401   7.905  0.00  0.00     0.198 C 
HETATM    4  C   UNK N   1      32.400  16.371   7.682  0.00  0.00     0.262 C 
HETATM    5  O   UNK N   1      32.267  15.740   8.944  0.00  0.00    -0.353 OA
ENDROOT
BRANCH   1   6
HETATM    6  C   UNK N   1      33.935  14.871  10.603  0.00  0.00     0.226 C 
BRANCH   6   7
HETATM    7  O   UNK N   1      35.301  14.507  10.733  0.00  0.00    -0.257 OA
BRANCH   7   8
HETATM    8  S   UNK N   1      35.771  13.027  11.626  0.00  0.00     0.363 S 
HETATM    9  O   UNK N   1      36.784  13.200  12.773  0.00  0.00    -0.175 OA
HETATM   10  O   UNK N   1      34.891  13.549  12.774  0.00  0.00    -0.175 OA
BRANCH   8  11
HETATM   11  N   UNK N   1      37.087  14.140  11.216  0.00  0.00    -0.243 N 
HETATM   12  C   UNK N   1      37.823  14.031  10.150  0.00  0.00     0.149 C 
ATOM     13  HN  UNK N   1      37.279  14.913  11.855  1.00  0.00     0.182 HD
BRANCH  12  14
HETATM   14  C   UNK N   1      37.653  12.898   9.167  0.00  0.00     0.154 C 
BRANCH  14  15
HETATM   15  C   UNK N   1      37.802  13.437   7.741  0.00  0.00     0.071 C 
BRANCH  15  16
HETATM   16  C   UNK N   1      36.494  13.559   7.043  0.00  0.00    -0.056 A 
HETATM   17  C   UNK N   1      36.290  14.562   6.089  0.00  0.00     0.010 A 
HETATM   18  C   UNK N   1      35.049  14.676   5.456  0.00  0.00     0.037 A 
HETATM   19  C   UNK N   1      34.014  13.793   5.780  0.00  0.00     0.065 A 
HETATM   20  C   UNK N   1      34.221  12.788   6.728  0.00  0.00     0.037 A 
HETATM   21  C   UNK N   1      35.461  12.670   7.358  0.00  0.00     0.010 A 
BRANCH  19  22
HETATM   22  O   UNK N   1      32.819  13.910   5.181  0.00  0.00    -0.361 OA
HETATM   23  H   UNK N   1      32.757  14.121   4.269  0.00  0.00     0.217 HD
ENDBRANCH  19  22
ENDBRANCH  15  16
ENDBRANCH  14  15
BRANCH  14  24
HETATM   24  N   UNK N   1      38.634  11.855   9.435  0.00  0.00    -0.419 N 
HETATM   25  H   UNK N   1      38.605  10.857   9.639  0.00  0.00     0.150 HD
HETATM   26  H   UNK N   1      39.589  12.214   9.414  0.00  0.00     0.150 HD
ENDBRANCH  14  24
ENDBRANCH  12  14
BRANCH  12  27
HETATM   27  O   UNK N   1      38.764  14.963   9.908  0.00  0.00    -0.347 OA
HETATM   28  H   UNK N   1      39.672  14.788  10.056  0.00  0.00     0.219 HD
ENDBRANCH  12  27
ENDBRANCH   8  11
ENDBRANCH   7   8
ENDBRANCH   6   7
ENDBRANCH   1   6
BRANCH   2  29
HETATM   29  O   UNK N   1      34.593  17.503  10.021  0.00  0.00    -0.390 OA
HETATM   30  H   UNK N   1      34.244  17.668  10.910  0.00  0.00     0.210 HD
ENDBRANCH   2  29
BRANCH   3  31
HETATM   31  O   UNK N   1      34.145  17.766   6.720  0.00  0.00    -0.388 OA
HETATM   32  H   UNK N   1      34.972  17.893   6.229  0.00  0.00     0.210 HD
ENDBRANCH   3  31
BRANCH   4  33
HETATM   33  N   UNK N   1      31.138  16.902   7.145  0.00  0.00    -0.297 N 
HETATM   34  C   UNK N   1      30.874  17.084   5.823  0.00  0.00     0.188 A 
HETATM   35  N   UNK N   1      29.677  17.708   5.633  0.00  0.00    -0.346 N 
HETATM   36  C   UNK N   1      29.210  17.921   6.876  0.00  0.00     0.122 A 
ATOM     37  HN  UNK N   1      29.235  17.958   4.748  1.00  0.00     0.167 HD
HETATM   38  C   UNK N   1      28.059  18.573   7.293  0.00  0.00     0.131 A 
HETATM   39  C   UNK N   1      30.075  17.426   7.782  0.00  0.00     0.142 A 
HETATM   40  N   UNK N   1      27.836  18.683   8.637  0.00  0.00    -0.337 N 
HETATM   41  C   UNK N   1      28.727  18.167   9.544  0.00  0.00     0.183 A 
ATOM     42  HN  UNK N   1      26.995  19.156   8.970  1.00  0.00     0.168 HD
HETATM   43  N   UNK N   1      29.865  17.540   9.117  0.00  0.00    -0.336 N 
ATOM     44  HN  UNK N   1      30.540  17.168   9.786  1.00  0.00     0.168 HD
BRANCH  38  45
HETATM   45  N   UNK N   1      27.158  19.136   6.368  0.00  0.00    -0.383 N 
HETATM   46  H   UNK N   1      26.708  18.567   5.701  0.00  0.00     0.157 HD
HETATM   47  H   UNK N   1      26.976  20.103   6.387  0.00  0.00     0.157 HD
ENDBRANCH  38  45
ENDBRANCH   4  33
TORSDOF 14
ENDMDL
MODEL 6
REMARK VINA RESULT:      -7.6     10.447     13.629
REMARK  14 active torsions:
REMARK  status: ('A' for Active; 'I' for Inactive)
REMARK    1  A    between atoms: C_9  and  C_5 
REMARK    2  A    between atoms: C_11  and  C_5 
REMARK    3  A    between atoms: C_12  and  C_6 
REMARK    4  A    between atoms: O_37  and  C_6 
REMARK    5  A    between atoms: O_31  and  C_10 
REMARK    6  A    between atoms: C_18  and  C_11 
REMARK    7  A    between atoms: C_11  and  N_20 
REMARK    8  A    between atoms: C_14  and  O_32 
REMARK    9  A    between atoms: C_15  and  O_33 
REMARK   10  A    between atoms: N_21  and  C_16 
REMARK   11  A    between atoms: O_34  and  C_18 
REMARK   12  A    between atoms: C_19  and  N_30 
REMARK   13  A    between atoms: N_28  and  S_39 
REMARK   14  A    between atoms: S_39  and  O_37 
ROOT
HETATM    1  C   UNK N   1      20.622  18.370   3.775  0.00  0.00     0.180 C 
HETATM    2  C   UNK N   1      20.457  19.404   2.663  0.00  0.00     0.182 C 
HETATM    3  C   UNK N   1      21.835  20.047   2.638  0.00  0.00     0.198 C 
HETATM    4  C   UNK N   1      22.525  19.413   3.839  0.00  0.00     0.262 C 
HETATM    5  O   UNK N   1      22.011  18.093   3.868  0.00  0.00    -0.353 OA
ENDROOT
BRANCH   1   6
HETATM    6  C   UNK N   1      19.698  17.156   3.611  0.00  0.00     0.226 C 
BRANCH   6   7
HETATM    7  O   UNK N   1      20.250  15.992   4.206  0.00  0.00    -0.257 OA
BRANCH   7   8
HETATM    8  S   UNK N   1      19.328  15.068   5.434  0.00  0.00     0.363 S 
HETATM    9  O   UNK N   1      19.106  15.752   6.795  0.00  0.00    -0.175 OA
HETATM   10  O   UNK N   1      18.159  16.022   5.141  0.00  0.00    -0.175 OA
BRANCH   8  11
HETATM   11  N   UNK N   1      20.771  15.917   6.018  0.00  0.00    -0.243 N 
HETATM   12  C   UNK N   1      21.857  15.317   6.403  0.00  0.00     0.149 C 
ATOM     13  HN  UNK N   1      20.746  16.936   6.054  1.00  0.00     0.182 HD
BRANCH  12  14
HETATM   14  C   UNK N   1      21.980  13.813   6.433  0.00  0.00     0.154 C 
BRANCH  14  15
HETATM   15  C   UNK N   1      21.287  13.273   7.687  0.00  0.00     0.071 C 
BRANCH  15  16
HETATM   16  C   UNK N   1      22.252  12.947   8.771  0.00  0.00    -0.056 A 
HETATM   17  C   UNK N   1      21.796  12.590  10.044  0.00  0.00     0.010 A 
HETATM   18  C   UNK N   1      22.716  12.305  11.058  0.00  0.00     0.037 A 
HETATM   19  C   UNK N   1      24.088  12.382  10.799  0.00  0.00     0.065 A 
HETATM   20  C   UNK N   1      24.542  12.733   9.525  0.00  0.00     0.037 A 
HETATM   21  C   UNK N   1      23.625  13.012   8.511  0.00  0.00     0.010 A 
BRANCH  19  22
HETATM   22  O   UNK N   1      24.971  12.121  11.775  0.00  0.00    -0.361 OA
HETATM   23  H   UNK N   1      25.338  11.264  11.875  0.00  0.00     0.217 HD
ENDBRANCH  19  22
ENDBRANCH  15  16
ENDBRANCH  14  15
BRANCH  14  24
HETATM   24  N   UNK N   1      21.395  13.242   5.227  0.00  0.00    -0.419 N 
HETATM   25  H   UNK N   1      21.349  13.500   4.242  0.00  0.00     0.150 HD
HETATM   26  H   UNK N   1      20.910  12.364   5.416  0.00  0.00     0.150 HD
ENDBRANCH  14  24
ENDBRANCH  12  14
BRANCH  12  27
HETATM   27  O   UNK N   1      22.914  16.062   6.781  0.00  0.00    -0.347 OA
HETATM   28  H   UNK N   1      23.185  16.104   7.676  0.00  0.00     0.219 HD
ENDBRANCH  12  27
ENDBRANCH   8  11
ENDBRANCH   7   8
ENDBRANCH   6   7
ENDBRANCH   1   6
BRANCH   2  29
HETATM   29  O   UNK N   1      20.211  18.790   1.428  0.00  0.00    -0.390 OA
HETATM   30  H   UNK N   1      20.291  18.918   0.471  0.00  0.00     0.210 HD
ENDBRANCH   2  29
BRANCH   3  31
HETATM   31  O   UNK N   1      21.784  21.441   2.718  0.00  0.00    -0.388 OA
HETATM   32  H   UNK N   1      21.382  22.237   3.099  0.00  0.00     0.210 HD
ENDBRANCH   3  31
BRANCH   4  33
HETATM   33  N   UNK N   1      23.996  19.480   3.832  0.00  0.00    -0.297 N 
HETATM   34  C   UNK N   1      24.726  20.389   3.132  0.00  0.00     0.188 A 
HETATM   35  N   UNK N   1      26.061  20.129   3.215  0.00  0.00    -0.346 N 
HETATM   36  C   UNK N   1      26.139  19.022   3.976  0.00  0.00     0.122 A 
ATOM     37  HN  UNK N   1      26.829  20.654   2.795  1.00  0.00     0.167 HD
HETATM   38  C   UNK N   1      27.247  18.272   4.343  0.00  0.00     0.131 A 
HETATM   39  C   UNK N   1      24.905  18.641   4.357  0.00  0.00     0.142 A 
HETATM   40  N   UNK N   1      27.042  17.156   5.102  0.00  0.00    -0.337 N 
HETATM   41  C   UNK N   1      25.777  16.787   5.487  0.00  0.00     0.183 A 
ATOM     42  HN  UNK N   1      27.841  16.588   5.388  1.00  0.00     0.168 HD
HETATM   43  N   UNK N   1      24.693  17.528   5.104  0.00  0.00    -0.336 N 
ATOM     44  HN  UNK N   1      23.749  17.251   5.373  1.00  0.00     0.168 HD
BRANCH  38  45
HETATM   45  N   UNK N   1      28.545  18.626   3.922  0.00  0.00    -0.383 N 
HETATM   46  H   UNK N   1      29.304  18.021   4.087  0.00  0.00     0.157 HD
HETATM   47  H   UNK N   1      28.693  19.482   3.458  0.00  0.00     0.157 HD
ENDBRANCH  38  45
ENDBRANCH   4  33
TORSDOF 14
ENDMDL
MODEL 7
REMARK VINA RESULT:      -7.6      2.760     10.190
REMARK  14 active torsions:
REMARK  status: ('A' for Active; 'I' for Inactive)
REMARK    1  A    between atoms: C_9  and  C_5 
REMARK    2  A    between atoms: C_11  and  C_5 
REMARK    3  A    between atoms: C_12  and  C_6 
REMARK    4  A    between atoms: O_37  and  C_6 
REMARK    5  A    between atoms: O_31  and  C_10 
REMARK    6  A    between atoms: C_18  and  C_11 
REMARK    7  A    between atoms: C_11  and  N_20 
REMARK    8  A    between atoms: C_14  and  O_32 
REMARK    9  A    between atoms: C_15  and  O_33 
REMARK   10  A    between atoms: N_21  and  C_16 
REMARK   11  A    between atoms: O_34  and  C_18 
REMARK   12  A    between atoms: C_19  and  N_30 
REMARK   13  A    between atoms: N_28  and  S_39 
REMARK   14  A    between atoms: S_39  and  O_37 
ROOT
HETATM    1  C   UNK N   1      36.461  12.696  11.248  0.00  0.00     0.180 C 
HETATM    2  C   UNK N   1      35.297  11.714  11.138  0.00  0.00     0.182 C 
HETATM    3  C   UNK N   1      34.971  11.462  12.603  0.00  0.00     0.198 C 
HETATM    4  C   UNK N   1      36.094  12.194  13.329  0.00  0.00     0.262 C 
HETATM    5  O   UNK N   1      36.342  13.326  12.514  0.00  0.00    -0.353 OA
ENDROOT
BRANCH   1   6
HETATM    6  C   UNK N   1      36.581  13.628  10.035  0.00  0.00     0.226 C 
BRANCH   6   7
HETATM    7  O   UNK N   1      35.406  14.402   9.849  0.00  0.00    -0.257 OA
BRANCH   7   8
HETATM    8  S   UNK N   1      35.501  16.184   9.695  0.00  0.00     0.363 S 
HETATM    9  O   UNK N   1      34.934  17.014  10.861  0.00  0.00    -0.175 OA
HETATM   10  O   UNK N   1      36.635  16.122  10.731  0.00  0.00    -0.175 OA
BRANCH   8  11
HETATM   11  N   UNK N   1      33.973  15.537  10.316  0.00  0.00    -0.243 N 
HETATM   12  C   UNK N   1      32.826  15.698   9.728  0.00  0.00     0.149 C 
ATOM     13  HN  UNK N   1      33.996  15.006  11.188  1.00  0.00     0.182 HD
BRANCH  12  14
HETATM   14  C   UNK N   1      32.676  16.505   8.462  0.00  0.00     0.154 C 
BRANCH  14  15
HETATM   15  C   UNK N   1      31.507  15.951   7.642  0.00  0.00     0.071 C 
BRANCH  15  16
HETATM   16  C   UNK N   1      31.596  16.325   6.205  0.00  0.00    -0.056 A 
HETATM   17  C   UNK N   1      30.435  16.505   5.446  0.00  0.00     0.010 A 
HETATM   18  C   UNK N   1      30.536  16.837   4.091  0.00  0.00     0.037 A 
HETATM   19  C   UNK N   1      31.794  16.985   3.498  0.00  0.00     0.065 A 
HETATM   20  C   UNK N   1      32.952  16.811   4.260  0.00  0.00     0.037 A 
HETATM   21  C   UNK N   1      32.853  16.484   5.613  0.00  0.00     0.010 A 
BRANCH  19  22
HETATM   22  O   UNK N   1      31.890  17.292   2.196  0.00  0.00    -0.361 OA
HETATM   23  H   UNK N   1      31.954  16.618   1.546  0.00  0.00     0.217 HD
ENDBRANCH  19  22
ENDBRANCH  15  16
ENDBRANCH  14  15
BRANCH  14  24
HETATM   24  N   UNK N   1      32.464  17.909   8.789  0.00  0.00    -0.419 N 
HETATM   25  H   UNK N   1      32.299  18.767   8.264  0.00  0.00     0.150 HD
HETATM   26  H   UNK N   1      32.487  18.075   9.795  0.00  0.00     0.150 HD
ENDBRANCH  14  24
ENDBRANCH  12  14
BRANCH  12  27
HETATM   27  O   UNK N   1      31.733  15.119  10.261  0.00  0.00    -0.347 OA
HETATM   28  H   UNK N   1      31.011  14.855   9.726  0.00  0.00     0.219 HD
ENDBRANCH  12  27
ENDBRANCH   8  11
ENDBRANCH   7   8
ENDBRANCH   6   7
ENDBRANCH   1   6
BRANCH   2  29
HETATM   29  O   UNK N   1      34.190  12.303  10.514  0.00  0.00    -0.390 OA
HETATM   30  H   UNK N   1      33.305  12.659  10.683  0.00  0.00     0.210 HD
ENDBRANCH   2  29
BRANCH   3  31
HETATM   31  O   UNK N   1      34.920  10.103  12.920  0.00  0.00    -0.388 OA
HETATM   32  H   UNK N   1      35.056   9.395  13.571  0.00  0.00     0.210 HD
ENDBRANCH   3  31
BRANCH   4  33
HETATM   33  N   UNK N   1      35.827  12.520  14.739  0.00  0.00    -0.297 N 
HETATM   34  C   UNK N   1      34.928  11.872  15.527  0.00  0.00     0.188 A 
HETATM   35  N   UNK N   1      34.805  12.474  16.744  0.00  0.00    -0.346 N 
HETATM   36  C   UNK N   1      35.644  13.524  16.684  0.00  0.00     0.122 A 
ATOM     37  HN  UNK N   1      34.211  12.192  17.524  1.00  0.00     0.167 HD
HETATM   38  C   UNK N   1      35.884  14.523  17.616  0.00  0.00     0.131 A 
HETATM   39  C   UNK N   1      36.266  13.545  15.490  0.00  0.00     0.142 A 
HETATM   40  N   UNK N   1      36.771  15.508  17.285  0.00  0.00    -0.337 N 
HETATM   41  C   UNK N   1      37.401  15.508  16.066  0.00  0.00     0.183 A 
ATOM     42  HN  UNK N   1      36.968  16.253  17.953  1.00  0.00     0.168 HD
HETATM   43  N   UNK N   1      37.141  14.525  15.151  0.00  0.00    -0.336 N 
ATOM     44  HN  UNK N   1      37.594  14.528  14.237  1.00  0.00     0.168 HD
BRANCH  38  45
HETATM   45  N   UNK N   1      35.214  14.547  18.855  0.00  0.00    -0.383 N 
HETATM   46  H   UNK N   1      34.360  15.027  18.951  0.00  0.00     0.157 HD
HETATM   47  H   UNK N   1      35.602  14.081  19.631  0.00  0.00     0.157 HD
ENDBRANCH  38  45
ENDBRANCH   4  33
TORSDOF 14
ENDMDL
MODEL 8
REMARK VINA RESULT:      -7.6      2.768     10.107
REMARK  14 active torsions:
REMARK  status: ('A' for Active; 'I' for Inactive)
REMARK    1  A    between atoms: C_9  and  C_5 
REMARK    2  A    between atoms: C_11  and  C_5 
REMARK    3  A    between atoms: C_12  and  C_6 
REMARK    4  A    between atoms: O_37  and  C_6 
REMARK    5  A    between atoms: O_31  and  C_10 
REMARK    6  A    between atoms: C_18  and  C_11 
REMARK    7  A    between atoms: C_11  and  N_20 
REMARK    8  A    between atoms: C_14  and  O_32 
REMARK    9  A    between atoms: C_15  and  O_33 
REMARK   10  A    between atoms: N_21  and  C_16 
REMARK   11  A    between atoms: O_34  and  C_18 
REMARK   12  A    between atoms: C_19  and  N_30 
REMARK   13  A    between atoms: N_28  and  S_39 
REMARK   14  A    between atoms: S_39  and  O_37 
ROOT
HETATM    1  C   UNK N   1      35.108  13.210  12.289  0.00  0.00     0.180 C 
HETATM    2  C   UNK N   1      36.418  13.952  12.540  0.00  0.00     0.182 C 
HETATM    3  C   UNK N   1      36.644  13.682  14.020  0.00  0.00     0.198 C 
HETATM    4  C   UNK N   1      35.357  12.976  14.433  0.00  0.00     0.262 C 
HETATM    5  O   UNK N   1      35.009  12.212  13.293  0.00  0.00    -0.353 OA
ENDROOT
BRANCH   1   6
HETATM    6  C   UNK N   1      34.954  12.731  10.840  0.00  0.00     0.226 C 
BRANCH   6   7
HETATM    7  O   UNK N   1      34.250  13.674  10.046  0.00  0.00    -0.257 OA
BRANCH   7   8
HETATM    8  S   UNK N   1      34.666  13.907   8.319  0.00  0.00     0.363 S 
HETATM    9  O   UNK N   1      36.008  14.595   8.015  0.00  0.00    -0.175 OA
HETATM   10  O   UNK N   1      35.677  12.763   8.503  0.00  0.00    -0.175 OA
BRANCH   8  11
HETATM   11  N   UNK N   1      34.989  15.281   9.391  0.00  0.00    -0.243 N 
HETATM   12  C   UNK N   1      34.461  16.458   9.238  0.00  0.00     0.149 C 
ATOM     13  HN  UNK N   1      35.628  15.139  10.174  1.00  0.00     0.182 HD
BRANCH  12  14
HETATM   14  C   UNK N   1      33.542  16.785   8.086  0.00  0.00     0.154 C 
BRANCH  14  15
HETATM   15  C   UNK N   1      32.733  18.042   8.424  0.00  0.00     0.071 C 
BRANCH  15  16
HETATM   16  C   UNK N   1      31.270  17.836   8.251  0.00  0.00    -0.056 A 
HETATM   17  C   UNK N   1      30.363  18.405   9.150  0.00  0.00     0.010 A 
HETATM   18  C   UNK N   1      28.991  18.186   8.986  0.00  0.00     0.037 A 
HETATM   19  C   UNK N   1      28.530  17.397   7.928  0.00  0.00     0.065 A 
HETATM   20  C   UNK N   1      29.438  16.834   7.027  0.00  0.00     0.037 A 
HETATM   21  C   UNK N   1      30.807  17.056   7.187  0.00  0.00     0.010 A 
BRANCH  19  22
HETATM   22  O   UNK N   1      27.215  17.177   7.777  0.00  0.00    -0.361 OA
HETATM   23  H   UNK N   1      26.853  16.322   7.903  0.00  0.00     0.217 HD
ENDBRANCH  19  22
ENDBRANCH  15  16
ENDBRANCH  14  15
BRANCH  14  24
HETATM   24  N   UNK N   1      34.319  16.977   6.869  0.00  0.00    -0.419 N 
HETATM   25  H   UNK N   1      34.152  17.388   5.951  0.00  0.00     0.150 HD
HETATM   26  H   UNK N   1      35.266  16.608   6.957  0.00  0.00     0.150 HD
ENDBRANCH  14  24
ENDBRANCH  12  14
BRANCH  12  27
HETATM   27  O   UNK N   1      34.735  17.418  10.141  0.00  0.00    -0.347 OA
HETATM   28  H   UNK N   1      34.410  17.370  11.018  0.00  0.00     0.219 HD
ENDBRANCH  12  27
ENDBRANCH   8  11
ENDBRANCH   7   8
ENDBRANCH   6   7
ENDBRANCH   1   6
BRANCH   2  29
HETATM   29  O   UNK N   1      37.470  13.394  11.802  0.00  0.00    -0.390 OA
HETATM   30  H   UNK N   1      38.022  13.530  11.017  0.00  0.00     0.210 HD
ENDBRANCH   2  29
BRANCH   3  31
HETATM   31  O   UNK N   1      36.880  14.846  14.754  0.00  0.00    -0.388 OA
HETATM   32  H   UNK N   1      36.887  15.302  15.610  0.00  0.00     0.210 HD
ENDBRANCH   3  31
BRANCH   4  33
HETATM   33  N   UNK N   1      35.438  12.192  15.676  0.00  0.00    -0.297 N 
HETATM   34  C   UNK N   1      35.425  10.834  15.737  0.00  0.00     0.188 A 
HETATM   35  N   UNK N   1      35.384  10.391  17.025  0.00  0.00    -0.346 N 
HETATM   36  C   UNK N   1      35.359  11.515  17.765  0.00  0.00     0.122 A 
ATOM     37  HN  UNK N   1      35.375   9.426  17.356  1.00  0.00     0.167 HD
HETATM   38  C   UNK N   1      35.255  11.672  19.138  0.00  0.00     0.131 A 
HETATM   39  C   UNK N   1      35.405  12.593  16.959  0.00  0.00     0.142 A 
HETATM   40  N   UNK N   1      35.212  12.944  19.636  0.00  0.00    -0.337 N 
HETATM   41  C   UNK N   1      35.268  14.031  18.800  0.00  0.00     0.183 A 
ATOM     42  HN  UNK N   1      35.139  13.088  20.644  1.00  0.00     0.168 HD
HETATM   43  N   UNK N   1      35.354  13.859  17.446  0.00  0.00    -0.336 N 
ATOM     44  HN  UNK N   1      35.380  14.662  16.817  1.00  0.00     0.168 HD
BRANCH  38  45
HETATM   45  N   UNK N   1      35.162  10.561  20.000  0.00  0.00    -0.383 N 
HETATM   46  H   UNK N   1      35.669  10.541  20.844  0.00  0.00     0.157 HD
HETATM   47  H   UNK N   1      34.587   9.800  19.757  0.00  0.00     0.157 HD
ENDBRANCH  38  45
ENDBRANCH   4  33
TORSDOF 14
ENDMDL
MODEL 9
REMARK VINA RESULT:      -7.4      3.481      9.547
REMARK  14 active torsions:
REMARK  status: ('A' for Active; 'I' for Inactive)
REMARK    1  A    between atoms: C_9  and  C_5 
REMARK    2  A    between atoms: C_11  and  C_5 
REMARK    3  A    between atoms: C_12  and  C_6 
REMARK    4  A    between atoms: O_37  and  C_6 
REMARK    5  A    between atoms: O_31  and  C_10 
REMARK    6  A    between atoms: C_18  and  C_11 
REMARK    7  A    between atoms: C_11  and  N_20 
REMARK    8  A    between atoms: C_14  and  O_32 
REMARK    9  A    between atoms: C_15  and  O_33 
REMARK   10  A    between atoms: N_21  and  C_16 
REMARK   11  A    between atoms: O_34  and  C_18 
REMARK   12  A    between atoms: C_19  and  N_30 
REMARK   13  A    between atoms: N_28  and  S_39 
REMARK   14  A    between atoms: S_39  and  O_37 
ROOT
HETATM    1  C   UNK N   1      34.616  15.161  11.193  0.00  0.00     0.180 C 
HETATM    2  C   UNK N   1      35.922  15.662  11.806  0.00  0.00     0.182 C 
HETATM    3  C   UNK N   1      36.397  14.431  12.563  0.00  0.00     0.198 C 
HETATM    4  C   UNK N   1      35.222  13.471  12.415  0.00  0.00     0.262 C 
HETATM    5  O   UNK N   1      34.720  13.747  11.120  0.00  0.00    -0.353 OA
ENDROOT
BRANCH   1   6
HETATM    6  C   UNK N   1      34.245  15.882   9.891  0.00  0.00     0.226 C 
BRANCH   6   7
HETATM    7  O   UNK N   1      35.099  15.508   8.821  0.00  0.00    -0.257 OA
BRANCH   7   8
HETATM    8  S   UNK N   1      34.603  14.241   7.656  0.00  0.00     0.363 S 
HETATM    9  O   UNK N   1      35.332  14.220   6.300  0.00  0.00    -0.175 OA
HETATM   10  O   UNK N   1      35.925  13.536   7.999  0.00  0.00    -0.175 OA
BRANCH   8  11
HETATM   11  N   UNK N   1      34.849  15.863   6.985  0.00  0.00    -0.243 N 
HETATM   12  C   UNK N   1      33.923  16.546   6.383  0.00  0.00     0.149 C 
ATOM     13  HN  UNK N   1      35.774  16.285   7.077  1.00  0.00     0.182 HD
BRANCH  12  14
HETATM   14  C   UNK N   1      32.536  15.995   6.153  0.00  0.00     0.154 C 
BRANCH  14  15
HETATM   15  C   UNK N   1      31.599  17.135   5.744  0.00  0.00     0.071 C 
BRANCH  15  16
HETATM   16  C   UNK N   1      30.519  17.364   6.740  0.00  0.00    -0.056 A 
HETATM   17  C   UNK N   1      30.818  17.444   8.104  0.00  0.00     0.010 A 
HETATM   18  C   UNK N   1      29.789  17.639   9.031  0.00  0.00     0.037 A 
HETATM   19  C   UNK N   1      28.465  17.750   8.594  0.00  0.00     0.065 A 
HETATM   20  C   UNK N   1      28.169  17.677   7.230  0.00  0.00     0.037 A 
HETATM   21  C   UNK N   1      29.196  17.486   6.304  0.00  0.00     0.010 A 
BRANCH  19  22
HETATM   22  O   UNK N   1      27.477  17.926   9.484  0.00  0.00    -0.361 OA
HETATM   23  H   UNK N   1      27.153  17.207   9.991  0.00  0.00     0.217 HD
ENDBRANCH  19  22
ENDBRANCH  15  16
ENDBRANCH  14  15
BRANCH  14  24
HETATM   24  N   UNK N   1      32.577  14.961   5.128  0.00  0.00    -0.419 N 
HETATM   25  H   UNK N   1      32.144  14.815   4.216  0.00  0.00     0.150 HD
HETATM   26  H   UNK N   1      33.192  14.189   5.387  0.00  0.00     0.150 HD
ENDBRANCH  14  24
ENDBRANCH  12  14
BRANCH  12  27
HETATM   27  O   UNK N   1      34.204  17.792   5.956  0.00  0.00    -0.347 OA
HETATM   28  H   UNK N   1      34.359  18.491   6.560  0.00  0.00     0.219 HD
ENDBRANCH  12  27
ENDBRANCH   8  11
ENDBRANCH   7   8
ENDBRANCH   6   7
ENDBRANCH   1   6
BRANCH   2  29
HETATM   29  O   UNK N   1      36.859  15.985  10.815  0.00  0.00    -0.390 OA
HETATM   30  H   UNK N   1      37.767  16.298  10.681  0.00  0.00     0.210 HD
ENDBRANCH   2  29
BRANCH   3  31
HETATM   31  O   UNK N   1      36.708  14.702  13.897  0.00  0.00    -0.388 OA
HETATM   32  H   UNK N   1      36.703  15.324  14.642  0.00  0.00     0.210 HD
ENDBRANCH   3  31
BRANCH   4  33
HETATM   33  N   UNK N   1      35.534  12.051  12.644  0.00  0.00    -0.297 N 
HETATM   34  C   UNK N   1      36.645  11.595  13.282  0.00  0.00     0.188 A 
HETATM   35  N   UNK N   1      36.728  10.235  13.232  0.00  0.00    -0.346 N 
HETATM   36  C   UNK N   1      35.642   9.860  12.533  0.00  0.00     0.122 A 
ATOM     37  HN  UNK N   1      37.450   9.637  13.634  1.00  0.00     0.167 HD
HETATM   38  C   UNK N   1      35.243   8.596  12.123  0.00  0.00     0.131 A 
HETATM   39  C   UNK N   1      34.920  10.944  12.192  0.00  0.00     0.142 A 
HETATM   40  N   UNK N   1      34.101   8.495  11.380  0.00  0.00    -0.337 N 
HETATM   41  C   UNK N   1      33.374   9.611  11.049  0.00  0.00     0.183 A 
ATOM     42  HN  UNK N   1      33.783   7.577  11.068  1.00  0.00     0.168 HD
HETATM   43  N   UNK N   1      33.789  10.852  11.448  0.00  0.00    -0.336 N 
ATOM     44  HN  UNK N   1      33.262  11.687  11.192  1.00  0.00     0.168 HD
BRANCH  38  45
HETATM   45  N   UNK N   1      36.004   7.451  12.430  0.00  0.00    -0.383 N 
HETATM   46  H   UNK N   1      35.558   6.606  12.669  0.00  0.00     0.157 HD
HETATM   47  H   UNK N   1      36.987   7.494  12.405  0.00  0.00     0.157 HD
ENDBRANCH  38  45
ENDBRANCH   4  33
TORSDOF 14
ENDMDL
