REMARK  5 active torsions:
REMARK  status: ('A' for Active; 'I' for Inactive)
REMARK    1  A    between atoms: C_2  and  N_1 
REMARK    2  A    between atoms: C_2  and  C_3 
REMARK    3  A    between atoms: C_2  and  C_15 
REMARK    4  A    between atoms: C_3  and  N_4 
REMARK    5  A    between atoms: C_15  and  O_16 
ROOT
HETATM    1  N   UNK N   1       3.567   1.284  -0.509  0.00  0.00    -0.300 N 
HETATM    2  C   UNK N   1       4.813   0.763  -0.198  0.00  0.00     0.329 A 
HETATM    3  O   UNK N   1       5.805   1.468  -0.225  0.00  0.00    -0.246 OA
HETATM    4  N   UNK N   1       4.932  -0.566   0.148  0.00  0.00    -0.275 N 
HETATM    5  C   UNK N   1       3.830  -1.381   0.187  0.00  0.00     0.257 A 
HETATM    6  O   UNK N   1       3.944  -2.553   0.501  0.00  0.00    -0.267 OA
HETATM    7  C   UNK N   1       2.587  -0.849  -0.138  0.00  0.00     0.033 A 
HETATM    8  C   UNK N   1       2.481   0.460  -0.483  0.00  0.00     0.028 A 
HETATM    9  C   UNK N   1       1.092   0.852  -0.811  0.00  0.00     0.058 A 
HETATM   10  C   UNK N   1       0.298  -0.444  -0.565  0.00  0.00     0.011 A 
HETATM   11  C   UNK N   1       1.289  -1.552  -0.156  0.00  0.00     0.046 A 
HETATM   12  H   UNK N   1       5.818  -0.934   0.369  0.00  0.00     0.173 HD
ENDROOT
BRANCH   1  13
HETATM   13  C   UNK N   1       3.400   2.695  -0.875  0.00  0.00     0.169 C 
BRANCH  13  14
HETATM   14  C   UNK N   1       2.990   3.560   0.325  0.00  0.00     0.192 C 
BRANCH  14  15
HETATM   15  N   UNK N   1       1.931   2.939   1.107  0.00  0.00    -0.416 N 
HETATM   16  H   UNK N   1       1.183   3.364   1.655  0.00  0.00     0.150 HD
HETATM   17  H   UNK N   1       1.938   1.919   1.107  0.00  0.00     0.150 HD
ENDBRANCH  14  15
BRANCH  14  18
HETATM   18  C   UNK N   1       2.516   4.896  -0.147  0.00  0.00     0.164 C 
HETATM   19  O   UNK N   1       3.121   5.904   0.177  0.00  0.00    -0.648 OA
BRANCH  18  20
HETATM   20  O   UNK N   1       1.406   4.995  -0.907  0.00  0.00    -0.775 OA
HETATM   21  H   UNK N   1       1.080   5.697  -1.435  0.00  0.00     0.167 HD
ENDBRANCH  18  20
ENDBRANCH  14  18
ENDBRANCH  13  14
ENDBRANCH   1  13
TORSDOF 5
