REMARK  2 active torsions:
REMARK  status: ('A' for Active; 'I' for Inactive)
REMARK       I    between atoms: N_1  and  C_2 
REMARK    1  A    between atoms: C_9  and  C_10 
REMARK    2  A    between atoms: C_10  and  O_11 
ROOT
HETATM    1  N   UNK N   1      -1.524   0.653  -0.000  0.00  0.00    -0.234 N 
HETATM    2  C   UNK N   1      -0.326  -0.086  -0.000  0.00  0.00     0.680 A 
HETATM    3  N   UNK N   1       0.873   0.562  -0.000  0.00  0.00    -0.174 N 
ATOM      4  HN  UNK N   1       0.896   1.581  -0.000  1.00  0.00     0.186 HD
HETATM    5  C   UNK N   1       2.039  -0.138  -0.000  0.00  0.00     0.153 A 
HETATM    6  N   UNK N   1       3.235   0.508  -0.000  0.00  0.00    -0.348 N 
ATOM      7  HN  UNK N   1       3.259   1.528  -0.000  1.00  0.00     0.167 HD
HETATM    8  C   UNK N   1       4.404  -0.193   0.000  0.00  0.00     0.117 A 
HETATM    9  C   UNK N   1       4.374  -1.599   0.000  0.00  0.00     0.049 A 
HETATM   10  N   UNK N   1       3.177  -2.237   0.000  0.00  0.00    -0.349 N 
ATOM     11  HN  UNK N   1       3.152  -3.257   0.000  1.00  0.00     0.166 HD
HETATM   12  C   UNK N   1       2.012  -1.540   0.000  0.00  0.00     0.147 A 
HETATM   13  C   UNK N   1       0.779  -2.188   0.000  0.00  0.00     0.290 A 
HETATM   14  O   UNK N   1       0.719  -3.405   0.000  0.00  0.00    -0.265 OA
HETATM   15  N   UNK N   1      -0.372  -1.446  -0.000  0.00  0.00    -0.154 N 
HETATM   16  H   UNK N   1      -1.496   1.638  -0.000  0.00  0.00     0.174 HD
HETATM   17  H   UNK N   1      -2.391   0.186  -0.000  0.00  0.00     0.174 HD
HETATM   18  H   UNK N   1      -1.244  -1.902  -0.000  0.00  0.00     0.187 HD
ENDROOT
BRANCH   9  19
HETATM   19  C   UNK N   1       5.625  -2.421   0.000  0.00  0.00     0.222 C 
BRANCH  19  20
HETATM   20  O   UNK N   1       6.773  -1.628  -0.000  0.00  0.00    -0.395 OA
HETATM   21  H   UNK N   1       7.650  -2.044  -0.000  0.00  0.00     0.209 HD
ENDBRANCH  19  20
ENDBRANCH   9  19
TORSDOF 2
