MODEL 1
REMARK VINA RESULT:      -5.2      0.000      0.000
REMARK  1 active torsions:
REMARK  status: ('A' for Active; 'I' for Inactive)
REMARK    1  A    between atoms: C_9  and  C_8 
ROOT
HETATM    1  C   UNK N   1      36.793  14.420  15.042  0.00  0.00     0.119 A 
HETATM    2  C   UNK N   1      35.686  13.851  13.286  0.00  0.00     0.180 A 
HETATM    3  C   UNK N   1      35.890  13.435  15.370  0.00  0.00     0.059 A 
HETATM    4  N   UNK N   1      36.659  14.677  13.729  0.00  0.00    -0.360 N 
ATOM      5  HN  UNK N   1      37.185  15.356  13.180  1.00  0.00     0.166 HD
HETATM    6  N   UNK N   1      35.198  13.079  14.275  0.00  0.00    -0.351 N 
HETATM    7  H   UNK N   1      34.488  12.401  14.209  0.00  0.00     0.166 HD
ENDROOT
BRANCH   3   8
HETATM    8  C   UNK N   1      35.683  12.839  16.694  0.00  0.00    -0.008 A 
HETATM    9  C   UNK N   1      35.848  11.458  16.863  0.00  0.00     0.014 A 
HETATM   10  C   UNK N   1      35.655  10.874  18.115  0.00  0.00     0.001 A 
HETATM   11  C   UNK N   1      35.295  11.667  19.207  0.00  0.00     0.000 A 
HETATM   12  C   UNK N   1      35.128  13.045  19.046  0.00  0.00     0.001 A 
HETATM   13  C   UNK N   1      35.321  13.633  17.793  0.00  0.00     0.014 A 
ENDBRANCH   3   8
TORSDOF 1
ENDMDL
MODEL 2
REMARK VINA RESULT:      -4.9      0.809      1.197
REMARK  1 active torsions:
REMARK  status: ('A' for Active; 'I' for Inactive)
REMARK    1  A    between atoms: C_9  and  C_8 
ROOT
HETATM    1  C   UNK N   1      34.960  12.621  14.094  0.00  0.00     0.119 A 
HETATM    2  C   UNK N   1      36.402  14.049  13.376  0.00  0.00     0.180 A 
HETATM    3  C   UNK N   1      35.715  13.078  15.150  0.00  0.00     0.059 A 
HETATM    4  N   UNK N   1      35.397  13.236  12.982  0.00  0.00    -0.360 N 
ATOM      5  HN  UNK N   1      35.043  13.114  12.033  1.00  0.00     0.166 HD
HETATM    6  N   UNK N   1      36.615  13.969  14.702  0.00  0.00    -0.351 N 
HETATM    7  H   UNK N   1      37.286  14.459  15.230  0.00  0.00     0.166 HD
ENDROOT
BRANCH   3   8
HETATM    8  C   UNK N   1      35.590  12.682  16.556  0.00  0.00    -0.008 A 
HETATM    9  C   UNK N   1      35.792  11.343  16.917  0.00  0.00     0.014 A 
HETATM   10  C   UNK N   1      35.677  10.948  18.249  0.00  0.00     0.001 A 
HETATM   11  C   UNK N   1      35.360  11.889  19.231  0.00  0.00     0.000 A 
HETATM   12  C   UNK N   1      35.157  13.227  18.880  0.00  0.00     0.001 A 
HETATM   13  C   UNK N   1      35.271  13.624  17.545  0.00  0.00     0.014 A 
ENDBRANCH   3   8
TORSDOF 1
ENDMDL
MODEL 3
REMARK VINA RESULT:      -4.9     11.513     14.190
REMARK  1 active torsions:
REMARK  status: ('A' for Active; 'I' for Inactive)
REMARK    1  A    between atoms: C_9  and  C_8 
ROOT
HETATM    1  C   UNK N   1      29.645  17.861   7.850  0.00  0.00     0.119 A 
HETATM    2  C   UNK N   1      28.620  17.646   9.731  0.00  0.00     0.180 A 
HETATM    3  C   UNK N   1      28.434  18.512   7.788  0.00  0.00     0.059 A 
HETATM    4  N   UNK N   1      29.756  17.319   9.076  0.00  0.00    -0.360 N 
ATOM      5  HN  UNK N   1      30.537  16.773   9.437  1.00  0.00     0.166 HD
HETATM    6  N   UNK N   1      27.794  18.378   8.962  0.00  0.00    -0.351 N 
HETATM    7  H   UNK N   1      26.911  18.737   9.206  0.00  0.00     0.166 HD
ENDROOT
BRANCH   3   8
HETATM    8  C   UNK N   1      27.890  19.247   6.642  0.00  0.00    -0.008 A 
HETATM    9  C   UNK N   1      28.073  18.742   5.347  0.00  0.00     0.014 A 
HETATM   10  C   UNK N   1      27.562  19.427   4.246  0.00  0.00     0.001 A 
HETATM   11  C   UNK N   1      26.864  20.623   4.430  0.00  0.00     0.000 A 
HETATM   12  C   UNK N   1      26.677  21.133   5.718  0.00  0.00     0.001 A 
HETATM   13  C   UNK N   1      27.188  20.448   6.823  0.00  0.00     0.014 A 
ENDBRANCH   3   8
TORSDOF 1
ENDMDL
MODEL 4
REMARK VINA RESULT:      -4.7     25.848     26.897
REMARK  1 active torsions:
REMARK  status: ('A' for Active; 'I' for Inactive)
REMARK    1  A    between atoms: C_9  and  C_8 
ROOT
HETATM    1  C   UNK N   1      27.344  23.593  -6.482  0.00  0.00     0.119 A 
HETATM    2  C   UNK N   1      25.732  22.271  -7.020  0.00  0.00     0.180 A 
HETATM    3  C   UNK N   1      26.157  24.107  -6.014  0.00  0.00     0.059 A 
HETATM    4  N   UNK N   1      27.069  22.438  -7.114  0.00  0.00    -0.360 N 
ATOM      5  HN  UNK N   1      27.735  21.815  -7.571  1.00  0.00     0.166 HD
HETATM    6  N   UNK N   1      25.150  23.283  -6.350  0.00  0.00    -0.351 N 
HETATM    7  H   UNK N   1      24.193  23.395  -6.148  0.00  0.00     0.166 HD
ENDROOT
BRANCH   3   8
HETATM    8  C   UNK N   1      25.974  25.353  -5.264  0.00  0.00    -0.008 A 
HETATM    9  C   UNK N   1      25.245  26.404  -5.836  0.00  0.00     0.014 A 
HETATM   10  C   UNK N   1      25.061  27.596  -5.137  0.00  0.00     0.001 A 
HETATM   11  C   UNK N   1      25.605  27.747  -3.860  0.00  0.00     0.000 A 
HETATM   12  C   UNK N   1      26.334  26.704  -3.281  0.00  0.00     0.001 A 
HETATM   13  C   UNK N   1      26.519  25.508  -3.980  0.00  0.00     0.014 A 
ENDBRANCH   3   8
TORSDOF 1
ENDMDL
MODEL 5
REMARK VINA RESULT:      -4.7     10.347     11.549
REMARK  1 active torsions:
REMARK  status: ('A' for Active; 'I' for Inactive)
REMARK    1  A    between atoms: C_9  and  C_8 
ROOT
HETATM    1  C   UNK N   1      28.804  17.552   7.671  0.00  0.00     0.119 A 
HETATM    2  C   UNK N   1      28.629  17.461   9.815  0.00  0.00     0.180 A 
HETATM    3  C   UNK N   1      30.060  17.492   8.229  0.00  0.00     0.059 A 
HETATM    4  N   UNK N   1      27.909  17.533   8.674  0.00  0.00    -0.360 N 
ATOM      5  HN  UNK N   1      26.893  17.565   8.591  1.00  0.00     0.166 HD
HETATM    6  N   UNK N   1      29.952  17.435   9.567  0.00  0.00    -0.351 N 
HETATM    7  H   UNK N   1      30.683  17.385  10.225  0.00  0.00     0.166 HD
ENDROOT
BRANCH   3   8
HETATM    8  C   UNK N   1      31.340  17.488   7.514  0.00  0.00    -0.008 A 
HETATM    9  C   UNK N   1      31.379  17.093   6.170  0.00  0.00     0.014 A 
HETATM   10  C   UNK N   1      32.588  17.083   5.474  0.00  0.00     0.001 A 
HETATM   11  C   UNK N   1      33.767  17.468   6.117  0.00  0.00     0.000 A 
HETATM   12  C   UNK N   1      33.736  17.863   7.458  0.00  0.00     0.001 A 
HETATM   13  C   UNK N   1      32.526  17.874   8.157  0.00  0.00     0.014 A 
ENDBRANCH   3   8
TORSDOF 1
ENDMDL
MODEL 6
REMARK VINA RESULT:      -4.6     25.813     27.392
REMARK  1 active torsions:
REMARK  status: ('A' for Active; 'I' for Inactive)
REMARK    1  A    between atoms: C_9  and  C_8 
ROOT
HETATM    1  C   UNK N   1      27.358  29.581  -5.147  0.00  0.00     0.119 A 
HETATM    2  C   UNK N   1      26.492  30.707  -3.529  0.00  0.00     0.180 A 
HETATM    3  C   UNK N   1      26.537  28.761  -4.409  0.00  0.00     0.059 A 
HETATM    4  N   UNK N   1      27.325  30.804  -4.588  0.00  0.00    -0.360 N 
ATOM      5  HN  UNK N   1      27.827  31.635  -4.900  1.00  0.00     0.166 HD
HETATM    6  N   UNK N   1      25.996  29.462  -3.398  0.00  0.00    -0.351 N 
HETATM    7  H   UNK N   1      25.371  29.137  -2.710  0.00  0.00     0.166 HD
ENDROOT
BRANCH   3   8
HETATM    8  C   UNK N   1      26.266  27.340  -4.651  0.00  0.00    -0.008 A 
HETATM    9  C   UNK N   1      26.649  26.391  -3.694  0.00  0.00     0.014 A 
HETATM   10  C   UNK N   1      26.399  25.036  -3.908  0.00  0.00     0.001 A 
HETATM   11  C   UNK N   1      25.765  24.620  -5.080  0.00  0.00     0.000 A 
HETATM   12  C   UNK N   1      25.379  25.560  -6.040  0.00  0.00     0.001 A 
HETATM   13  C   UNK N   1      25.629  26.919  -5.828  0.00  0.00     0.014 A 
ENDBRANCH   3   8
TORSDOF 1
ENDMDL
MODEL 7
REMARK VINA RESULT:      -4.5     26.365     27.830
REMARK  1 active torsions:
REMARK  status: ('A' for Active; 'I' for Inactive)
REMARK    1  A    between atoms: C_9  and  C_8 
ROOT
HETATM    1  C   UNK N   1      25.608  26.045  -6.556  0.00  0.00     0.119 A 
HETATM    2  C   UNK N   1      25.659  24.475  -5.083  0.00  0.00     0.180 A 
HETATM    3  C   UNK N   1      26.103  26.544  -5.374  0.00  0.00     0.059 A 
HETATM    4  N   UNK N   1      25.331  24.743  -6.366  0.00  0.00    -0.360 N 
ATOM      5  HN  UNK N   1      24.950  24.090  -7.051  1.00  0.00     0.166 HD
HETATM    6  N   UNK N   1      26.135  25.565  -4.453  0.00  0.00    -0.351 N 
HETATM    7  H   UNK N   1      26.441  25.631  -3.520  0.00  0.00     0.166 HD
ENDROOT
BRANCH   3   8
HETATM    8  C   UNK N   1      26.539  27.920  -5.115  0.00  0.00    -0.008 A 
HETATM    9  C   UNK N   1      25.999  28.623  -4.029  0.00  0.00     0.014 A 
HETATM   10  C   UNK N   1      26.401  29.932  -3.768  0.00  0.00     0.001 A 
HETATM   11  C   UNK N   1      27.347  30.549  -4.591  0.00  0.00     0.000 A 
HETATM   12  C   UNK N   1      27.890  29.855  -5.676  0.00  0.00     0.001 A 
HETATM   13  C   UNK N   1      27.488  28.543  -5.939  0.00  0.00     0.014 A 
ENDBRANCH   3   8
TORSDOF 1
ENDMDL
MODEL 8
REMARK VINA RESULT:      -4.5      1.670      2.193
REMARK  1 active torsions:
REMARK  status: ('A' for Active; 'I' for Inactive)
REMARK    1  A    between atoms: C_9  and  C_8 
ROOT
HETATM    1  C   UNK N   1      36.387  13.926  12.835  0.00  0.00     0.119 A 
HETATM    2  C   UNK N   1      37.756  12.746  11.666  0.00  0.00     0.180 A 
HETATM    3  C   UNK N   1      36.750  12.808  13.549  0.00  0.00     0.059 A 
HETATM    4  N   UNK N   1      37.023  13.881  11.651  0.00  0.00    -0.360 N 
ATOM      5  HN  UNK N   1      36.965  14.563  10.896  1.00  0.00     0.166 HD
HETATM    6  N   UNK N   1      37.605  12.070  12.820  0.00  0.00    -0.351 N 
HETATM    7  H   UNK N   1      38.029  11.219  13.075  0.00  0.00     0.166 HD
ENDROOT
BRANCH   3   8
HETATM    8  C   UNK N   1      36.300  12.441  14.895  0.00  0.00    -0.008 A 
HETATM    9  C   UNK N   1      36.636  11.185  15.417  0.00  0.00     0.014 A 
HETATM   10  C   UNK N   1      36.217  10.818  16.696  0.00  0.00     0.001 A 
HETATM   11  C   UNK N   1      35.458  11.706  17.462  0.00  0.00     0.000 A 
HETATM   12  C   UNK N   1      35.118  12.961  16.949  0.00  0.00     0.001 A 
HETATM   13  C   UNK N   1      35.538  13.330  15.668  0.00  0.00     0.014 A 
ENDBRANCH   3   8
TORSDOF 1
ENDMDL
MODEL 9
REMARK VINA RESULT:      -4.5     27.761     28.523
REMARK  1 active torsions:
REMARK  status: ('A' for Active; 'I' for Inactive)
REMARK    1  A    between atoms: C_9  and  C_8 
ROOT
HETATM    1  C   UNK N   1      25.992  25.226  -8.854  0.00  0.00     0.119 A 
HETATM    2  C   UNK N   1      25.326  23.303  -8.150  0.00  0.00     0.180 A 
HETATM    3  C   UNK N   1      25.812  25.276  -7.491  0.00  0.00     0.059 A 
HETATM    4  N   UNK N   1      25.684  23.982  -9.262  0.00  0.00    -0.360 N 
ATOM      5  HN  UNK N   1      25.715  23.624 -10.216  1.00  0.00     0.166 HD
HETATM    6  N   UNK N   1      25.396  24.076  -7.050  0.00  0.00    -0.351 N 
HETATM    7  H   UNK N   1      25.188  23.818  -6.124  0.00  0.00     0.166 HD
ENDROOT
BRANCH   3   8
HETATM    8  C   UNK N   1      26.028  26.434  -6.618  0.00  0.00    -0.008 A 
HETATM    9  C   UNK N   1      25.200  26.623  -5.504  0.00  0.00     0.014 A 
HETATM   10  C   UNK N   1      25.391  27.719  -4.663  0.00  0.00     0.001 A 
HETATM   11  C   UNK N   1      26.412  28.634  -4.930  0.00  0.00     0.000 A 
HETATM   12  C   UNK N   1      27.242  28.453  -6.040  0.00  0.00     0.001 A 
HETATM   13  C   UNK N   1      27.052  27.355  -6.884  0.00  0.00     0.014 A 
ENDBRANCH   3   8
TORSDOF 1
ENDMDL
