REMARK  13 active torsions:
REMARK  status: ('A' for Active; 'I' for Inactive)
REMARK    1  A    between atoms: C_18  and  C_13 
REMARK    2  A    between atoms: N_31  and  C_13 
REMARK    3  A    between atoms: C_23  and  C_14 
REMARK    4  A    between atoms: O_41  and  C_14 
REMARK    5  A    between atoms: C_29  and  C_19 
REMARK    6  A    between atoms: O_44  and  C_20 
REMARK    7  A    between atoms: O_45  and  C_21 
REMARK    8  A    between atoms: C_24  and  N_38 
REMARK    9  A    between atoms: C_26  and  O_42 
REMARK   10  A    between atoms: N_31  and  C_27 
REMARK   11  A    between atoms: N_38  and  C_29 
REMARK   12  A    between atoms: C_29  and  O_43 
REMARK   13  A    between atoms: C_30  and  N_40 
ROOT
HETATM    1  C   UNK N   1      -1.693   0.886   0.148  0.00  0.00     0.178 C 
HETATM    2  C   UNK N   1       0.531   1.063  -0.594  0.00  0.00     0.164 C 
HETATM    3  C   UNK N   1      -0.376   0.060   0.071  0.00  0.00     0.176 C 
HETATM    4  C   UNK N   1       0.062   2.263   0.207  0.00  0.00     0.256 C 
HETATM    5  O   UNK N   1      -1.339   2.261   0.159  0.00  0.00    -0.354 OA
ENDROOT
BRANCH   4   6
HETATM    6  N   UNK N   1       0.664   3.498  -0.271  0.00  0.00    -0.298 N 
HETATM    7  C   UNK N   1       0.153   4.472  -1.065  0.00  0.00     0.188 A 
HETATM    8  N   UNK N   1       1.022   5.519  -1.174  0.00  0.00    -0.346 N 
HETATM    9  C   UNK N   1       2.070   5.163  -0.400  0.00  0.00     0.122 A 
ATOM     10  HN  UNK N   1       0.906   6.375  -1.716  1.00  0.00     0.167 HD
HETATM   11  C   UNK N   1       3.196   5.877  -0.038  0.00  0.00     0.133 A 
HETATM   12  C   UNK N   1       1.851   3.956   0.128  0.00  0.00     0.142 A 
HETATM   13  N   UNK N   1       4.068   5.307   0.849  0.00  0.00    -0.337 N 
HETATM   14  C   UNK N   1       3.837   4.054   1.353  0.00  0.00     0.183 A 
ATOM     15  HN  UNK N   1       4.900   5.821   1.139  1.00  0.00     0.168 HD
HETATM   16  N   UNK N   1       2.708   3.372   1.004  0.00  0.00    -0.336 N 
ATOM     17  HN  UNK N   1       2.513   2.448   1.390  1.00  0.00     0.168 HD
BRANCH  11  18
HETATM   18  N   UNK N   1       3.364   7.203  -0.456  0.00  0.00    -0.370 N 
HETATM   19  H   UNK N   1       3.347   7.431  -1.414  0.00  0.00     0.161 HD
BRANCH  18  20
HETATM   20  C   UNK N   1       3.561   8.225   0.533  0.00  0.00     0.160 C 
BRANCH  20  21
HETATM   21  C   UNK N   1       2.583   9.321   0.269  0.00  0.00    -0.029 A 
HETATM   22  C   UNK N   1       3.100  10.568  -0.080  0.00  0.00     0.010 A 
HETATM   23  C   UNK N   1       2.250  11.624  -0.406  0.00  0.00     0.002 A 
HETATM   24  C   UNK N   1       0.867  11.439  -0.403  0.00  0.00     0.012 A 
HETATM   25  C   UNK N   1       0.324  10.203  -0.052  0.00  0.00    -0.025 A 
HETATM   26  C   UNK N   1      -1.063  10.028  -0.064  0.00  0.00     0.012 A 
HETATM   27  C   UNK N   1       1.177   9.128   0.301  0.00  0.00    -0.018 A 
HETATM   28  C   UNK N   1      -1.618   8.793   0.281  0.00  0.00     0.001 A 
HETATM   29  C   UNK N   1      -0.787   7.731   0.647  0.00  0.00     0.001 A 
HETATM   30  C   UNK N   1       0.603   7.897   0.656  0.00  0.00     0.013 A 
ENDBRANCH  20  21
ENDBRANCH  18  20
ENDBRANCH  11  18
ENDBRANCH   4   6
BRANCH   2  31
HETATM   31  N   UNK N   1       1.969   0.955  -0.419  0.00  0.00    -0.359 N 
ATOM     32  HN  UNK N   1       2.424   1.815  -0.114  1.00  0.00     0.162 HD
BRANCH  31  33
HETATM   33  C   UNK N   1       2.766  -0.043  -0.585  0.00  0.00     0.146 C 
BRANCH  33  34
HETATM   34  C   UNK N   1       4.225   0.203  -0.420  0.00  0.00     0.020 A 
HETATM   35  C   UNK N   1       4.678   1.526  -0.310  0.00  0.00     0.052 A 
HETATM   36  C   UNK N   1       6.029   1.827  -0.154  0.00  0.00     0.071 A 
HETATM   37  C   UNK N   1       6.958   0.780  -0.097  0.00  0.00     0.073 A 
HETATM   38  C   UNK N   1       6.538  -0.550  -0.206  0.00  0.00     0.071 A 
HETATM   39  C   UNK N   1       5.163  -0.839  -0.378  0.00  0.00     0.052 A 
BRANCH  36  40
HETATM   40  O   UNK N   1       6.405   3.125  -0.061  0.00  0.00    -0.356 OA
HETATM   41  C   UNK N   1       7.709   3.528   0.117  0.00  0.00     0.210 C 
ENDBRANCH  36  40
BRANCH  38  42
HETATM   42  O   UNK N   1       7.471  -1.527  -0.138  0.00  0.00    -0.356 OA
HETATM   43  C   UNK N   1       7.173  -2.866  -0.226  0.00  0.00     0.210 C 
ENDBRANCH  38  42
ENDBRANCH  33  34
BRANCH  33  44
HETATM   44  O   UNK N   1       2.297  -1.269  -0.891  0.00  0.00    -0.346 OA
HETATM   45  H   UNK N   1       1.396  -1.413  -1.104  0.00  0.00     0.219 HD
ENDBRANCH  33  44
ENDBRANCH  31  33
ENDBRANCH   2  31
BRANCH   3  46
HETATM   46  O   UNK N   1      -0.502  -1.139  -0.635  0.00  0.00    -0.391 OA
HETATM   47  H   UNK N   1      -1.267  -1.479  -1.126  0.00  0.00     0.210 HD
ENDBRANCH   3  46
BRANCH   1  48
HETATM   48  C   UNK N   1      -2.634   0.674  -1.034  0.00  0.00     0.198 C 
BRANCH  48  49
HETATM   49  O   UNK N   1      -3.342  -0.520  -0.876  0.00  0.00    -0.398 OA
HETATM   50  H   UNK N   1      -4.306  -0.508  -0.767  0.00  0.00     0.209 HD
ENDBRANCH  48  49
ENDBRANCH   1  48
TORSDOF 13
