MODEL 1
REMARK VINA RESULT:      -8.0      0.000      0.000
REMARK  15 active torsions:
REMARK  status: ('A' for Active; 'I' for Inactive)
REMARK    1  A    between atoms: C_20  and  C_15 
REMARK    2  A    between atoms: C_23  and  C_15 
REMARK    3  A    between atoms: C_22  and  C_16 
REMARK    4  A    between atoms: C_25  and  C_16 
REMARK    5  A    between atoms: C_27  and  C_21 
REMARK    6  A    between atoms: C_28  and  C_22 
REMARK    7  A    between atoms: C_22  and  N_35 
REMARK    8  A    between atoms: C_29  and  C_23 
REMARK    9  A    between atoms: C_23  and  N_33 
REMARK   10  A    between atoms: O_43  and  C_24 
REMARK   11  A    between atoms: O_38  and  C_25 
REMARK   12  A    between atoms: S_44  and  C_26 
REMARK   13  A    between atoms: N_30  and  C_27 
REMARK   14  A    between atoms: C_28  and  O_39 
REMARK       I    between atoms: N_36  and  C_29 
REMARK   15  A    between atoms: S_44  and  N_35 
ROOT
HETATM    1  C   UNK N   1      36.764  13.093  11.483  0.00  0.00     0.136 C 
HETATM    2  N   UNK N   1      36.726  12.754  10.230  0.00  0.00    -0.359 N 
ATOM      3  HN  UNK N   1      37.621  12.538   9.791  1.00  0.00     0.162 HD
ENDROOT
BRANCH   1   4
HETATM    4  C   UNK N   1      35.570  13.664  12.228  0.00  0.00     0.177 C 
BRANCH   4   5
HETATM    5  C   UNK N   1      35.733  15.170  12.501  0.00  0.00     0.144 C 
BRANCH   5   6
HETATM    6  C   UNK N   1      35.998  16.018  11.302  0.00  0.00     0.141 C 
HETATM    7  O   UNK N   1      35.157  16.805  10.898  0.00  0.00    -0.650 OA
BRANCH   6   8
HETATM    8  O   UNK N   1      37.155  15.870  10.634  0.00  0.00    -0.776 OA
HETATM    9  H   UNK N   1      37.770  16.566  10.512  0.00  0.00     0.167 HD
ENDBRANCH   6   8
ENDBRANCH   5   6
ENDBRANCH   4   5
BRANCH   4  10
HETATM   10  N   UNK N   1      35.170  12.877  13.417  0.00  0.00    -0.302 N 
HETATM   11  H   UNK N   1      34.786  11.943  13.272  0.00  0.00     0.173 HD
BRANCH  10  12
HETATM   12  S   UNK N   1      35.327  13.483  15.108  0.00  0.00     0.260 S 
HETATM   13  O   UNK N   1      33.967  12.850  15.410  0.00  0.00    -0.200 OA
HETATM   14  O   UNK N   1      36.552  12.556  15.126  0.00  0.00    -0.200 OA
BRANCH  12  15
HETATM   15  C   UNK N   1      35.239  11.952  16.245  0.00  0.00     0.092 A 
HETATM   16  C   UNK N   1      35.075  10.579  15.787  0.00  0.00    -0.035 A 
HETATM   17  C   UNK N   1      35.050  10.202  14.347  0.00  0.00     0.050 C 
HETATM   18  C   UNK N   1      34.931   9.546  16.698  0.00  0.00     0.045 A 
HETATM   19  C   UNK N   1      34.946   9.761  18.067  0.00  0.00     0.075 A 
HETATM   20  C   UNK N   1      35.158  11.079  18.559  0.00  0.00    -0.021 A 
HETATM   21  C   UNK N   1      35.224  11.361  20.028  0.00  0.00     0.052 C 
HETATM   22  C   UNK N   1      35.305  12.158  17.655  0.00  0.00    -0.029 A 
HETATM   23  C   UNK N   1      35.508  13.546  18.185  0.00  0.00     0.050 C 
BRANCH  19  24
HETATM   24  O   UNK N   1      34.745   8.666  18.852  0.00  0.00    -0.355 OA
HETATM   25  C   UNK N   1      33.535   8.135  19.227  0.00  0.00     0.210 C 
ENDBRANCH  19  24
ENDBRANCH  12  15
ENDBRANCH  10  12
ENDBRANCH   4  10
ENDBRANCH   1   4
BRANCH   1  26
HETATM   26  O   UNK N   1      37.946  13.026  12.126  0.00  0.00    -0.348 OA
HETATM   27  H   UNK N   1      38.835  12.794  12.315  0.00  0.00     0.219 HD
ENDBRANCH   1  26
BRANCH   2  28
HETATM   28  C   UNK N   1      35.545  12.647   9.382  0.00  0.00     0.180 C 
BRANCH  28  29
HETATM   29  C   UNK N   1      35.546  13.681   8.238  0.00  0.00     0.073 C 
BRANCH  29  30
HETATM   30  C   UNK N   1      34.395  14.644   8.265  0.00  0.00    -0.056 A 
HETATM   31  C   UNK N   1      34.404  15.797   7.470  0.00  0.00     0.008 A 
HETATM   32  C   UNK N   1      33.310  16.667   7.477  0.00  0.00     0.016 A 
HETATM   33  C   UNK N   1      32.204  16.408   8.301  0.00  0.00     0.007 A 
HETATM   34  C   UNK N   1      32.219  15.276   9.130  0.00  0.00     0.016 A 
HETATM   35  C   UNK N   1      33.308  14.397   9.110  0.00  0.00     0.008 A 
BRANCH  33  36
HETATM   36  C   UNK N   1      31.020  17.297   8.277  0.00  0.00     0.102 C 
HETATM   37  N   UNK N   1      30.301  17.392   7.218  0.00  0.00    -0.385 N 
HETATM   38  H   UNK N   1      30.179  16.843   6.410  0.00  0.00     0.157 HD
ATOM     39  HN  UNK N   1      29.722  18.233   7.213  1.00  0.00     0.157 HD
BRANCH  36  40
HETATM   40  N   UNK N   1      30.630  17.996   9.443  0.00  0.00    -0.385 N 
HETATM   41  H   UNK N   1      30.177  17.877  10.309  0.00  0.00     0.157 HD
HETATM   42  H   UNK N   1      30.911  18.936   9.358  0.00  0.00     0.157 HD
ENDBRANCH  36  40
ENDBRANCH  33  36
ENDBRANCH  29  30
ENDBRANCH  28  29
BRANCH  28  43
HETATM   43  C   UNK N   1      35.547  11.236   8.827  0.00  0.00     0.242 C 
HETATM   44  N   UNK N   1      34.513  10.362   9.041  0.00  0.00    -0.350 N 
HETATM   45  C   UNK N   1      34.507   9.059   8.411  0.00  0.00     0.126 C 
HETATM   46  C   UNK N   1      33.402  10.686   9.917  0.00  0.00     0.126 C 
HETATM   47  C   UNK N   1      34.407   7.970   9.475  0.00  0.00     0.020 C 
HETATM   48  C   UNK N   1      33.215   8.236  10.395  0.00  0.00     0.003 C 
HETATM   49  C   UNK N   1      33.321   9.629  11.019  0.00  0.00     0.020 C 
HETATM   50  O   UNK N   1      36.491  10.889   8.125  0.00  0.00    -0.271 OA
ENDBRANCH  28  43
ENDBRANCH   2  28
TORSDOF 15
ENDMDL
MODEL 2
REMARK VINA RESULT:      -7.8     11.675     16.044
REMARK  15 active torsions:
REMARK  status: ('A' for Active; 'I' for Inactive)
REMARK    1  A    between atoms: C_20  and  C_15 
REMARK    2  A    between atoms: C_23  and  C_15 
REMARK    3  A    between atoms: C_22  and  C_16 
REMARK    4  A    between atoms: C_25  and  C_16 
REMARK    5  A    between atoms: C_27  and  C_21 
REMARK    6  A    between atoms: C_28  and  C_22 
REMARK    7  A    between atoms: C_22  and  N_35 
REMARK    8  A    between atoms: C_29  and  C_23 
REMARK    9  A    between atoms: C_23  and  N_33 
REMARK   10  A    between atoms: O_43  and  C_24 
REMARK   11  A    between atoms: O_38  and  C_25 
REMARK   12  A    between atoms: S_44  and  C_26 
REMARK   13  A    between atoms: N_30  and  C_27 
REMARK   14  A    between atoms: C_28  and  O_39 
REMARK       I    between atoms: N_36  and  C_29 
REMARK   15  A    between atoms: S_44  and  N_35 
ROOT
HETATM    1  C   UNK N   1      19.184  15.279   5.266  0.00  0.00     0.136 C 
HETATM    2  N   UNK N   1      19.535  14.256   4.548  0.00  0.00    -0.359 N 
ATOM      3  HN  UNK N   1      18.887  13.975   3.811  1.00  0.00     0.162 HD
ENDROOT
BRANCH   1   4
HETATM    4  C   UNK N   1      19.905  15.691   6.538  0.00  0.00     0.177 C 
BRANCH   4   5
HETATM    5  C   UNK N   1      18.955  16.373   7.538  0.00  0.00     0.144 C 
BRANCH   5   6
HETATM    6  C   UNK N   1      19.614  17.186   8.602  0.00  0.00     0.141 C 
HETATM    7  O   UNK N   1      20.700  16.859   9.052  0.00  0.00    -0.650 OA
BRANCH   6   8
HETATM    8  O   UNK N   1      18.974  18.257   9.103  0.00  0.00    -0.776 OA
HETATM    9  H   UNK N   1      18.064  18.424   8.960  0.00  0.00     0.167 HD
ENDBRANCH   6   8
ENDBRANCH   5   6
ENDBRANCH   4   5
BRANCH   4  10
HETATM   10  N   UNK N   1      21.165  16.434   6.302  0.00  0.00    -0.302 N 
HETATM   11  H   UNK N   1      22.003  16.136   6.802  0.00  0.00     0.173 HD
BRANCH  10  12
HETATM   12  S   UNK N   1      21.295  17.836   5.177  0.00  0.00     0.260 S 
HETATM   13  O   UNK N   1      22.271  18.478   6.166  0.00  0.00    -0.200 OA
HETATM   14  O   UNK N   1      21.862  16.775   4.221  0.00  0.00    -0.200 OA
BRANCH  12  15
HETATM   15  C   UNK N   1      23.140  17.988   4.708  0.00  0.00     0.092 A 
HETATM   16  C   UNK N   1      24.203  17.126   5.207  0.00  0.00    -0.035 A 
HETATM   17  C   UNK N   1      23.948  15.949   6.084  0.00  0.00     0.050 C 
HETATM   18  C   UNK N   1      25.524  17.375   4.877  0.00  0.00     0.045 A 
HETATM   19  C   UNK N   1      25.895  18.433   4.061  0.00  0.00     0.075 A 
HETATM   20  C   UNK N   1      24.885  19.267   3.507  0.00  0.00    -0.021 A 
HETATM   21  C   UNK N   1      25.226  20.398   2.587  0.00  0.00     0.052 C 
HETATM   22  C   UNK N   1      23.524  19.042   3.828  0.00  0.00    -0.029 A 
HETATM   23  C   UNK N   1      22.470  19.941   3.254  0.00  0.00     0.050 C 
BRANCH  19  24
HETATM   24  O   UNK N   1      27.231  18.595   3.855  0.00  0.00    -0.355 OA
HETATM   25  C   UNK N   1      28.140  19.130   4.736  0.00  0.00     0.210 C 
ENDBRANCH  19  24
ENDBRANCH  12  15
ENDBRANCH  10  12
ENDBRANCH   4  10
ENDBRANCH   1   4
BRANCH   1  26
HETATM   26  O   UNK N   1      18.069  15.951   4.917  0.00  0.00    -0.348 OA
HETATM   27  H   UNK N   1      17.398  16.606   4.918  0.00  0.00     0.219 HD
ENDBRANCH   1  26
BRANCH   2  28
HETATM   28  C   UNK N   1      20.751  13.463   4.679  0.00  0.00     0.180 C 
BRANCH  28  29
HETATM   29  C   UNK N   1      20.616  12.347   5.734  0.00  0.00     0.073 C 
BRANCH  29  30
HETATM   30  C   UNK N   1      21.584  12.447   6.876  0.00  0.00    -0.056 A 
HETATM   31  C   UNK N   1      22.955  12.234   6.677  0.00  0.00     0.008 A 
HETATM   32  C   UNK N   1      23.851  12.367   7.741  0.00  0.00     0.016 A 
HETATM   33  C   UNK N   1      23.384  12.686   9.026  0.00  0.00     0.007 A 
HETATM   34  C   UNK N   1      22.006  12.854   9.230  0.00  0.00     0.016 A 
HETATM   35  C   UNK N   1      21.111  12.737   8.160  0.00  0.00     0.008 A 
BRANCH  33  36
HETATM   36  C   UNK N   1      24.331  12.877  10.147  0.00  0.00     0.102 C 
HETATM   37  N   UNK N   1      24.148  12.268  11.262  0.00  0.00    -0.385 N 
HETATM   38  H   UNK N   1      23.627  11.483  11.547  0.00  0.00     0.157 HD
ATOM     39  HN  UNK N   1      24.663  12.698  12.032  1.00  0.00     0.157 HD
BRANCH  36  40
HETATM   40  N   UNK N   1      25.484  13.678   9.977  0.00  0.00    -0.385 N 
HETATM   41  H   UNK N   1      26.048  14.099   9.288  0.00  0.00     0.157 HD
HETATM   42  H   UNK N   1      25.858  13.889  10.864  0.00  0.00     0.157 HD
ENDBRANCH  36  40
ENDBRANCH  33  36
ENDBRANCH  29  30
ENDBRANCH  28  29
BRANCH  28  43
HETATM   43  C   UNK N   1      21.023  12.873   3.308  0.00  0.00     0.242 C 
HETATM   44  N   UNK N   1      22.251  12.953   2.706  0.00  0.00    -0.350 N 
HETATM   45  C   UNK N   1      22.497  12.291   1.443  0.00  0.00     0.126 C 
HETATM   46  C   UNK N   1      23.342  13.716   3.284  0.00  0.00     0.126 C 
HETATM   47  C   UNK N   1      22.967  13.309   0.407  0.00  0.00     0.020 C 
HETATM   48  C   UNK N   1      24.154  14.104   0.949  0.00  0.00     0.003 C 
HETATM   49  C   UNK N   1      23.791  14.774   2.275  0.00  0.00     0.020 C 
HETATM   50  O   UNK N   1      20.117  12.266   2.748  0.00  0.00    -0.271 OA
ENDBRANCH  28  43
ENDBRANCH   2  28
TORSDOF 15
ENDMDL
MODEL 3
REMARK VINA RESULT:      -7.8      1.771      2.282
REMARK  15 active torsions:
REMARK  status: ('A' for Active; 'I' for Inactive)
REMARK    1  A    between atoms: C_20  and  C_15 
REMARK    2  A    between atoms: C_23  and  C_15 
REMARK    3  A    between atoms: C_22  and  C_16 
REMARK    4  A    between atoms: C_25  and  C_16 
REMARK    5  A    between atoms: C_27  and  C_21 
REMARK    6  A    between atoms: C_28  and  C_22 
REMARK    7  A    between atoms: C_22  and  N_35 
REMARK    8  A    between atoms: C_29  and  C_23 
REMARK    9  A    between atoms: C_23  and  N_33 
REMARK   10  A    between atoms: O_43  and  C_24 
REMARK   11  A    between atoms: O_38  and  C_25 
REMARK   12  A    between atoms: S_44  and  C_26 
REMARK   13  A    between atoms: N_30  and  C_27 
REMARK   14  A    between atoms: C_28  and  O_39 
REMARK       I    between atoms: N_36  and  C_29 
REMARK   15  A    between atoms: S_44  and  N_35 
ROOT
HETATM    1  C   UNK N   1      37.817  13.212  10.519  0.00  0.00     0.136 C 
HETATM    2  N   UNK N   1      37.519  12.266   9.681  0.00  0.00    -0.359 N 
ATOM      3  HN  UNK N   1      38.228  12.039   8.983  1.00  0.00     0.162 HD
ENDROOT
BRANCH   1   4
HETATM    4  C   UNK N   1      36.806  13.833  11.468  0.00  0.00     0.177 C 
BRANCH   4   5
HETATM    5  C   UNK N   1      36.436  15.268  11.050  0.00  0.00     0.144 C 
BRANCH   5   6
HETATM    6  C   UNK N   1      34.992  15.624  11.174  0.00  0.00     0.141 C 
HETATM    7  O   UNK N   1      34.176  14.793  11.537  0.00  0.00    -0.650 OA
BRANCH   6   8
HETATM    8  O   UNK N   1      34.587  16.859  10.829  0.00  0.00    -0.776 OA
HETATM    9  H   UNK N   1      34.706  17.609  11.377  0.00  0.00     0.167 HD
ENDBRANCH   6   8
ENDBRANCH   5   6
ENDBRANCH   4   5
BRANCH   4  10
HETATM   10  N   UNK N   1      37.161  13.696  12.900  0.00  0.00    -0.302 N 
HETATM   11  H   UNK N   1      38.145  13.585  13.146  0.00  0.00     0.173 HD
BRANCH  10  12
HETATM   12  S   UNK N   1      35.945  13.718  14.230  0.00  0.00     0.260 S 
HETATM   13  O   UNK N   1      35.469  12.344  13.753  0.00  0.00    -0.200 OA
HETATM   14  O   UNK N   1      37.197  13.758  15.120  0.00  0.00    -0.200 OA
BRANCH  12  15
HETATM   15  C   UNK N   1      36.291  12.181  15.309  0.00  0.00     0.092 A 
HETATM   16  C   UNK N   1      37.138  11.062  14.921  0.00  0.00    -0.035 A 
HETATM   17  C   UNK N   1      37.916  11.035  13.651  0.00  0.00     0.050 C 
HETATM   18  C   UNK N   1      37.253   9.950  15.738  0.00  0.00     0.045 A 
HETATM   19  C   UNK N   1      36.588   9.852  16.951  0.00  0.00     0.075 A 
HETATM   20  C   UNK N   1      35.794  10.946  17.394  0.00  0.00    -0.021 A 
HETATM   21  C   UNK N   1      35.086  10.910  18.714  0.00  0.00     0.052 C 
HETATM   22  C   UNK N   1      35.651  12.095  16.581  0.00  0.00    -0.029 A 
HETATM   23  C   UNK N   1      34.795  13.234  17.050  0.00  0.00     0.050 C 
BRANCH  19  24
HETATM   24  O   UNK N   1      36.748   8.686  17.634  0.00  0.00    -0.355 OA
HETATM   25  C   UNK N   1      37.611   7.663  17.322  0.00  0.00     0.210 C 
ENDBRANCH  19  24
ENDBRANCH  12  15
ENDBRANCH  10  12
ENDBRANCH   4  10
ENDBRANCH   1   4
BRANCH   1  26
HETATM   26  O   UNK N   1      39.059  13.733  10.478  0.00  0.00    -0.348 OA
HETATM   27  H   UNK N   1      39.775  14.286  10.233  0.00  0.00     0.219 HD
ENDBRANCH   1  26
BRANCH   2  28
HETATM   28  C   UNK N   1      36.284  11.495   9.627  0.00  0.00     0.180 C 
BRANCH  28  29
HETATM   29  C   UNK N   1      35.544  11.661   8.284  0.00  0.00     0.073 C 
BRANCH  29  30
HETATM   30  C   UNK N   1      34.724  12.913   8.173  0.00  0.00    -0.056 A 
HETATM   31  C   UNK N   1      33.389  12.937   8.599  0.00  0.00     0.008 A 
HETATM   32  C   UNK N   1      32.647  14.119   8.525  0.00  0.00     0.016 A 
HETATM   33  C   UNK N   1      33.222  15.285   7.998  0.00  0.00     0.007 A 
HETATM   34  C   UNK N   1      34.544  15.245   7.530  0.00  0.00     0.016 A 
HETATM   35  C   UNK N   1      35.292  14.065   7.620  0.00  0.00     0.008 A 
BRANCH  33  36
HETATM   36  C   UNK N   1      32.459  16.554   7.962  0.00  0.00     0.102 C 
HETATM   37  N   UNK N   1      32.294  17.242   9.032  0.00  0.00    -0.385 N 
HETATM   38  H   UNK N   1      32.740  17.279   9.910  0.00  0.00     0.157 HD
ATOM     39  HN  UNK N   1      31.522  17.905   8.956  1.00  0.00     0.157 HD
BRANCH  36  40
HETATM   40  N   UNK N   1      31.964  17.053   6.735  0.00  0.00    -0.385 N 
HETATM   41  H   UNK N   1      31.975  16.889   5.764  0.00  0.00     0.157 HD
HETATM   42  H   UNK N   1      31.413  17.849   6.916  0.00  0.00     0.157 HD
ENDBRANCH  36  40
ENDBRANCH  33  36
ENDBRANCH  29  30
ENDBRANCH  28  29
BRANCH  28  43
HETATM   43  C   UNK N   1      36.678  10.046   9.844  0.00  0.00     0.242 C 
HETATM   44  N   UNK N   1      35.892   9.170  10.546  0.00  0.00    -0.350 N 
HETATM   45  C   UNK N   1      36.255   7.772  10.646  0.00  0.00     0.126 C 
HETATM   46  C   UNK N   1      34.688   9.599  11.235  0.00  0.00     0.126 C 
HETATM   47  C   UNK N   1      36.379   7.373  12.114  0.00  0.00     0.020 C 
HETATM   48  C   UNK N   1      35.109   7.756  12.875  0.00  0.00     0.003 C 
HETATM   49  C   UNK N   1      34.820   9.250  12.718  0.00  0.00     0.020 C 
HETATM   50  O   UNK N   1      37.717   9.644   9.332  0.00  0.00    -0.271 OA
ENDBRANCH  28  43
ENDBRANCH   2  28
TORSDOF 15
ENDMDL
MODEL 4
REMARK VINA RESULT:      -7.7      2.778      4.046
REMARK  15 active torsions:
REMARK  status: ('A' for Active; 'I' for Inactive)
REMARK    1  A    between atoms: C_20  and  C_15 
REMARK    2  A    between atoms: C_23  and  C_15 
REMARK    3  A    between atoms: C_22  and  C_16 
REMARK    4  A    between atoms: C_25  and  C_16 
REMARK    5  A    between atoms: C_27  and  C_21 
REMARK    6  A    between atoms: C_28  and  C_22 
REMARK    7  A    between atoms: C_22  and  N_35 
REMARK    8  A    between atoms: C_29  and  C_23 
REMARK    9  A    between atoms: C_23  and  N_33 
REMARK   10  A    between atoms: O_43  and  C_24 
REMARK   11  A    between atoms: O_38  and  C_25 
REMARK   12  A    between atoms: S_44  and  C_26 
REMARK   13  A    between atoms: N_30  and  C_27 
REMARK   14  A    between atoms: C_28  and  O_39 
REMARK       I    between atoms: N_36  and  C_29 
REMARK   15  A    between atoms: S_44  and  N_35 
ROOT
HETATM    1  C   UNK N   1      35.849  14.448   8.435  0.00  0.00     0.136 C 
HETATM    2  N   UNK N   1      35.444  14.976   7.319  0.00  0.00    -0.359 N 
ATOM      3  HN  UNK N   1      36.167  15.207   6.638  1.00  0.00     0.162 HD
ENDROOT
BRANCH   1   4
HETATM    4  C   UNK N   1      34.946  14.256   9.641  0.00  0.00     0.177 C 
BRANCH   4   5
HETATM    5  C   UNK N   1      34.526  15.601  10.261  0.00  0.00     0.144 C 
BRANCH   5   6
HETATM    6  C   UNK N   1      35.629  16.583  10.479  0.00  0.00     0.141 C 
HETATM    7  O   UNK N   1      35.497  17.750  10.147  0.00  0.00    -0.650 OA
BRANCH   6   8
HETATM    8  O   UNK N   1      36.794  16.159  10.997  0.00  0.00    -0.776 OA
HETATM    9  H   UNK N   1      37.532  16.721  11.128  0.00  0.00     0.167 HD
ENDBRANCH   6   8
ENDBRANCH   5   6
ENDBRANCH   4   5
BRANCH   4  10
HETATM   10  N   UNK N   1      35.457  13.274  10.625  0.00  0.00    -0.302 N 
HETATM   11  H   UNK N   1      36.116  12.565  10.303  0.00  0.00     0.173 HD
BRANCH  10  12
HETATM   12  S   UNK N   1      34.976  13.266  12.362  0.00  0.00     0.260 S 
HETATM   13  O   UNK N   1      34.733  11.760  12.239  0.00  0.00    -0.200 OA
HETATM   14  O   UNK N   1      36.426  13.729  12.571  0.00  0.00    -0.200 OA
BRANCH  12  15
HETATM   15  C   UNK N   1      36.154  12.053  13.248  0.00  0.00     0.092 A 
HETATM   16  C   UNK N   1      37.236  11.319  12.605  0.00  0.00    -0.035 A 
HETATM   17  C   UNK N   1      37.607  11.509  11.176  0.00  0.00     0.050 C 
HETATM   18  C   UNK N   1      37.978  10.393  13.317  0.00  0.00     0.045 A 
HETATM   19  C   UNK N   1      37.740  10.128  14.657  0.00  0.00     0.075 A 
HETATM   20  C   UNK N   1      36.729  10.861  15.339  0.00  0.00    -0.021 A 
HETATM   21  C   UNK N   1      36.457  10.645  16.796  0.00  0.00     0.052 C 
HETATM   22  C   UNK N   1      35.949  11.813  14.639  0.00  0.00    -0.029 A 
HETATM   23  C   UNK N   1      34.873  12.565  15.363  0.00  0.00     0.050 C 
BRANCH  19  24
HETATM   24  O   UNK N   1      38.509   9.159  15.227  0.00  0.00    -0.355 OA
HETATM   25  C   UNK N   1      39.766   8.769  14.830  0.00  0.00     0.210 C 
ENDBRANCH  19  24
ENDBRANCH  12  15
ENDBRANCH  10  12
ENDBRANCH   4  10
ENDBRANCH   1   4
BRANCH   1  26
HETATM   26  O   UNK N   1      37.156  14.146   8.560  0.00  0.00    -0.348 OA
HETATM   27  H   UNK N   1      37.952  13.651   8.537  0.00  0.00     0.219 HD
ENDBRANCH   1  26
BRANCH   2  28
HETATM   28  C   UNK N   1      34.071  15.276   6.934  0.00  0.00     0.180 C 
BRANCH  28  29
HETATM   29  C   UNK N   1      33.789  16.792   6.888  0.00  0.00     0.073 C 
BRANCH  29  30
HETATM   30  C   UNK N   1      32.383  17.176   7.244  0.00  0.00    -0.056 A 
HETATM   31  C   UNK N   1      32.096  17.802   8.464  0.00  0.00     0.008 A 
HETATM   32  C   UNK N   1      30.788  18.189   8.768  0.00  0.00     0.016 A 
HETATM   33  C   UNK N   1      29.744  17.928   7.867  0.00  0.00     0.007 A 
HETATM   34  C   UNK N   1      30.028  17.260   6.666  0.00  0.00     0.016 A 
HETATM   35  C   UNK N   1      31.341  16.888   6.356  0.00  0.00     0.008 A 
BRANCH  33  36
HETATM   36  C   UNK N   1      28.364  18.378   8.159  0.00  0.00     0.102 C 
HETATM   37  N   UNK N   1      27.804  18.073   9.273  0.00  0.00    -0.385 N 
HETATM   38  H   UNK N   1      28.127  17.772  10.153  0.00  0.00     0.157 HD
ATOM     39  HN  UNK N   1      26.788  18.165   9.238  1.00  0.00     0.157 HD
BRANCH  36  40
HETATM   40  N   UNK N   1      27.677  19.207   7.243  0.00  0.00    -0.385 N 
HETATM   41  H   UNK N   1      27.463  20.149   7.050  0.00  0.00     0.157 HD
HETATM   42  H   UNK N   1      27.263  18.641   6.551  0.00  0.00     0.157 HD
ENDBRANCH  36  40
ENDBRANCH  33  36
ENDBRANCH  29  30
ENDBRANCH  28  29
BRANCH  28  43
HETATM   43  C   UNK N   1      33.867  14.653   5.566  0.00  0.00     0.242 C 
HETATM   44  N   UNK N   1      33.388  13.379   5.405  0.00  0.00    -0.350 N 
HETATM   45  C   UNK N   1      33.114  12.857   4.082  0.00  0.00     0.126 C 
HETATM   46  C   UNK N   1      33.160  12.494   6.533  0.00  0.00     0.126 C 
HETATM   47  C   UNK N   1      33.915  11.579   3.854  0.00  0.00     0.020 C 
HETATM   48  C   UNK N   1      33.667  10.588   4.992  0.00  0.00     0.003 C 
HETATM   49  C   UNK N   1      33.996  11.229   6.342  0.00  0.00     0.020 C 
HETATM   50  O   UNK N   1      34.100  15.338   4.576  0.00  0.00    -0.271 OA
ENDBRANCH  28  43
ENDBRANCH   2  28
TORSDOF 15
ENDMDL
MODEL 5
REMARK VINA RESULT:      -7.7      4.203     10.071
REMARK  15 active torsions:
REMARK  status: ('A' for Active; 'I' for Inactive)
REMARK    1  A    between atoms: C_20  and  C_15 
REMARK    2  A    between atoms: C_23  and  C_15 
REMARK    3  A    between atoms: C_22  and  C_16 
REMARK    4  A    between atoms: C_25  and  C_16 
REMARK    5  A    between atoms: C_27  and  C_21 
REMARK    6  A    between atoms: C_28  and  C_22 
REMARK    7  A    between atoms: C_22  and  N_35 
REMARK    8  A    between atoms: C_29  and  C_23 
REMARK    9  A    between atoms: C_23  and  N_33 
REMARK   10  A    between atoms: O_43  and  C_24 
REMARK   11  A    between atoms: O_38  and  C_25 
REMARK   12  A    between atoms: S_44  and  C_26 
REMARK   13  A    between atoms: N_30  and  C_27 
REMARK   14  A    between atoms: C_28  and  O_39 
REMARK       I    between atoms: N_36  and  C_29 
REMARK   15  A    between atoms: S_44  and  N_35 
ROOT
HETATM    1  C   UNK N   1      32.692  15.098   9.461  0.00  0.00     0.136 C 
HETATM    2  N   UNK N   1      33.333  13.991   9.690  0.00  0.00    -0.359 N 
ATOM      3  HN  UNK N   1      33.029  13.450  10.500  1.00  0.00     0.162 HD
ENDROOT
BRANCH   1   4
HETATM    4  C   UNK N   1      33.153  16.132   8.449  0.00  0.00     0.177 C 
BRANCH   4   5
HETATM    5  C   UNK N   1      34.060  17.197   9.092  0.00  0.00     0.144 C 
BRANCH   5   6
HETATM    6  C   UNK N   1      34.640  18.202   8.153  0.00  0.00     0.141 C 
HETATM    7  O   UNK N   1      35.257  19.165   8.577  0.00  0.00    -0.650 OA
BRANCH   6   8
HETATM    8  O   UNK N   1      34.431  18.065   6.832  0.00  0.00    -0.776 OA
HETATM    9  H   UNK N   1      34.537  17.254   6.378  0.00  0.00     0.167 HD
ENDBRANCH   6   8
ENDBRANCH   5   6
ENDBRANCH   4   5
BRANCH   4  10
HETATM   10  N   UNK N   1      32.060  16.693   7.622  0.00  0.00    -0.302 N 
HETATM   11  H   UNK N   1      31.586  17.534   7.952  0.00  0.00     0.173 HD
BRANCH  10  12
HETATM   12  S   UNK N   1      31.523  15.968   6.060  0.00  0.00     0.260 S 
HETATM   13  O   UNK N   1      30.343  15.346   6.809  0.00  0.00    -0.200 OA
HETATM   14  O   UNK N   1      31.391  17.440   5.640  0.00  0.00    -0.200 OA
BRANCH  12  15
HETATM   15  C   UNK N   1      29.759  16.621   5.735  0.00  0.00     0.092 A 
HETATM   16  C   UNK N   1      28.991  17.449   6.655  0.00  0.00    -0.035 A 
HETATM   17  C   UNK N   1      29.545  17.963   7.939  0.00  0.00     0.050 C 
HETATM   18  C   UNK N   1      27.683  17.796   6.365  0.00  0.00     0.045 A 
HETATM   19  C   UNK N   1      27.052  17.390   5.199  0.00  0.00     0.075 A 
HETATM   20  C   UNK N   1      27.783  16.627   4.247  0.00  0.00    -0.021 A 
HETATM   21  C   UNK N   1      27.163  16.196   2.952  0.00  0.00     0.052 C 
HETATM   22  C   UNK N   1      29.121  16.251   4.514  0.00  0.00    -0.029 A 
HETATM   23  C   UNK N   1      29.874  15.430   3.511  0.00  0.00     0.050 C 
BRANCH  19  24
HETATM   24  O   UNK N   1      25.749  17.759   5.059  0.00  0.00    -0.355 OA
HETATM   25  C   UNK N   1      25.281  18.994   4.678  0.00  0.00     0.210 C 
ENDBRANCH  19  24
ENDBRANCH  12  15
ENDBRANCH  10  12
ENDBRANCH   4  10
ENDBRANCH   1   4
BRANCH   1  26
HETATM   26  O   UNK N   1      31.621  15.385  10.227  0.00  0.00    -0.348 OA
HETATM   27  H   UNK N   1      30.928  15.875  10.624  0.00  0.00     0.219 HD
ENDBRANCH   1  26
BRANCH   2  28
HETATM   28  C   UNK N   1      34.439  13.438   8.919  0.00  0.00     0.180 C 
BRANCH  28  29
HETATM   29  C   UNK N   1      35.265  12.415   9.725  0.00  0.00     0.073 C 
BRANCH  29  30
HETATM   30  C   UNK N   1      35.498  12.791  11.159  0.00  0.00    -0.056 A 
HETATM   31  C   UNK N   1      34.994  11.999  12.200  0.00  0.00     0.008 A 
HETATM   32  C   UNK N   1      35.250  12.340  13.531  0.00  0.00     0.016 A 
HETATM   33  C   UNK N   1      35.989  13.493  13.838  0.00  0.00     0.007 A 
HETATM   34  C   UNK N   1      36.453  14.307  12.794  0.00  0.00     0.016 A 
HETATM   35  C   UNK N   1      36.211  13.956  11.461  0.00  0.00     0.008 A 
BRANCH  33  36
HETATM   36  C   UNK N   1      36.306  13.834  15.244  0.00  0.00     0.102 C 
HETATM   37  N   UNK N   1      37.292  14.609  15.517  0.00  0.00    -0.385 N 
HETATM   38  H   UNK N   1      37.822  15.264  15.008  0.00  0.00     0.157 HD
ATOM     39  HN  UNK N   1      37.597  14.527  16.488  1.00  0.00     0.157 HD
BRANCH  36  40
HETATM   40  N   UNK N   1      35.483  13.365  16.293  0.00  0.00    -0.385 N 
HETATM   41  H   UNK N   1      35.500  13.111  17.245  0.00  0.00     0.157 HD
HETATM   42  H   UNK N   1      34.567  13.251  15.951  0.00  0.00     0.157 HD
ENDBRANCH  36  40
ENDBRANCH  33  36
ENDBRANCH  29  30
ENDBRANCH  28  29
BRANCH  28  43
HETATM   43  C   UNK N   1      33.820  12.784   7.699  0.00  0.00     0.242 C 
HETATM   44  N   UNK N   1      34.329  12.955   6.438  0.00  0.00    -0.350 N 
HETATM   45  C   UNK N   1      33.771  12.234   5.314  0.00  0.00     0.126 C 
HETATM   46  C   UNK N   1      35.420  13.874   6.167  0.00  0.00     0.126 C 
HETATM   47  C   UNK N   1      33.309  13.220   4.244  0.00  0.00     0.020 C 
HETATM   48  C   UNK N   1      34.443  14.179   3.883  0.00  0.00     0.003 C 
HETATM   49  C   UNK N   1      34.955  14.899   5.133  0.00  0.00     0.020 C 
HETATM   50  O   UNK N   1      32.858  12.041   7.863  0.00  0.00    -0.271 OA
ENDBRANCH  28  43
ENDBRANCH   2  28
TORSDOF 15
ENDMDL
MODEL 6
REMARK VINA RESULT:      -7.7      2.549      4.331
REMARK  15 active torsions:
REMARK  status: ('A' for Active; 'I' for Inactive)
REMARK    1  A    between atoms: C_20  and  C_15 
REMARK    2  A    between atoms: C_23  and  C_15 
REMARK    3  A    between atoms: C_22  and  C_16 
REMARK    4  A    between atoms: C_25  and  C_16 
REMARK    5  A    between atoms: C_27  and  C_21 
REMARK    6  A    between atoms: C_28  and  C_22 
REMARK    7  A    between atoms: C_22  and  N_35 
REMARK    8  A    between atoms: C_29  and  C_23 
REMARK    9  A    between atoms: C_23  and  N_33 
REMARK   10  A    between atoms: O_43  and  C_24 
REMARK   11  A    between atoms: O_38  and  C_25 
REMARK   12  A    between atoms: S_44  and  C_26 
REMARK   13  A    between atoms: N_30  and  C_27 
REMARK   14  A    between atoms: C_28  and  O_39 
REMARK       I    between atoms: N_36  and  C_29 
REMARK   15  A    between atoms: S_44  and  N_35 
ROOT
HETATM    1  C   UNK N   1      35.968  14.064   8.710  0.00  0.00     0.136 C 
HETATM    2  N   UNK N   1      35.309  14.546   7.700  0.00  0.00    -0.359 N 
ATOM      3  HN  UNK N   1      35.845  14.717   6.849  1.00  0.00     0.162 HD
ENDROOT
BRANCH   1   4
HETATM    4  C   UNK N   1      35.389  13.964  10.111  0.00  0.00     0.177 C 
BRANCH   4   5
HETATM    5  C   UNK N   1      34.785  15.301  10.577  0.00  0.00     0.144 C 
BRANCH   5   6
HETATM    6  C   UNK N   1      35.712  16.471  10.552  0.00  0.00     0.141 C 
HETATM    7  O   UNK N   1      35.327  17.561  10.163  0.00  0.00    -0.650 OA
BRANCH   6   8
HETATM    8  O   UNK N   1      36.996  16.300  10.913  0.00  0.00    -0.776 OA
HETATM    9  H   UNK N   1      37.255  16.004  11.763  0.00  0.00     0.167 HD
ENDBRANCH   6   8
ENDBRANCH   5   6
ENDBRANCH   4   5
BRANCH   4  10
HETATM   10  N   UNK N   1      36.302  13.340  11.097  0.00  0.00    -0.302 N 
HETATM   11  H   UNK N   1      37.121  13.868  11.399  0.00  0.00     0.173 HD
BRANCH  10  12
HETATM   12  S   UNK N   1      36.040  11.698  11.792  0.00  0.00     0.260 S 
HETATM   13  O   UNK N   1      37.226  11.956  12.725  0.00  0.00    -0.200 OA
HETATM   14  O   UNK N   1      34.684  12.292  12.200  0.00  0.00    -0.200 OA
BRANCH  12  15
HETATM   15  C   UNK N   1      35.727  11.941  13.659  0.00  0.00     0.092 A 
HETATM   16  C   UNK N   1      35.911  13.192  14.382  0.00  0.00    -0.035 A 
HETATM   17  C   UNK N   1      36.283  14.468  13.711  0.00  0.00     0.050 C 
HETATM   18  C   UNK N   1      35.743  13.243  15.755  0.00  0.00     0.045 A 
HETATM   19  C   UNK N   1      35.388  12.127  16.498  0.00  0.00     0.075 A 
HETATM   20  C   UNK N   1      35.145  10.898  15.826  0.00  0.00    -0.021 A 
HETATM   21  C   UNK N   1      34.719   9.672  16.575  0.00  0.00     0.052 C 
HETATM   22  C   UNK N   1      35.311  10.810  14.424  0.00  0.00    -0.029 A 
HETATM   23  C   UNK N   1      35.071   9.503  13.729  0.00  0.00     0.050 C 
BRANCH  19  24
HETATM   24  O   UNK N   1      35.304  12.302  17.846  0.00  0.00    -0.355 OA
HETATM   25  C   UNK N   1      35.198  13.498  18.514  0.00  0.00     0.210 C 
ENDBRANCH  19  24
ENDBRANCH  12  15
ENDBRANCH  10  12
ENDBRANCH   4  10
ENDBRANCH   1   4
BRANCH   1  26
HETATM   26  O   UNK N   1      37.260  13.726   8.527  0.00  0.00    -0.348 OA
HETATM   27  H   UNK N   1      38.170  13.593   8.707  0.00  0.00     0.219 HD
ENDBRANCH   1  26
BRANCH   2  28
HETATM   28  C   UNK N   1      33.889  14.870   7.649  0.00  0.00     0.180 C 
BRANCH  28  29
HETATM   29  C   UNK N   1      33.628  16.286   7.097  0.00  0.00     0.073 C 
BRANCH  29  30
HETATM   30  C   UNK N   1      32.225  16.782   7.292  0.00  0.00    -0.056 A 
HETATM   31  C   UNK N   1      31.780  17.201   8.553  0.00  0.00     0.008 A 
HETATM   32  C   UNK N   1      30.482  17.696   8.714  0.00  0.00     0.016 A 
HETATM   33  C   UNK N   1      29.604  17.751   7.620  0.00  0.00     0.007 A 
HETATM   34  C   UNK N   1      30.039  17.288   6.369  0.00  0.00     0.016 A 
HETATM   35  C   UNK N   1      31.344  16.809   6.206  0.00  0.00     0.008 A 
BRANCH  33  36
HETATM   36  C   UNK N   1      28.245  18.320   7.772  0.00  0.00     0.102 C 
HETATM   37  N   UNK N   1      27.506  18.518   6.741  0.00  0.00    -0.385 N 
HETATM   38  H   UNK N   1      27.501  18.183   5.815  0.00  0.00     0.157 HD
ATOM     39  HN  UNK N   1      26.747  19.175   6.925  1.00  0.00     0.157 HD
BRANCH  36  40
HETATM   40  N   UNK N   1      27.724  18.585   9.058  0.00  0.00    -0.385 N 
HETATM   41  H   UNK N   1      26.930  18.940   9.521  0.00  0.00     0.157 HD
HETATM   42  H   UNK N   1      28.392  18.322   9.732  0.00  0.00     0.157 HD
ENDBRANCH  36  40
ENDBRANCH  33  36
ENDBRANCH  29  30
ENDBRANCH  28  29
BRANCH  28  43
HETATM   43  C   UNK N   1      33.247  13.823   6.759  0.00  0.00     0.242 C 
HETATM   44  N   UNK N   1      33.538  13.715   5.424  0.00  0.00    -0.350 N 
HETATM   45  C   UNK N   1      32.979  12.640   4.632  0.00  0.00     0.126 C 
HETATM   46  C   UNK N   1      34.388  14.675   4.743  0.00  0.00     0.126 C 
HETATM   47  C   UNK N   1      32.198  13.217   3.455  0.00  0.00     0.020 C 
HETATM   48  C   UNK N   1      33.070  14.197   2.670  0.00  0.00     0.003 C 
HETATM   49  C   UNK N   1      33.601  15.298   3.590  0.00  0.00     0.020 C 
HETATM   50  O   UNK N   1      32.474  13.021   7.272  0.00  0.00    -0.271 OA
ENDBRANCH  28  43
ENDBRANCH   2  28
TORSDOF 15
ENDMDL
MODEL 7
REMARK VINA RESULT:      -7.6     17.754     21.817
REMARK  15 active torsions:
REMARK  status: ('A' for Active; 'I' for Inactive)
REMARK    1  A    between atoms: C_20  and  C_15 
REMARK    2  A    between atoms: C_23  and  C_15 
REMARK    3  A    between atoms: C_22  and  C_16 
REMARK    4  A    between atoms: C_25  and  C_16 
REMARK    5  A    between atoms: C_27  and  C_21 
REMARK    6  A    between atoms: C_28  and  C_22 
REMARK    7  A    between atoms: C_22  and  N_35 
REMARK    8  A    between atoms: C_29  and  C_23 
REMARK    9  A    between atoms: C_23  and  N_33 
REMARK   10  A    between atoms: O_43  and  C_24 
REMARK   11  A    between atoms: O_38  and  C_25 
REMARK   12  A    between atoms: S_44  and  C_26 
REMARK   13  A    between atoms: N_30  and  C_27 
REMARK   14  A    between atoms: C_28  and  O_39 
REMARK       I    between atoms: N_36  and  C_29 
REMARK   15  A    between atoms: S_44  and  N_35 
ROOT
HETATM    1  C   UNK N   1      29.273  24.100  -5.993  0.00  0.00     0.136 C 
HETATM    2  N   UNK N   1      28.081  24.246  -6.486  0.00  0.00    -0.359 N 
ATOM      3  HN  UNK N   1      27.880  25.143  -6.929  1.00  0.00     0.162 HD
ENDROOT
BRANCH   1   4
HETATM    4  C   UNK N   1      29.671  22.934  -5.105  0.00  0.00     0.177 C 
BRANCH   4   5
HETATM    5  C   UNK N   1      29.164  23.114  -3.662  0.00  0.00     0.144 C 
BRANCH   5   6
HETATM    6  C   UNK N   1      30.136  23.726  -2.709  0.00  0.00     0.141 C 
HETATM    7  O   UNK N   1      30.702  24.772  -2.984  0.00  0.00    -0.650 OA
BRANCH   6   8
HETATM    8  O   UNK N   1      30.425  23.086  -1.563  0.00  0.00    -0.776 OA
HETATM    9  H   UNK N   1      30.052  23.321  -0.737  0.00  0.00     0.167 HD
ENDBRANCH   6   8
ENDBRANCH   5   6
ENDBRANCH   4   5
BRANCH   4  10
HETATM   10  N   UNK N   1      31.103  22.567  -5.198  0.00  0.00    -0.302 N 
HETATM   11  H   UNK N   1      31.721  22.832  -4.431  0.00  0.00     0.173 HD
BRANCH  10  12
HETATM   12  S   UNK N   1      31.811  21.674  -6.595  0.00  0.00     0.260 S 
HETATM   13  O   UNK N   1      33.198  22.051  -6.071  0.00  0.00    -0.200 OA
HETATM   14  O   UNK N   1      31.115  20.472  -5.938  0.00  0.00    -0.200 OA
BRANCH  12  15
HETATM   15  C   UNK N   1      32.934  20.317  -5.860  0.00  0.00     0.092 A 
HETATM   16  C   UNK N   1      33.258  20.173  -4.447  0.00  0.00    -0.035 A 
HETATM   17  C   UNK N   1      32.661  21.033  -3.388  0.00  0.00     0.050 C 
HETATM   18  C   UNK N   1      34.156  19.209  -4.025  0.00  0.00     0.045 A 
HETATM   19  C   UNK N   1      34.776  18.339  -4.909  0.00  0.00     0.075 A 
HETATM   20  C   UNK N   1      34.448  18.407  -6.291  0.00  0.00    -0.021 A 
HETATM   21  C   UNK N   1      35.056  17.465  -7.284  0.00  0.00     0.052 C 
HETATM   22  C   UNK N   1      33.536  19.385  -6.757  0.00  0.00    -0.029 A 
HETATM   23  C   UNK N   1      33.213  19.460  -8.219  0.00  0.00     0.050 C 
BRANCH  19  24
HETATM   24  O   UNK N   1      35.675  17.470  -4.370  0.00  0.00    -0.355 OA
HETATM   25  C   UNK N   1      35.405  16.232  -3.839  0.00  0.00     0.210 C 
ENDBRANCH  19  24
ENDBRANCH  12  15
ENDBRANCH  10  12
ENDBRANCH   4  10
ENDBRANCH   1   4
BRANCH   1  26
HETATM   26  O   UNK N   1      30.174  25.081  -6.200  0.00  0.00    -0.348 OA
HETATM   27  H   UNK N   1      30.861  25.696  -6.033  0.00  0.00     0.219 HD
ENDBRANCH   1  26
BRANCH   2  28
HETATM   28  C   UNK N   1      26.998  23.271  -6.475  0.00  0.00     0.180 C 
BRANCH  28  29
HETATM   29  C   UNK N   1      25.779  23.752  -5.663  0.00  0.00     0.073 C 
BRANCH  29  30
HETATM   30  C   UNK N   1      25.932  25.116  -5.055  0.00  0.00    -0.056 A 
HETATM   31  C   UNK N   1      26.458  25.272  -3.766  0.00  0.00     0.008 A 
HETATM   32  C   UNK N   1      26.631  26.549  -3.225  0.00  0.00     0.016 A 
HETATM   33  C   UNK N   1      26.252  27.686  -3.956  0.00  0.00     0.007 A 
HETATM   34  C   UNK N   1      25.684  27.522  -5.228  0.00  0.00     0.016 A 
HETATM   35  C   UNK N   1      25.527  26.244  -5.776  0.00  0.00     0.008 A 
BRANCH  33  36
HETATM   36  C   UNK N   1      26.478  29.044  -3.411  0.00  0.00     0.102 C 
HETATM   37  N   UNK N   1      25.928  30.064  -3.963  0.00  0.00    -0.385 N 
HETATM   38  H   UNK N   1      25.169  30.198  -4.576  0.00  0.00     0.157 HD
ATOM     39  HN  UNK N   1      26.383  30.941  -3.706  1.00  0.00     0.157 HD
BRANCH  36  40
HETATM   40  N   UNK N   1      27.243  29.221  -2.236  0.00  0.00    -0.385 N 
HETATM   41  H   UNK N   1      27.477  28.787  -1.383  0.00  0.00     0.157 HD
HETATM   42  H   UNK N   1      27.709  30.088  -2.288  0.00  0.00     0.157 HD
ENDBRANCH  36  40
ENDBRANCH  33  36
ENDBRANCH  29  30
ENDBRANCH  28  29
BRANCH  28  43
HETATM   43  C   UNK N   1      26.618  23.041  -7.925  0.00  0.00     0.242 C 
HETATM   44  N   UNK N   1      27.012  21.927  -8.619  0.00  0.00    -0.350 N 
HETATM   45  C   UNK N   1      26.546  21.698  -9.971  0.00  0.00     0.126 C 
HETATM   46  C   UNK N   1      27.922  20.950  -8.052  0.00  0.00     0.126 C 
HETATM   47  C   UNK N   1      27.738  21.555 -10.912  0.00  0.00     0.020 C 
HETATM   48  C   UNK N   1      28.704  20.494 -10.385  0.00  0.00     0.003 C 
HETATM   49  C   UNK N   1      29.146  20.832  -8.960  0.00  0.00     0.020 C 
HETATM   50  O   UNK N   1      25.896  23.867  -8.473  0.00  0.00    -0.271 OA
ENDBRANCH  28  43
ENDBRANCH   2  28
TORSDOF 15
ENDMDL
MODEL 8
REMARK VINA RESULT:      -7.5      4.528     10.315
REMARK  15 active torsions:
REMARK  status: ('A' for Active; 'I' for Inactive)
REMARK    1  A    between atoms: C_20  and  C_15 
REMARK    2  A    between atoms: C_23  and  C_15 
REMARK    3  A    between atoms: C_22  and  C_16 
REMARK    4  A    between atoms: C_25  and  C_16 
REMARK    5  A    between atoms: C_27  and  C_21 
REMARK    6  A    between atoms: C_28  and  C_22 
REMARK    7  A    between atoms: C_22  and  N_35 
REMARK    8  A    between atoms: C_29  and  C_23 
REMARK    9  A    between atoms: C_23  and  N_33 
REMARK   10  A    between atoms: O_43  and  C_24 
REMARK   11  A    between atoms: O_38  and  C_25 
REMARK   12  A    between atoms: S_44  and  C_26 
REMARK   13  A    between atoms: N_30  and  C_27 
REMARK   14  A    between atoms: C_28  and  O_39 
REMARK       I    between atoms: N_36  and  C_29 
REMARK   15  A    between atoms: S_44  and  N_35 
ROOT
HETATM    1  C   UNK N   1      32.753  15.288   9.129  0.00  0.00     0.136 C 
HETATM    2  N   UNK N   1      33.860  14.619   9.241  0.00  0.00    -0.359 N 
ATOM      3  HN  UNK N   1      33.991  14.102  10.111  1.00  0.00     0.162 HD
ENDROOT
BRANCH   1   4
HETATM    4  C   UNK N   1      32.494  16.288   8.015  0.00  0.00     0.177 C 
BRANCH   4   5
HETATM    5  C   UNK N   1      32.903  17.716   8.422  0.00  0.00     0.144 C 
BRANCH   5   6
HETATM    6  C   UNK N   1      34.100  18.267   7.722  0.00  0.00     0.141 C 
HETATM    7  O   UNK N   1      34.329  17.979   6.559  0.00  0.00    -0.650 OA
BRANCH   6   8
HETATM    8  O   UNK N   1      34.959  19.046   8.403  0.00  0.00    -0.776 OA
HETATM    9  H   UNK N   1      34.719  19.873   8.772  0.00  0.00     0.167 HD
ENDBRANCH   6   8
ENDBRANCH   5   6
ENDBRANCH   4   5
BRANCH   4  10
HETATM   10  N   UNK N   1      31.138  16.196   7.427  0.00  0.00    -0.302 N 
HETATM   11  H   UNK N   1      30.739  15.269   7.272  0.00  0.00     0.173 HD
BRANCH  10  12
HETATM   12  S   UNK N   1      30.153  17.636   6.971  0.00  0.00     0.260 S 
HETATM   13  O   UNK N   1      30.672  17.478   5.540  0.00  0.00    -0.200 OA
HETATM   14  O   UNK N   1      28.983  16.735   7.396  0.00  0.00    -0.200 OA
BRANCH  12  15
HETATM   15  C   UNK N   1      28.955  17.063   5.598  0.00  0.00     0.092 A 
HETATM   16  C   UNK N   1      28.980  15.755   4.959  0.00  0.00    -0.035 A 
HETATM   17  C   UNK N   1      29.904  14.665   5.380  0.00  0.00     0.050 C 
HETATM   18  C   UNK N   1      28.126  15.468   3.909  0.00  0.00     0.045 A 
HETATM   19  C   UNK N   1      27.212  16.392   3.426  0.00  0.00     0.075 A 
HETATM   20  C   UNK N   1      27.115  17.663   4.057  0.00  0.00    -0.021 A 
HETATM   21  C   UNK N   1      26.117  18.685   3.603  0.00  0.00     0.052 C 
HETATM   22  C   UNK N   1      27.977  17.990   5.131  0.00  0.00    -0.029 A 
HETATM   23  C   UNK N   1      27.880  19.341   5.774  0.00  0.00     0.050 C 
BRANCH  19  24
HETATM   24  O   UNK N   1      26.464  16.000   2.358  0.00  0.00    -0.355 OA
HETATM   25  C   UNK N   1      25.720  14.850   2.254  0.00  0.00     0.210 C 
ENDBRANCH  19  24
ENDBRANCH  12  15
ENDBRANCH  10  12
ENDBRANCH   4  10
ENDBRANCH   1   4
BRANCH   1  26
HETATM   26  O   UNK N   1      31.828  15.161  10.101  0.00  0.00    -0.348 OA
HETATM   27  H   UNK N   1      31.439  15.173  10.953  0.00  0.00     0.219 HD
ENDBRANCH   1  26
BRANCH   2  28
HETATM   28  C   UNK N   1      34.936  14.526   8.263  0.00  0.00     0.180 C 
BRANCH  28  29
HETATM   29  C   UNK N   1      36.307  14.261   8.918  0.00  0.00     0.073 C 
BRANCH  29  30
HETATM   30  C   UNK N   1      36.268  14.119  10.411  0.00  0.00    -0.056 A 
HETATM   31  C   UNK N   1      36.305  12.854  11.013  0.00  0.00     0.008 A 
HETATM   32  C   UNK N   1      36.306  12.736  12.406  0.00  0.00     0.016 A 
HETATM   33  C   UNK N   1      36.241  13.882  13.214  0.00  0.00     0.007 A 
HETATM   34  C   UNK N   1      36.158  15.144  12.607  0.00  0.00     0.016 A 
HETATM   35  C   UNK N   1      36.175  15.261  11.212  0.00  0.00     0.008 A 
BRANCH  33  36
HETATM   36  C   UNK N   1      36.291  13.768  14.690  0.00  0.00     0.102 C 
HETATM   37  N   UNK N   1      37.240  14.325  15.351  0.00  0.00    -0.385 N 
HETATM   38  H   UNK N   1      37.890  15.040  15.164  0.00  0.00     0.157 HD
ATOM     39  HN  UNK N   1      37.344  13.936  16.289  1.00  0.00     0.157 HD
BRANCH  36  40
HETATM   40  N   UNK N   1      35.257  13.105  15.389  0.00  0.00    -0.385 N 
HETATM   41  H   UNK N   1      34.471  12.526  15.256  0.00  0.00     0.157 HD
HETATM   42  H   UNK N   1      35.358  13.286  16.352  0.00  0.00     0.157 HD
ENDBRANCH  36  40
ENDBRANCH  33  36
ENDBRANCH  29  30
ENDBRANCH  28  29
BRANCH  28  43
HETATM   43  C   UNK N   1      34.562  13.391   7.327  0.00  0.00     0.242 C 
HETATM   44  N   UNK N   1      34.532  13.544   5.965  0.00  0.00    -0.350 N 
HETATM   45  C   UNK N   1      34.268  12.411   5.103  0.00  0.00     0.126 C 
HETATM   46  C   UNK N   1      34.735  14.833   5.332  0.00  0.00     0.126 C 
HETATM   47  C   UNK N   1      33.058  12.703   4.221  0.00  0.00     0.020 C 
HETATM   48  C   UNK N   1      33.247  14.031   3.487  0.00  0.00     0.003 C 
HETATM   49  C   UNK N   1      33.507  15.162   4.482  0.00  0.00     0.020 C 
HETATM   50  O   UNK N   1      34.324  12.292   7.815  0.00  0.00    -0.271 OA
ENDBRANCH  28  43
ENDBRANCH   2  28
TORSDOF 15
ENDMDL
MODEL 9
REMARK VINA RESULT:      -7.5      3.427      5.857
REMARK  15 active torsions:
REMARK  status: ('A' for Active; 'I' for Inactive)
REMARK    1  A    between atoms: C_20  and  C_15 
REMARK    2  A    between atoms: C_23  and  C_15 
REMARK    3  A    between atoms: C_22  and  C_16 
REMARK    4  A    between atoms: C_25  and  C_16 
REMARK    5  A    between atoms: C_27  and  C_21 
REMARK    6  A    between atoms: C_28  and  C_22 
REMARK    7  A    between atoms: C_22  and  N_35 
REMARK    8  A    between atoms: C_29  and  C_23 
REMARK    9  A    between atoms: C_23  and  N_33 
REMARK   10  A    between atoms: O_43  and  C_24 
REMARK   11  A    between atoms: O_38  and  C_25 
REMARK   12  A    between atoms: S_44  and  C_26 
REMARK   13  A    between atoms: N_30  and  C_27 
REMARK   14  A    between atoms: C_28  and  O_39 
REMARK       I    between atoms: N_36  and  C_29 
REMARK   15  A    between atoms: S_44  and  N_35 
ROOT
HETATM    1  C   UNK N   1      34.780  15.365   5.712  0.00  0.00     0.136 C 
HETATM    2  N   UNK N   1      33.958  15.001   4.775  0.00  0.00    -0.359 N 
ATOM      3  HN  UNK N   1      34.376  14.732   3.884  1.00  0.00     0.162 HD
ENDROOT
BRANCH   1   4
HETATM    4  C   UNK N   1      34.329  16.010   7.011  0.00  0.00     0.177 C 
BRANCH   4   5
HETATM    5  C   UNK N   1      34.321  17.546   6.914  0.00  0.00     0.144 C 
BRANCH   5   6
HETATM    6  C   UNK N   1      34.330  18.275   8.217  0.00  0.00     0.141 C 
HETATM    7  O   UNK N   1      35.203  19.089   8.468  0.00  0.00    -0.650 OA
BRANCH   6   8
HETATM    8  O   UNK N   1      33.395  17.986   9.138  0.00  0.00    -0.776 OA
HETATM    9  H   UNK N   1      32.802  17.265   9.059  0.00  0.00     0.167 HD
ENDBRANCH   6   8
ENDBRANCH   5   6
ENDBRANCH   4   5
BRANCH   4  10
HETATM   10  N   UNK N   1      35.018  15.487   8.213  0.00  0.00    -0.302 N 
HETATM   11  H   UNK N   1      35.549  16.140   8.790  0.00  0.00     0.173 HD
BRANCH  10  12
HETATM   12  S   UNK N   1      34.967  13.755   8.713  0.00  0.00     0.260 S 
HETATM   13  O   UNK N   1      36.344  13.948   9.351  0.00  0.00    -0.200 OA
HETATM   14  O   UNK N   1      33.747  14.220   9.522  0.00  0.00    -0.200 OA
BRANCH  12  15
HETATM   15  C   UNK N   1      35.129  13.732  10.615  0.00  0.00     0.092 A 
HETATM   16  C   UNK N   1      35.507  14.875  11.435  0.00  0.00    -0.035 A 
HETATM   17  C   UNK N   1      35.723  16.238  10.876  0.00  0.00     0.050 C 
HETATM   18  C   UNK N   1      35.685  14.733  12.801  0.00  0.00     0.045 A 
HETATM   19  C   UNK N   1      35.506  13.519  13.447  0.00  0.00     0.075 A 
HETATM   20  C   UNK N   1      35.083  12.390  12.693  0.00  0.00    -0.021 A 
HETATM   21  C   UNK N   1      34.835  11.065  13.347  0.00  0.00     0.052 C 
HETATM   22  C   UNK N   1      34.896  12.500  11.294  0.00  0.00    -0.029 A 
HETATM   23  C   UNK N   1      34.470  11.297  10.507  0.00  0.00     0.050 C 
BRANCH  19  24
HETATM   24  O   UNK N   1      35.760  13.505  14.784  0.00  0.00    -0.355 OA
HETATM   25  C   UNK N   1      36.969  13.742  15.394  0.00  0.00     0.210 C 
ENDBRANCH  19  24
ENDBRANCH  12  15
ENDBRANCH  10  12
ENDBRANCH   4  10
ENDBRANCH   1   4
BRANCH   1  26
HETATM   26  O   UNK N   1      36.103  15.254   5.479  0.00  0.00    -0.348 OA
HETATM   27  H   UNK N   1      36.908  14.977   5.087  0.00  0.00     0.219 HD
ENDBRANCH   1  26
BRANCH   2  28
HETATM   28  C   UNK N   1      32.505  14.935   4.855  0.00  0.00     0.180 C 
BRANCH  28  29
HETATM   29  C   UNK N   1      31.824  16.195   4.284  0.00  0.00     0.073 C 
BRANCH  29  30
HETATM   30  C   UNK N   1      30.812  16.826   5.195  0.00  0.00    -0.056 A 
HETATM   31  C   UNK N   1      30.851  16.599   6.578  0.00  0.00     0.008 A 
HETATM   32  C   UNK N   1      29.925  17.222   7.420  0.00  0.00     0.016 A 
HETATM   33  C   UNK N   1      28.931  18.057   6.887  0.00  0.00     0.007 A 
HETATM   34  C   UNK N   1      28.868  18.245   5.498  0.00  0.00     0.016 A 
HETATM   35  C   UNK N   1      29.806  17.634   4.657  0.00  0.00     0.008 A 
BRANCH  33  36
HETATM   36  C   UNK N   1      27.978  18.759   7.776  0.00  0.00     0.102 C 
HETATM   37  N   UNK N   1      27.273  19.734   7.331  0.00  0.00    -0.385 N 
HETATM   38  H   UNK N   1      27.009  20.049   6.436  0.00  0.00     0.157 HD
ATOM     39  HN  UNK N   1      26.898  20.320   8.079  1.00  0.00     0.157 HD
BRANCH  36  40
HETATM   40  N   UNK N   1      27.786  18.316   9.105  0.00  0.00    -0.385 N 
HETATM   41  H   UNK N   1      27.085  18.071   9.753  0.00  0.00     0.157 HD
HETATM   42  H   UNK N   1      28.665  18.218   9.538  0.00  0.00     0.157 HD
ENDBRANCH  36  40
ENDBRANCH  33  36
ENDBRANCH  29  30
ENDBRANCH  28  29
BRANCH  28  43
HETATM   43  C   UNK N   1      32.091  13.703   4.073  0.00  0.00     0.242 C 
HETATM   44  N   UNK N   1      32.153  12.441   4.604  0.00  0.00    -0.350 N 
HETATM   45  C   UNK N   1      31.656  11.303   3.860  0.00  0.00     0.126 C 
HETATM   46  C   UNK N   1      32.733  12.184   5.909  0.00  0.00     0.126 C 
HETATM   47  C   UNK N   1      32.766  10.270   3.692  0.00  0.00     0.020 C 
HETATM   48  C   UNK N   1      33.376   9.923   5.050  0.00  0.00     0.003 C 
HETATM   49  C   UNK N   1      33.881  11.187   5.749  0.00  0.00     0.020 C 
HETATM   50  O   UNK N   1      31.647  13.857   2.940  0.00  0.00    -0.271 OA
ENDBRANCH  28  43
ENDBRANCH   2  28
TORSDOF 15
ENDMDL
