REMARK  5 active torsions:
REMARK  status: ('A' for Active; 'I' for Inactive)
REMARK    1  A    between atoms: C_10  and  C_4 
REMARK    2  A    between atoms: C_11  and  C_4 
REMARK    3  A    between atoms: C_10  and  C_8 
REMARK    4  A    between atoms: C_12  and  C_11 
REMARK    5  A    between atoms: O_23  and  C_11 
ROOT
HETATM    1  C   UNK N   1       1.535  -1.856  -0.097  0.00  0.00     0.096 C 
ENDROOT
BRANCH   1   2
HETATM    2  C   UNK N   1       0.673  -0.648  -0.067  0.00  0.00     0.187 C 
HETATM    3  O   UNK N   1      -0.545  -0.755  -0.026  0.00  0.00    -0.287 OA
BRANCH   2   4
HETATM    4  C   UNK N   1       1.298   0.710  -0.060  0.00  0.00     0.042 A 
HETATM    5  C   UNK N   1       0.608   1.921  -0.063  0.00  0.00     0.104 A 
HETATM    6  N   UNK N   1       1.490   2.955  -0.038  0.00  0.00    -0.364 N 
HETATM    7  C   UNK N   1       2.718   2.405  -0.016  0.00  0.00     0.043 A 
HETATM    8  H   UNK N   1       1.274   3.915  -0.036  0.00  0.00     0.165 HD
HETATM    9  C   UNK N   1       3.940   3.078   0.020  0.00  0.00     0.032 A 
HETATM   10  C   UNK N   1       2.646   1.044  -0.028  0.00  0.00     0.008 A 
HETATM   11  C   UNK N   1       5.121   2.307   0.045  0.00  0.00     0.026 A 
HETATM   12  C   UNK N   1       5.048   0.899   0.035  0.00  0.00     0.035 A 
HETATM   13  C   UNK N   1       3.803   0.267   0.001  0.00  0.00     0.038 A 
HETATM   14 Cl   UNK N   1       6.503  -0.076   0.064  0.00  0.00    -0.084 Cl
ENDBRANCH   2   4
ENDBRANCH   1   2
BRANCH   1  15
HETATM   15  C   UNK N   1       1.154  -3.138   0.014  0.00  0.00     0.116 C 
BRANCH  15  16
HETATM   16  C   UNK N   1       2.209  -4.180   0.005  0.00  0.00     0.171 A 
HETATM   17  N   UNK N   1       2.003  -5.503   0.105  0.00  0.00    -0.266 N 
HETATM   18  N   UNK N   1       3.209  -6.051   0.084  0.00  0.00    -0.227 N 
ATOM     19  HN  UNK N   1       1.107  -5.984   0.182  1.00  0.00     0.190 HD
HETATM   20  N   UNK N   1       4.127  -5.101  -0.022  0.00  0.00    -0.227 N 
HETATM   21  H   UNK N   1       3.394  -7.017   0.138  0.00  0.00     0.210 HD
HETATM   22  N   UNK N   1       3.531  -3.925  -0.073  0.00  0.00    -0.266 N 
ATOM     23  HN  UNK N   1       5.134  -5.255  -0.059  1.00  0.00     0.210 HD
ATOM     24  HN  UNK N   1       3.978  -3.012  -0.154  1.00  0.00     0.190 HD
ENDBRANCH  15  16
BRANCH  15  25
HETATM   25  O   UNK N   1      -0.143  -3.478   0.156  0.00  0.00    -0.357 OA
HETATM   26  H   UNK N   1      -0.798  -2.816   0.254  0.00  0.00     0.218 HD
ENDBRANCH  15  25
ENDBRANCH   1  15
TORSDOF 5
