REMARK  13 active torsions:
REMARK  status: ('A' for Active; 'I' for Inactive)
REMARK    1  A    between atoms: C_40  and  C_7 
REMARK    2  A    between atoms: C_23  and  N_41 
REMARK    3  A    between atoms: O_43  and  C_25 
REMARK    4  A    between atoms: C_26  and  O_44 
REMARK    5  A    between atoms: C_27  and  O_53 
REMARK    6  A    between atoms: C_28  and  O_54 
REMARK    7  A    between atoms: C_29  and  O_53 
REMARK    8  A    between atoms: C_30  and  O_55 
REMARK    9  A    between atoms: O_47  and  C_36 
REMARK   10  A    between atoms: C_37  and  O_55 
REMARK   11  A    between atoms: C_38  and  O_54 
REMARK   12  A    between atoms: C_39  and  O_48 
REMARK   13  A    between atoms: C_40  and  O_49 
ROOT
HETATM    1  C   UNK N   1      11.041   1.849  -1.039  0.00  0.00     0.004 A 
HETATM    2  C   UNK N   1       9.971   0.992  -0.767  0.00  0.00     0.017 A 
HETATM    3  C   UNK N   1      10.953   3.208  -0.732  0.00  0.00     0.037 A 
HETATM    4  C   UNK N   1       5.110   0.423   0.239  0.00  0.00     0.027 C 
HETATM    5  C   UNK N   1       1.527   2.744   0.578  0.00  0.00     0.078 C 
HETATM    6  C   UNK N   1       8.802   1.479  -0.180  0.00  0.00     0.032 A 
HETATM    7  C   UNK N   1       6.316   1.168   0.354  0.00  0.00     0.033 C 
HETATM    8  C   UNK N   1       3.876   1.100   0.202  0.00  0.00    -0.014 C 
HETATM    9  C   UNK N   1       9.806   3.715  -0.137  0.00  0.00     0.080 A 
HETATM   10  C   UNK N   1       2.761   3.236  -0.196  0.00  0.00     0.164 C 
HETATM   11  C   UNK N   1       8.724   2.854   0.152  0.00  0.00     0.062 A 
HETATM   12  C   UNK N   1       3.909   2.491   0.303  0.00  0.00     0.014 C 
HETATM   13  C   UNK N   1       6.268   2.543   0.667  0.00  0.00     0.063 C 
HETATM   14  C   UNK N   1       7.628   0.579   0.029  0.00  0.00     0.194 C 
HETATM   15  C   UNK N   1       7.492   3.369   0.734  0.00  0.00     0.199 C 
HETATM   16  C   UNK N   1       5.061   3.175   0.710  0.00  0.00     0.090 C 
HETATM   17  C   UNK N   1       2.510   0.380   0.101  0.00  0.00     0.186 C 
HETATM   18  C   UNK N   1       1.223   1.319   0.061  0.00  0.00     0.090 C 
HETATM   19  O   UNK N   1       7.712  -0.616  -0.230  0.00  0.00    -0.287 OA
HETATM   20  O   UNK N   1       7.446   4.535   1.123  0.00  0.00    -0.286 OA
ENDROOT
BRANCH  10  21
HETATM   21  O   UNK N   1       3.145   4.604  -0.286  0.00  0.00    -0.351 OA
BRANCH  21  22
HETATM   22  C   UNK N   1       2.081   5.426  -0.227  0.00  0.00     0.263 C 
HETATM   23  C   UNK N   1       2.444   6.913  -0.250  0.00  0.00     0.099 C 
HETATM   24  C   UNK N   1       1.141   7.782  -0.361  0.00  0.00     0.258 C 
HETATM   25  C   UNK N   1      -0.090   6.836  -0.093  0.00  0.00     0.186 C 
HETATM   26  C   UNK N   1       0.026   5.640  -1.164  0.00  0.00     0.151 C 
HETATM   27  C   UNK N   1      -0.389   6.040  -2.574  0.00  0.00     0.042 C 
HETATM   28  O   UNK N   1       1.314   5.166  -1.349  0.00  0.00    -0.354 OA
BRANCH  24  29
HETATM   29  N   UNK N   1       1.233   8.914   0.584  0.00  0.00     0.087 N 
HETATM   30  C   UNK N   1       0.118   9.830   0.389  0.00  0.00     0.310 C 
HETATM   31  C   UNK N   1       2.427   9.705   0.299  0.00  0.00     0.310 C 
ENDBRANCH  24  29
BRANCH  25  32
HETATM   32  O   UNK N   1      -1.338   7.488   0.108  0.00  0.00    -0.351 OA
BRANCH  32  33
HETATM   33  C   UNK N   1      -2.388   7.075  -0.729  0.00  0.00     0.263 C 
HETATM   34  C   UNK N   1      -3.676   7.797  -0.372  0.00  0.00     0.095 C 
HETATM   35  C   UNK N   1      -4.566   7.026   0.580  0.00  0.00     0.154 C 
HETATM   36  C   UNK N   1      -4.650   5.563   0.109  0.00  0.00     0.182 C 
HETATM   37  C   UNK N   1      -3.239   5.010   0.181  0.00  0.00     0.152 C 
HETATM   38  C   UNK N   1      -3.218   3.517  -0.112  0.00  0.00     0.042 C 
HETATM   39  O   UNK N   1      -2.529   5.656  -0.849  0.00  0.00    -0.354 OA
BRANCH  35  40
HETATM   40  O   UNK N   1      -4.091   7.109   1.892  0.00  0.00    -0.393 OA
HETATM   41  H   UNK N   1      -3.876   6.853   2.803  0.00  0.00     0.210 HD
ENDBRANCH  35  40
BRANCH  36  42
HETATM   42  O   UNK N   1      -5.610   4.806   0.849  0.00  0.00    -0.351 OA
BRANCH  42  43
HETATM   43  C   UNK N   1      -6.584   4.268  -0.053  0.00  0.00     0.261 C 
HETATM   44  C   UNK N   1      -7.706   3.477   0.661  0.00  0.00     0.068 C 
HETATM   45  C   UNK N   1      -8.741   4.380   1.346  0.00  0.00     0.086 C 
HETATM   46  C   UNK N   1      -9.041   5.540   0.456  0.00  0.00     0.155 C 
HETATM   47  C   UNK N   1      -7.865   6.225  -0.132  0.00  0.00     0.190 C 
HETATM   48  O   UNK N   1     -10.186   5.884   0.209  0.00  0.00    -0.295 OA
HETATM   49  C   UNK N   1      -8.206   7.419  -1.008  0.00  0.00     0.048 C 
HETATM   50  O   UNK N   1      -7.143   5.277  -0.896  0.00  0.00    -0.349 OA
ENDBRANCH  42  43
ENDBRANCH  36  42
ENDBRANCH  32  33
ENDBRANCH  25  32
ENDBRANCH  21  22
ENDBRANCH  10  21
BRANCH  18  51
HETATM   51  C   UNK N   1       0.066   0.773   0.909  0.00  0.00     0.036 C 
HETATM   52  C   UNK N   1      -0.479  -0.553   0.407  0.00  0.00     0.008 C 
ENDBRANCH  18  51
BRANCH  18  53
HETATM   53  O   UNK N   1       0.763   1.445  -1.258  0.00  0.00    -0.387 OA
HETATM   54  H   UNK N   1       0.680   1.764  -2.170  0.00  0.00     0.210 HD
ENDBRANCH  18  53
BRANCH  16  55
HETATM   55  O   UNK N   1       5.023   4.491   1.033  0.00  0.00    -0.359 OA
HETATM   56  H   UNK N   1       5.797   4.969   1.256  0.00  0.00     0.217 HD
ENDBRANCH  16  55
BRANCH  17  57
HETATM   57  O   UNK N   1       2.493  -0.504  -0.982  0.00  0.00    -0.388 OA
HETATM   58  H   UNK N   1       1.956  -0.800  -1.733  0.00  0.00     0.210 HD
ENDBRANCH  17  57
BRANCH   9  59
HETATM   59  O   UNK N   1       9.735   5.038   0.121  0.00  0.00    -0.360 OA
HETATM   60  H   UNK N   1      10.506   5.539   0.300  0.00  0.00     0.217 HD
ENDBRANCH   9  59
TORSDOF 13
