MODEL 1
REMARK VINA RESULT:      -4.1      0.000      0.000
REMARK  2 active torsions:
REMARK  status: ('A' for Active; 'I' for Inactive)
REMARK    1  A    between atoms: C_2  and  C_3 
REMARK    2  A    between atoms: C_3  and  C_5 
ROOT
HETATM    1  C   UNK N   1      27.950  19.205   7.041  0.00  0.00     0.054 A 
HETATM    2  N   UNK N   1      27.592  19.204   8.349  0.00  0.00    -0.363 N 
ATOM      3  HN  UNK N   1      26.989  19.908   8.773  1.00  0.00     0.165 HD
HETATM    4  C   UNK N   1      28.138  18.143   9.041  0.00  0.00     0.095 A 
HETATM    5  C   UNK N   1      28.947  17.276   8.280  0.00  0.00     0.068 A 
HETATM    6  S   UNK N   1      28.927  17.909   6.750  0.00  0.00    -0.087 SA
ENDROOT
BRANCH   1   7
HETATM    7  C   UNK N   1      27.518  20.224   6.036  0.00  0.00     0.038 C 
HETATM    8  C   UNK N   1      26.806  21.488   6.507  0.00  0.00     0.017 C 
BRANCH   7   9
HETATM    9  C   UNK N   1      27.816  19.957   4.560  0.00  0.00     0.006 C 
HETATM   10  C   UNK N   1      26.649  20.265   3.641  0.00  0.00     0.006 C 
ENDBRANCH   7   9
ENDBRANCH   1   7
TORSDOF 2
ENDMDL
MODEL 2
REMARK VINA RESULT:      -3.9      5.817      7.068
REMARK  2 active torsions:
REMARK  status: ('A' for Active; 'I' for Inactive)
REMARK    1  A    between atoms: C_2  and  C_3 
REMARK    2  A    between atoms: C_3  and  C_5 
ROOT
HETATM    1  C   UNK N   1      33.941  16.657   9.377  0.00  0.00     0.054 A 
HETATM    2  N   UNK N   1      34.863  17.180  10.223  0.00  0.00    -0.363 N 
ATOM      3  HN  UNK N   1      35.184  18.147  10.186  1.00  0.00     0.165 HD
HETATM    4  C   UNK N   1      35.316  16.255  11.140  0.00  0.00     0.095 A 
HETATM    5  C   UNK N   1      34.752  14.968  11.031  0.00  0.00     0.068 A 
HETATM    6  S   UNK N   1      33.695  15.073   9.761  0.00  0.00    -0.087 SA
ENDROOT
BRANCH   1   7
HETATM    7  C   UNK N   1      33.265  17.411   8.276  0.00  0.00     0.038 C 
HETATM    8  C   UNK N   1      31.809  17.832   8.439  0.00  0.00     0.017 C 
BRANCH   7   9
HETATM    9  C   UNK N   1      34.073  17.736   7.019  0.00  0.00     0.006 C 
HETATM   10  C   UNK N   1      33.339  17.423   5.730  0.00  0.00     0.006 C 
ENDBRANCH   7   9
ENDBRANCH   1   7
TORSDOF 2
ENDMDL
MODEL 3
REMARK VINA RESULT:      -3.8      1.407      4.220
REMARK  2 active torsions:
REMARK  status: ('A' for Active; 'I' for Inactive)
REMARK    1  A    between atoms: C_2  and  C_3 
REMARK    2  A    between atoms: C_3  and  C_5 
ROOT
HETATM    1  C   UNK N   1      27.813  19.232   6.731  0.00  0.00     0.054 A 
HETATM    2  N   UNK N   1      26.993  20.172   7.264  0.00  0.00    -0.363 N 
ATOM      3  HN  UNK N   1      26.786  20.246   8.260  1.00  0.00     0.165 HD
HETATM    4  C   UNK N   1      26.472  21.016   6.307  0.00  0.00     0.095 A 
HETATM    5  C   UNK N   1      26.877  20.754   4.983  0.00  0.00     0.068 A 
HETATM    6  S   UNK N   1      27.888  19.448   5.099  0.00  0.00    -0.087 SA
ENDROOT
BRANCH   1   7
HETATM    7  C   UNK N   1      28.529  18.177   7.513  0.00  0.00     0.038 C 
HETATM    8  C   UNK N   1      29.404  17.165   6.782  0.00  0.00     0.017 C 
BRANCH   7   9
HETATM    9  C   UNK N   1      28.354  18.159   9.032  0.00  0.00     0.006 C 
HETATM   10  C   UNK N   1      29.600  18.577   9.790  0.00  0.00     0.006 C 
ENDBRANCH   7   9
ENDBRANCH   1   7
TORSDOF 2
ENDMDL
MODEL 4
REMARK VINA RESULT:      -3.8     10.928     12.896
REMARK  2 active torsions:
REMARK  status: ('A' for Active; 'I' for Inactive)
REMARK    1  A    between atoms: C_2  and  C_3 
REMARK    2  A    between atoms: C_3  and  C_5 
ROOT
HETATM    1  C   UNK N   1      35.138  12.814  13.720  0.00  0.00     0.054 A 
HETATM    2  N   UNK N   1      34.596  12.677  12.484  0.00  0.00    -0.363 N 
ATOM      3  HN  UNK N   1      33.907  11.966  12.242  1.00  0.00     0.165 HD
HETATM    4  C   UNK N   1      35.084  13.609  11.592  0.00  0.00     0.095 A 
HETATM    5  C   UNK N   1      36.033  14.510  12.116  0.00  0.00     0.068 A 
HETATM    6  S   UNK N   1      36.205  14.071  13.703  0.00  0.00    -0.087 SA
ENDROOT
BRANCH   1   7
HETATM    7  C   UNK N   1      34.810  11.954  14.899  0.00  0.00     0.038 C 
HETATM    8  C   UNK N   1      33.723  10.893  14.774  0.00  0.00     0.017 C 
BRANCH   7   9
HETATM    9  C   UNK N   1      35.590  12.175  16.195  0.00  0.00     0.006 C 
HETATM   10  C   UNK N   1      34.905  13.122  17.161  0.00  0.00     0.006 C 
ENDBRANCH   7   9
ENDBRANCH   1   7
TORSDOF 2
ENDMDL
MODEL 5
REMARK VINA RESULT:      -3.7     13.212     14.723
REMARK  2 active torsions:
REMARK  status: ('A' for Active; 'I' for Inactive)
REMARK    1  A    between atoms: C_2  and  C_3 
REMARK    2  A    between atoms: C_3  and  C_5 
ROOT
HETATM    1  C   UNK N   1      26.350  28.593  -4.416  0.00  0.00     0.054 A 
HETATM    2  N   UNK N   1      25.939  29.448  -3.447  0.00  0.00    -0.363 N 
ATOM      3  HN  UNK N   1      25.231  29.217  -2.750  1.00  0.00     0.165 HD
HETATM    4  C   UNK N   1      26.588  30.663  -3.510  0.00  0.00     0.095 A 
HETATM    5  C   UNK N   1      27.535  30.790  -4.545  0.00  0.00     0.068 A 
HETATM    6  S   UNK N   1      27.499  29.335  -5.336  0.00  0.00    -0.087 SA
ENDROOT
BRANCH   1   7
HETATM    7  C   UNK N   1      25.833  27.203  -4.607  0.00  0.00     0.038 C 
HETATM    8  C   UNK N   1      24.780  26.933  -5.675  0.00  0.00     0.017 C 
BRANCH   7   9
HETATM    9  C   UNK N   1      26.394  26.094  -3.716  0.00  0.00     0.006 C 
HETATM   10  C   UNK N   1      26.177  24.700  -4.273  0.00  0.00     0.006 C 
ENDBRANCH   7   9
ENDBRANCH   1   7
TORSDOF 2
ENDMDL
MODEL 6
REMARK VINA RESULT:      -3.7     10.556     12.647
REMARK  2 active torsions:
REMARK  status: ('A' for Active; 'I' for Inactive)
REMARK    1  A    between atoms: C_2  and  C_3 
REMARK    2  A    between atoms: C_3  and  C_5 
ROOT
HETATM    1  C   UNK N   1      36.213  14.404  13.522  0.00  0.00     0.054 A 
HETATM    2  N   UNK N   1      36.466  15.478  12.734  0.00  0.00    -0.363 N 
ATOM      3  HN  UNK N   1      37.004  16.290  13.036  1.00  0.00     0.165 HD
HETATM    4  C   UNK N   1      35.912  15.349  11.478  0.00  0.00     0.095 A 
HETATM    5  C   UNK N   1      35.202  14.153  11.250  0.00  0.00     0.068 A 
HETATM    6  S   UNK N   1      35.316  13.312  12.672  0.00  0.00    -0.087 SA
ENDROOT
BRANCH   1   7
HETATM    7  C   UNK N   1      36.680  14.249  14.934  0.00  0.00     0.038 C 
HETATM    8  C   UNK N   1      37.343  15.427  15.639  0.00  0.00     0.017 C 
BRANCH   7   9
HETATM    9  C   UNK N   1      36.467  12.900  15.623  0.00  0.00     0.006 C 
HETATM   10  C   UNK N   1      35.123  12.778  16.313  0.00  0.00     0.006 C 
ENDBRANCH   7   9
ENDBRANCH   1   7
TORSDOF 2
ENDMDL
MODEL 7
REMARK VINA RESULT:      -3.7     12.487     14.408
REMARK  2 active torsions:
REMARK  status: ('A' for Active; 'I' for Inactive)
REMARK    1  A    between atoms: C_2  and  C_3 
REMARK    2  A    between atoms: C_3  and  C_5 
ROOT
HETATM    1  C   UNK N   1      35.294  12.799  15.892  0.00  0.00     0.054 A 
HETATM    2  N   UNK N   1      34.451  12.048  15.141  0.00  0.00    -0.363 N 
ATOM      3  HN  UNK N   1      33.728  11.444  15.532  1.00  0.00     0.165 HD
HETATM    4  C   UNK N   1      34.682  12.193  13.790  0.00  0.00     0.095 A 
HETATM    5  C   UNK N   1      35.726  13.075  13.446  0.00  0.00     0.068 A 
HETATM    6  S   UNK N   1      36.309  13.630  14.893  0.00  0.00    -0.087 SA
ENDROOT
BRANCH   1   7
HETATM    7  C   UNK N   1      35.290  12.855  17.386  0.00  0.00     0.038 C 
HETATM    8  C   UNK N   1      35.282  14.209  18.087  0.00  0.00     0.017 C 
BRANCH   7   9
HETATM    9  C   UNK N   1      35.289  11.536  18.160  0.00  0.00     0.006 C 
HETATM   10  C   UNK N   1      35.396  11.715  19.662  0.00  0.00     0.006 C 
ENDBRANCH   7   9
ENDBRANCH   1   7
TORSDOF 2
ENDMDL
MODEL 8
REMARK VINA RESULT:      -3.7      4.111      5.472
REMARK  2 active torsions:
REMARK  status: ('A' for Active; 'I' for Inactive)
REMARK    1  A    between atoms: C_2  and  C_3 
REMARK    2  A    between atoms: C_3  and  C_5 
ROOT
HETATM    1  C   UNK N   1      32.163  17.310   8.505  0.00  0.00     0.054 A 
HETATM    2  N   UNK N   1      32.569  16.254   9.254  0.00  0.00    -0.363 N 
ATOM      3  HN  UNK N   1      31.931  15.593   9.695  1.00  0.00     0.165 HD
HETATM    4  C   UNK N   1      33.942  16.177   9.350  0.00  0.00     0.095 A 
HETATM    5  C   UNK N   1      34.654  17.185   8.669  0.00  0.00     0.068 A 
HETATM    6  S   UNK N   1      33.489  18.133   7.973  0.00  0.00    -0.087 SA
ENDROOT
BRANCH   1   7
HETATM    7  C   UNK N   1      30.738  17.659   8.217  0.00  0.00     0.038 C 
HETATM    8  C   UNK N   1      30.084  17.149   6.938  0.00  0.00     0.017 C 
BRANCH   7   9
HETATM    9  C   UNK N   1      29.984  18.518   9.233  0.00  0.00     0.006 C 
HETATM   10  C   UNK N   1      28.490  18.258   9.256  0.00  0.00     0.006 C 
ENDBRANCH   7   9
ENDBRANCH   1   7
TORSDOF 2
ENDMDL
MODEL 9
REMARK VINA RESULT:      -3.7      3.535      4.729
REMARK  2 active torsions:
REMARK  status: ('A' for Active; 'I' for Inactive)
REMARK    1  A    between atoms: C_2  and  C_3 
REMARK    2  A    between atoms: C_3  and  C_5 
ROOT
HETATM    1  C   UNK N   1      30.865  17.710   8.126  0.00  0.00     0.054 A 
HETATM    2  N   UNK N   1      30.684  18.184   9.384  0.00  0.00    -0.363 N 
ATOM      3  HN  UNK N   1      31.447  18.470   9.998  1.00  0.00     0.165 HD
HETATM    4  C   UNK N   1      29.353  18.236   9.738  0.00  0.00     0.095 A 
HETATM    5  C   UNK N   1      28.447  17.798   8.752  0.00  0.00     0.068 A 
HETATM    6  S   UNK N   1      29.395  17.362   7.467  0.00  0.00    -0.087 SA
ENDROOT
BRANCH   1   7
HETATM    7  C   UNK N   1      32.192  17.538   7.459  0.00  0.00     0.038 C 
HETATM    8  C   UNK N   1      33.450  18.065   8.141  0.00  0.00     0.017 C 
BRANCH   7   9
HETATM    9  C   UNK N   1      32.235  16.827   6.106  0.00  0.00     0.006 C 
HETATM   10  C   UNK N   1      33.180  17.473   5.111  0.00  0.00     0.006 C 
ENDBRANCH   7   9
ENDBRANCH   1   7
TORSDOF 2
ENDMDL
