MODEL 1
REMARK VINA RESULT:      -9.0      0.000      0.000
REMARK  13 active torsions:
REMARK  status: ('A' for Active; 'I' for Inactive)
REMARK    1  A    between atoms: C_18  and  C_13 
REMARK    2  A    between atoms: N_31  and  C_13 
REMARK    3  A    between atoms: C_23  and  C_14 
REMARK    4  A    between atoms: O_41  and  C_14 
REMARK    5  A    between atoms: C_29  and  C_19 
REMARK    6  A    between atoms: O_44  and  C_20 
REMARK    7  A    between atoms: O_45  and  C_21 
REMARK    8  A    between atoms: C_24  and  N_38 
REMARK    9  A    between atoms: C_26  and  O_42 
REMARK   10  A    between atoms: N_31  and  C_27 
REMARK   11  A    between atoms: N_38  and  C_29 
REMARK   12  A    between atoms: C_29  and  O_43 
REMARK   13  A    between atoms: C_30  and  N_40 
ROOT
HETATM    1  C   UNK N   1      20.342  19.801   3.183  0.00  0.00     0.178 C 
HETATM    2  C   UNK N   1      21.007  17.549   3.292  0.00  0.00     0.164 C 
HETATM    3  C   UNK N   1      19.761  18.363   3.056  0.00  0.00     0.176 C 
HETATM    4  C   UNK N   1      21.540  18.394   4.434  0.00  0.00     0.256 C 
HETATM    5  O   UNK N   1      21.496  19.728   4.006  0.00  0.00    -0.354 OA
ENDROOT
BRANCH   4   6
HETATM    6  N   UNK N   1      22.860  17.955   4.857  0.00  0.00    -0.298 N 
HETATM    7  C   UNK N   1      23.228  16.908   5.637  0.00  0.00     0.188 A 
HETATM    8  N   UNK N   1      24.587  16.792   5.690  0.00  0.00    -0.346 N 
HETATM    9  C   UNK N   1      25.037  17.788   4.896  0.00  0.00     0.122 A 
ATOM     10  HN  UNK N   1      25.137  16.108   6.210  1.00  0.00     0.167 HD
HETATM   11  C   UNK N   1      26.319  18.088   4.480  0.00  0.00     0.133 A 
HETATM   12  C   UNK N   1      24.002  18.479   4.410  0.00  0.00     0.142 A 
HETATM   13  N   UNK N   1      26.489  19.108   3.585  0.00  0.00    -0.337 N 
HETATM   14  C   UNK N   1      25.414  19.823   3.125  0.00  0.00     0.183 A 
ATOM     15  HN  UNK N   1      27.426  19.340   3.256  1.00  0.00     0.168 HD
HETATM   16  N   UNK N   1      24.152  19.499   3.527  0.00  0.00    -0.336 N 
ATOM     17  HN  UNK N   1      23.341  20.008   3.174  1.00  0.00     0.168 HD
BRANCH  11  18
HETATM   18  N   UNK N   1      27.398  17.276   4.854  0.00  0.00    -0.370 N 
HETATM   19  H   UNK N   1      27.245  16.434   5.341  0.00  0.00     0.161 HD
BRANCH  18  20
HETATM   20  C   UNK N   1      28.731  17.691   4.517  0.00  0.00     0.160 C 
BRANCH  20  21
HETATM   21  C   UNK N   1      29.578  17.570   5.739  0.00  0.00    -0.029 A 
HETATM   22  C   UNK N   1      28.922  17.509   6.968  0.00  0.00     0.010 A 
HETATM   23  C   UNK N   1      29.640  17.330   8.149  0.00  0.00     0.002 A 
HETATM   24  C   UNK N   1      31.028  17.191   8.113  0.00  0.00     0.012 A 
HETATM   25  C   UNK N   1      31.709  17.253   6.898  0.00  0.00    -0.025 A 
HETATM   26  C   UNK N   1      33.099  17.101   6.875  0.00  0.00     0.012 A 
HETATM   27  C   UNK N   1      30.992  17.456   5.692  0.00  0.00    -0.018 A 
HETATM   28  C   UNK N   1      33.791  17.157   5.663  0.00  0.00     0.001 A 
HETATM   29  C   UNK N   1      33.096  17.374   4.470  0.00  0.00     0.001 A 
HETATM   30  C   UNK N   1      31.704  17.521   4.484  0.00  0.00     0.013 A 
ENDBRANCH  20  21
ENDBRANCH  18  20
ENDBRANCH  11  18
ENDBRANCH   4   6
BRANCH   2  31
HETATM   31  N   UNK N   1      20.890  16.184   3.775  0.00  0.00    -0.359 N 
ATOM     32  HN  UNK N   1      21.716  15.607   3.619  1.00  0.00     0.162 HD
BRANCH  31  33
HETATM   33  C   UNK N   1      19.919  15.579   4.367  0.00  0.00     0.146 C 
BRANCH  33  34
HETATM   34  C   UNK N   1      20.052  15.323   5.827  0.00  0.00     0.020 A 
HETATM   35  C   UNK N   1      19.695  16.340   6.725  0.00  0.00     0.052 A 
HETATM   36  C   UNK N   1      19.795  16.167   8.104  0.00  0.00     0.071 A 
HETATM   37  C   UNK N   1      20.255  14.943   8.606  0.00  0.00     0.073 A 
HETATM   38  C   UNK N   1      20.621  13.910   7.736  0.00  0.00     0.071 A 
HETATM   39  C   UNK N   1      20.527  14.106   6.337  0.00  0.00     0.052 A 
BRANCH  36  40
HETATM   40  O   UNK N   1      19.442  17.189   8.920  0.00  0.00    -0.356 OA
HETATM   41  C   UNK N   1      18.149  17.422   9.331  0.00  0.00     0.210 C 
ENDBRANCH  36  40
BRANCH  38  42
HETATM   42  O   UNK N   1      21.053  12.744   8.267  0.00  0.00    -0.356 OA
HETATM   43  C   UNK N   1      21.904  12.672   9.345  0.00  0.00     0.210 C 
ENDBRANCH  38  42
ENDBRANCH  33  34
BRANCH  33  44
HETATM   44  O   UNK N   1      18.818  15.196   3.690  0.00  0.00    -0.346 OA
HETATM   45  H   UNK N   1      18.866  14.603   2.966  0.00  0.00     0.219 HD
ENDBRANCH  33  44
ENDBRANCH  31  33
ENDBRANCH   2  31
BRANCH   3  46
HETATM   46  O   UNK N   1      19.148  18.108   1.826  0.00  0.00    -0.391 OA
HETATM   47  H   UNK N   1      18.222  17.882   1.643  0.00  0.00     0.210 HD
ENDBRANCH   3  46
BRANCH   1  48
HETATM   48  C   UNK N   1      20.773  20.421   1.858  0.00  0.00     0.198 C 
BRANCH  48  49
HETATM   49  O   UNK N   1      22.074  20.919   1.962  0.00  0.00    -0.398 OA
HETATM   50  H   UNK N   1      22.724  20.743   1.263  0.00  0.00     0.209 HD
ENDBRANCH  48  49
ENDBRANCH   1  48
TORSDOF 13
ENDMDL
MODEL 2
REMARK VINA RESULT:      -9.0      1.146      1.908
REMARK  13 active torsions:
REMARK  status: ('A' for Active; 'I' for Inactive)
REMARK    1  A    between atoms: C_18  and  C_13 
REMARK    2  A    between atoms: N_31  and  C_13 
REMARK    3  A    between atoms: C_23  and  C_14 
REMARK    4  A    between atoms: O_41  and  C_14 
REMARK    5  A    between atoms: C_29  and  C_19 
REMARK    6  A    between atoms: O_44  and  C_20 
REMARK    7  A    between atoms: O_45  and  C_21 
REMARK    8  A    between atoms: C_24  and  N_38 
REMARK    9  A    between atoms: C_26  and  O_42 
REMARK   10  A    between atoms: N_31  and  C_27 
REMARK   11  A    between atoms: N_38  and  C_29 
REMARK   12  A    between atoms: C_29  and  O_43 
REMARK   13  A    between atoms: C_30  and  N_40 
ROOT
HETATM    1  C   UNK N   1      21.171  20.172   2.697  0.00  0.00     0.178 C 
HETATM    2  C   UNK N   1      21.509  17.889   3.143  0.00  0.00     0.164 C 
HETATM    3  C   UNK N   1      20.393  18.902   3.148  0.00  0.00     0.176 C 
HETATM    4  C   UNK N   1      22.551  18.791   3.777  0.00  0.00     0.256 C 
HETATM    5  O   UNK N   1      22.531  19.998   3.065  0.00  0.00    -0.354 OA
ENDROOT
BRANCH   4   6
HETATM    6  N   UNK N   1      23.859  18.156   3.820  0.00  0.00    -0.298 N 
HETATM    7  C   UNK N   1      24.234  16.897   3.480  0.00  0.00     0.188 A 
HETATM    8  N   UNK N   1      25.588  16.751   3.567  0.00  0.00    -0.346 N 
HETATM    9  C   UNK N   1      26.030  17.969   3.947  0.00  0.00     0.122 A 
ATOM     10  HN  UNK N   1      26.140  15.913   3.386  1.00  0.00     0.167 HD
HETATM   11  C   UNK N   1      27.319  18.449   4.084  0.00  0.00     0.133 A 
HETATM   12  C   UNK N   1      24.994  18.797   4.102  0.00  0.00     0.142 A 
HETATM   13  N   UNK N   1      27.489  19.771   4.393  0.00  0.00    -0.337 N 
HETATM   14  C   UNK N   1      26.409  20.593   4.578  0.00  0.00     0.183 A 
ATOM     15  HN  UNK N   1      28.432  20.149   4.488  1.00  0.00     0.168 HD
HETATM   16  N   UNK N   1      25.143  20.109   4.416  0.00  0.00    -0.336 N 
ATOM     17  HN  UNK N   1      24.331  20.717   4.528  1.00  0.00     0.168 HD
BRANCH  11  18
HETATM   18  N   UNK N   1      28.418  17.639   3.772  0.00  0.00    -0.370 N 
HETATM   19  H   UNK N   1      28.802  17.646   2.865  0.00  0.00     0.161 HD
BRANCH  18  20
HETATM   20  C   UNK N   1      28.975  16.798   4.794  0.00  0.00     0.160 C 
BRANCH  20  21
HETATM   21  C   UNK N   1      30.461  16.924   4.739  0.00  0.00    -0.029 A 
HETATM   22  C   UNK N   1      31.065  16.827   3.486  0.00  0.00     0.010 A 
HETATM   23  C   UNK N   1      32.441  17.000   3.344  0.00  0.00     0.002 A 
HETATM   24  C   UNK N   1      33.230  17.291   4.457  0.00  0.00     0.012 A 
HETATM   25  C   UNK N   1      32.652  17.388   5.723  0.00  0.00    -0.025 A 
HETATM   26  C   UNK N   1      33.453  17.691   6.828  0.00  0.00     0.012 A 
HETATM   27  C   UNK N   1      31.258  17.194   5.883  0.00  0.00    -0.018 A 
HETATM   28  C   UNK N   1      32.884  17.797   8.100  0.00  0.00     0.001 A 
HETATM   29  C   UNK N   1      31.513  17.591   8.271  0.00  0.00     0.001 A 
HETATM   30  C   UNK N   1      30.704  17.292   7.169  0.00  0.00     0.013 A 
ENDBRANCH  20  21
ENDBRANCH  18  20
ENDBRANCH  11  18
ENDBRANCH   4   6
BRANCH   2  31
HETATM   31  N   UNK N   1      21.400  16.698   3.968  0.00  0.00    -0.359 N 
ATOM     32  HN  UNK N   1      22.287  16.230   4.155  1.00  0.00     0.162 HD
BRANCH  31  33
HETATM   33  C   UNK N   1      20.373  16.134   4.503  0.00  0.00     0.146 C 
BRANCH  33  34
HETATM   34  C   UNK N   1      20.438  15.814   5.955  0.00  0.00     0.020 A 
HETATM   35  C   UNK N   1      20.365  16.865   6.882  0.00  0.00     0.052 A 
HETATM   36  C   UNK N   1      20.420  16.637   8.255  0.00  0.00     0.071 A 
HETATM   37  C   UNK N   1      20.543  15.322   8.722  0.00  0.00     0.073 A 
HETATM   38  C   UNK N   1      20.622  14.252   7.823  0.00  0.00     0.071 A 
HETATM   39  C   UNK N   1      20.578  14.502   6.431  0.00  0.00     0.052 A 
BRANCH  36  40
HETATM   40  O   UNK N   1      20.351  17.694   9.098  0.00  0.00    -0.356 OA
HETATM   41  C   UNK N   1      19.170  18.298   9.466  0.00  0.00     0.210 C 
ENDBRANCH  36  40
BRANCH  38  42
HETATM   42  O   UNK N   1      20.733  13.000   8.322  0.00  0.00    -0.356 OA
HETATM   43  C   UNK N   1      21.442  12.698   9.460  0.00  0.00     0.210 C 
ENDBRANCH  38  42
ENDBRANCH  33  34
BRANCH  33  44
HETATM   44  O   UNK N   1      19.275  15.849   3.776  0.00  0.00    -0.346 OA
HETATM   45  H   UNK N   1      18.937  14.977   3.715  0.00  0.00     0.219 HD
ENDBRANCH  33  44
ENDBRANCH  31  33
ENDBRANCH   2  31
BRANCH   3  46
HETATM   46  O   UNK N   1      19.326  18.566   2.311  0.00  0.00    -0.391 OA
HETATM   47  H   UNK N   1      19.118  18.903   1.425  0.00  0.00     0.210 HD
ENDBRANCH   3  46
BRANCH   1  48
HETATM   48  C   UNK N   1      21.140  20.423   1.193  0.00  0.00     0.198 C 
BRANCH  48  49
HETATM   49  O   UNK N   1      19.977  21.113   0.844  0.00  0.00    -0.398 OA
HETATM   50  H   UNK N   1      19.105  20.722   1.013  0.00  0.00     0.209 HD
ENDBRANCH  48  49
ENDBRANCH   1  48
TORSDOF 13
ENDMDL
MODEL 3
REMARK VINA RESULT:      -9.0      0.238      1.849
REMARK  13 active torsions:
REMARK  status: ('A' for Active; 'I' for Inactive)
REMARK    1  A    between atoms: C_18  and  C_13 
REMARK    2  A    between atoms: N_31  and  C_13 
REMARK    3  A    between atoms: C_23  and  C_14 
REMARK    4  A    between atoms: O_41  and  C_14 
REMARK    5  A    between atoms: C_29  and  C_19 
REMARK    6  A    between atoms: O_44  and  C_20 
REMARK    7  A    between atoms: O_45  and  C_21 
REMARK    8  A    between atoms: C_24  and  N_38 
REMARK    9  A    between atoms: C_26  and  O_42 
REMARK   10  A    between atoms: N_31  and  C_27 
REMARK   11  A    between atoms: N_38  and  C_29 
REMARK   12  A    between atoms: C_29  and  O_43 
REMARK   13  A    between atoms: C_30  and  N_40 
ROOT
HETATM    1  C   UNK N   1      20.317  19.770   3.003  0.00  0.00     0.178 C 
HETATM    2  C   UNK N   1      20.997  17.529   3.209  0.00  0.00     0.164 C 
HETATM    3  C   UNK N   1      19.749  18.323   2.924  0.00  0.00     0.176 C 
HETATM    4  C   UNK N   1      21.508  18.422   4.323  0.00  0.00     0.256 C 
HETATM    5  O   UNK N   1      21.461  19.738   3.843  0.00  0.00    -0.354 OA
ENDROOT
BRANCH   4   6
HETATM    6  N   UNK N   1      22.827  18.011   4.781  0.00  0.00    -0.298 N 
HETATM    7  C   UNK N   1      23.193  16.986   5.591  0.00  0.00     0.188 A 
HETATM    8  N   UNK N   1      24.552  16.889   5.671  0.00  0.00    -0.346 N 
HETATM    9  C   UNK N   1      25.004  17.873   4.863  0.00  0.00     0.122 A 
ATOM     10  HN  UNK N   1      25.101  16.225   6.216  1.00  0.00     0.167 HD
HETATM   11  C   UNK N   1      26.290  18.181   4.465  0.00  0.00     0.133 A 
HETATM   12  C   UNK N   1      23.970  18.539   4.343  0.00  0.00     0.142 A 
HETATM   13  N   UNK N   1      26.463  19.184   3.550  0.00  0.00    -0.337 N 
HETATM   14  C   UNK N   1      25.388  19.874   3.054  0.00  0.00     0.183 A 
ATOM     15  HN  UNK N   1      27.403  19.420   3.233  1.00  0.00     0.168 HD
HETATM   16  N   UNK N   1      24.123  19.541   3.440  0.00  0.00    -0.336 N 
ATOM     17  HN  UNK N   1      23.313  20.032   3.061  1.00  0.00     0.168 HD
BRANCH  11  18
HETATM   18  N   UNK N   1      27.372  17.393   4.876  0.00  0.00    -0.370 N 
HETATM   19  H   UNK N   1      27.221  16.565   5.389  0.00  0.00     0.161 HD
BRANCH  18  20
HETATM   20  C   UNK N   1      28.704  17.809   4.540  0.00  0.00     0.160 C 
BRANCH  20  21
HETATM   21  C   UNK N   1      29.567  17.619   5.743  0.00  0.00    -0.029 A 
HETATM   22  C   UNK N   1      28.930  17.544   6.981  0.00  0.00     0.010 A 
HETATM   23  C   UNK N   1      29.661  17.302   8.143  0.00  0.00     0.002 A 
HETATM   24  C   UNK N   1      31.042  17.115   8.078  0.00  0.00     0.012 A 
HETATM   25  C   UNK N   1      31.705  17.191   6.853  0.00  0.00    -0.025 A 
HETATM   26  C   UNK N   1      33.087  16.991   6.801  0.00  0.00     0.012 A 
HETATM   27  C   UNK N   1      30.975  17.457   5.668  0.00  0.00    -0.018 A 
HETATM   28  C   UNK N   1      33.761  17.060   5.578  0.00  0.00     0.001 A 
HETATM   29  C   UNK N   1      33.054  17.338   4.406  0.00  0.00     0.001 A 
HETATM   30  C   UNK N   1      31.669  17.534   4.449  0.00  0.00     0.013 A 
ENDBRANCH  20  21
ENDBRANCH  18  20
ENDBRANCH  11  18
ENDBRANCH   4   6
BRANCH   2  31
HETATM   31  N   UNK N   1      20.884  16.183   3.744  0.00  0.00    -0.359 N 
ATOM     32  HN  UNK N   1      21.717  15.608   3.623  1.00  0.00     0.162 HD
BRANCH  31  33
HETATM   33  C   UNK N   1      19.908  15.593   4.343  0.00  0.00     0.146 C 
BRANCH  33  34
HETATM   34  C   UNK N   1      20.004  15.427   5.820  0.00  0.00     0.020 A 
HETATM   35  C   UNK N   1      20.496  14.218   6.332  0.00  0.00     0.052 A 
HETATM   36  C   UNK N   1      20.611  13.996   7.703  0.00  0.00     0.071 A 
HETATM   37  C   UNK N   1      20.233  15.011   8.591  0.00  0.00     0.073 A 
HETATM   38  C   UNK N   1      19.737  16.228   8.111  0.00  0.00     0.071 A 
HETATM   39  C   UNK N   1      19.613  16.433   6.716  0.00  0.00     0.052 A 
BRANCH  36  40
HETATM   40  O   UNK N   1      21.087  12.804   8.136  0.00  0.00    -0.356 OA
HETATM   41  C   UNK N   1      21.543  12.588   9.416  0.00  0.00     0.210 C 
ENDBRANCH  36  40
BRANCH  38  42
HETATM   42  O   UNK N   1      19.392  17.181   9.007  0.00  0.00    -0.356 OA
HETATM   43  C   UNK N   1      18.092  17.454   9.359  0.00  0.00     0.210 C 
ENDBRANCH  38  42
ENDBRANCH  33  34
BRANCH  33  44
HETATM   44  O   UNK N   1      18.835  15.148   3.661  0.00  0.00    -0.346 OA
HETATM   45  H   UNK N   1      18.004  15.577   3.714  0.00  0.00     0.219 HD
ENDBRANCH  33  44
ENDBRANCH  31  33
ENDBRANCH   2  31
BRANCH   3  46
HETATM   46  O   UNK N   1      19.154  18.016   1.698  0.00  0.00    -0.391 OA
HETATM   47  H   UNK N   1      19.367  17.298   1.080  0.00  0.00     0.210 HD
ENDBRANCH   3  46
BRANCH   1  48
HETATM   48  C   UNK N   1      20.762  20.340   1.659  0.00  0.00     0.198 C 
BRANCH  48  49
HETATM   49  O   UNK N   1      21.014  21.709   1.779  0.00  0.00    -0.398 OA
HETATM   50  H   UNK N   1      20.704  22.199   2.557  0.00  0.00     0.209 HD
ENDBRANCH  48  49
ENDBRANCH   1  48
TORSDOF 13
ENDMDL
MODEL 4
REMARK VINA RESULT:      -8.9      0.916      1.954
REMARK  13 active torsions:
REMARK  status: ('A' for Active; 'I' for Inactive)
REMARK    1  A    between atoms: C_18  and  C_13 
REMARK    2  A    between atoms: N_31  and  C_13 
REMARK    3  A    between atoms: C_23  and  C_14 
REMARK    4  A    between atoms: O_41  and  C_14 
REMARK    5  A    between atoms: C_29  and  C_19 
REMARK    6  A    between atoms: O_44  and  C_20 
REMARK    7  A    between atoms: O_45  and  C_21 
REMARK    8  A    between atoms: C_24  and  N_38 
REMARK    9  A    between atoms: C_26  and  O_42 
REMARK   10  A    between atoms: N_31  and  C_27 
REMARK   11  A    between atoms: N_38  and  C_29 
REMARK   12  A    between atoms: C_29  and  O_43 
REMARK   13  A    between atoms: C_30  and  N_40 
ROOT
HETATM    1  C   UNK N   1      20.013  19.891   3.060  0.00  0.00     0.178 C 
HETATM    2  C   UNK N   1      20.969  17.743   3.059  0.00  0.00     0.164 C 
HETATM    3  C   UNK N   1      19.622  18.395   2.882  0.00  0.00     0.176 C 
HETATM    4  C   UNK N   1      21.415  18.605   4.225  0.00  0.00     0.256 C 
HETATM    5  O   UNK N   1      21.187  19.938   3.856  0.00  0.00    -0.354 OA
ENDROOT
BRANCH   4   6
HETATM    6  N   UNK N   1      22.792  18.327   4.604  0.00  0.00    -0.298 N 
HETATM    7  C   UNK N   1      23.303  17.351   5.395  0.00  0.00     0.188 A 
HETATM    8  N   UNK N   1      24.668  17.386   5.393  0.00  0.00    -0.346 N 
HETATM    9  C   UNK N   1      24.973  18.401   4.555  0.00  0.00     0.122 A 
ATOM     10  HN  UNK N   1      25.310  16.784   5.907  1.00  0.00     0.167 HD
HETATM   11  C   UNK N   1      26.197  18.828   4.078  0.00  0.00     0.133 A 
HETATM   12  C   UNK N   1      23.850  18.959   4.096  0.00  0.00     0.142 A 
HETATM   13  N   UNK N   1      26.217  19.833   3.150  0.00  0.00    -0.337 N 
HETATM   14  C   UNK N   1      25.053  20.411   2.718  0.00  0.00     0.183 A 
ATOM     15  HN  UNK N   1      27.109  20.156   2.776  1.00  0.00     0.168 HD
HETATM   16  N   UNK N   1      23.851  19.962   3.181  0.00  0.00    -0.336 N 
ATOM     17  HN  UNK N   1      22.976  20.369   2.849  1.00  0.00     0.168 HD
BRANCH  11  18
HETATM   18  N   UNK N   1      27.373  18.152   4.427  0.00  0.00    -0.370 N 
HETATM   19  H   UNK N   1      27.414  17.168   4.390  0.00  0.00     0.161 HD
BRANCH  18  20
HETATM   20  C   UNK N   1      28.518  18.914   4.839  0.00  0.00     0.160 C 
BRANCH  20  21
HETATM   21  C   UNK N   1      29.419  18.014   5.618  0.00  0.00    -0.029 A 
HETATM   22  C   UNK N   1      30.411  17.336   4.910  0.00  0.00     0.010 A 
HETATM   23  C   UNK N   1      31.333  16.529   5.575  0.00  0.00     0.002 A 
HETATM   24  C   UNK N   1      31.283  16.403   6.964  0.00  0.00     0.012 A 
HETATM   25  C   UNK N   1      30.297  17.066   7.695  0.00  0.00    -0.025 A 
HETATM   26  C   UNK N   1      30.265  16.940   9.087  0.00  0.00     0.012 A 
HETATM   27  C   UNK N   1      29.342  17.873   7.028  0.00  0.00    -0.018 A 
HETATM   28  C   UNK N   1      29.285  17.603   9.829  0.00  0.00     0.001 A 
HETATM   29  C   UNK N   1      28.328  18.388   9.181  0.00  0.00     0.001 A 
HETATM   30  C   UNK N   1      28.357  18.523   7.788  0.00  0.00     0.013 A 
ENDBRANCH  20  21
ENDBRANCH  18  20
ENDBRANCH  11  18
ENDBRANCH   4   6
BRANCH   2  31
HETATM   31  N   UNK N   1      21.043  16.356   3.486  0.00  0.00    -0.359 N 
ATOM     32  HN  UNK N   1      21.946  15.911   3.321  1.00  0.00     0.162 HD
BRANCH  31  33
HETATM   33  C   UNK N   1      20.162  15.595   4.036  0.00  0.00     0.146 C 
BRANCH  33  34
HETATM   34  C   UNK N   1      20.229  15.417   5.512  0.00  0.00     0.020 A 
HETATM   35  C   UNK N   1      19.511  16.301   6.332  0.00  0.00     0.052 A 
HETATM   36  C   UNK N   1      19.529  16.191   7.720  0.00  0.00     0.071 A 
HETATM   37  C   UNK N   1      20.277  15.166   8.313  0.00  0.00     0.073 A 
HETATM   38  C   UNK N   1      21.005  14.269   7.523  0.00  0.00     0.071 A 
HETATM   39  C   UNK N   1      20.988  14.402   6.114  0.00  0.00     0.052 A 
BRANCH  36  40
HETATM   40  O   UNK N   1      18.821  17.080   8.457  0.00  0.00    -0.356 OA
HETATM   41  C   UNK N   1      19.397  18.107   9.170  0.00  0.00     0.210 C 
ENDBRANCH  36  40
BRANCH  38  42
HETATM   42  O   UNK N   1      21.707  13.291   8.140  0.00  0.00    -0.356 OA
HETATM   43  C   UNK N   1      21.417  12.834   9.404  0.00  0.00     0.210 C 
ENDBRANCH  38  42
ENDBRANCH  33  34
BRANCH  33  44
HETATM   44  O   UNK N   1      19.209  14.985   3.303  0.00  0.00    -0.346 OA
HETATM   45  H   UNK N   1      18.316  14.955   3.584  0.00  0.00     0.219 HD
ENDBRANCH  33  44
ENDBRANCH  31  33
ENDBRANCH   2  31
BRANCH   3  46
HETATM   46  O   UNK N   1      19.017  18.111   1.655  0.00  0.00    -0.391 OA
HETATM   47  H   UNK N   1      18.073  18.108   1.427  0.00  0.00     0.210 HD
ENDBRANCH   3  46
BRANCH   1  48
HETATM   48  C   UNK N   1      20.326  20.615   1.754  0.00  0.00     0.198 C 
BRANCH  48  49
HETATM   49  O   UNK N   1      21.424  21.462   1.926  0.00  0.00    -0.398 OA
HETATM   50  H   UNK N   1      21.350  22.408   1.723  0.00  0.00     0.209 HD
ENDBRANCH  48  49
ENDBRANCH   1  48
TORSDOF 13
ENDMDL
MODEL 5
REMARK VINA RESULT:      -8.8      1.542      2.826
REMARK  13 active torsions:
REMARK  status: ('A' for Active; 'I' for Inactive)
REMARK    1  A    between atoms: C_18  and  C_13 
REMARK    2  A    between atoms: N_31  and  C_13 
REMARK    3  A    between atoms: C_23  and  C_14 
REMARK    4  A    between atoms: O_41  and  C_14 
REMARK    5  A    between atoms: C_29  and  C_19 
REMARK    6  A    between atoms: O_44  and  C_20 
REMARK    7  A    between atoms: O_45  and  C_21 
REMARK    8  A    between atoms: C_24  and  N_38 
REMARK    9  A    between atoms: C_26  and  O_42 
REMARK   10  A    between atoms: N_31  and  C_27 
REMARK   11  A    between atoms: N_38  and  C_29 
REMARK   12  A    between atoms: C_29  and  O_43 
REMARK   13  A    between atoms: C_30  and  N_40 
ROOT
HETATM    1  C   UNK N   1      21.267  20.589   2.444  0.00  0.00     0.178 C 
HETATM    2  C   UNK N   1      21.279  18.430   3.375  0.00  0.00     0.164 C 
HETATM    3  C   UNK N   1      20.342  19.599   3.211  0.00  0.00     0.176 C 
HETATM    4  C   UNK N   1      22.503  19.251   3.732  0.00  0.00     0.256 C 
HETATM    5  O   UNK N   1      22.610  20.262   2.768  0.00  0.00    -0.354 OA
ENDROOT
BRANCH   4   6
HETATM    6  N   UNK N   1      23.693  18.421   3.847  0.00  0.00    -0.298 N 
HETATM    7  C   UNK N   1      23.829  17.073   3.799  0.00  0.00     0.188 A 
HETATM    8  N   UNK N   1      25.145  16.713   3.835  0.00  0.00    -0.346 N 
HETATM    9  C   UNK N   1      25.809  17.888   3.882  0.00  0.00     0.122 A 
ATOM     10  HN  UNK N   1      25.537  15.771   3.829  1.00  0.00     0.167 HD
HETATM   11  C   UNK N   1      27.164  18.150   3.819  0.00  0.00     0.133 A 
HETATM   12  C   UNK N   1      24.937  18.899   3.895  0.00  0.00     0.142 A 
HETATM   13  N   UNK N   1      27.571  19.456   3.789  0.00  0.00    -0.337 N 
HETATM   14  C   UNK N   1      26.658  20.477   3.835  0.00  0.00     0.183 A 
ATOM     15  HN  UNK N   1      28.566  19.673   3.731  1.00  0.00     0.168 HD
HETATM   16  N   UNK N   1      25.322  20.200   3.872  0.00  0.00    -0.336 N 
ATOM     17  HN  UNK N   1      24.631  20.951   3.884  1.00  0.00     0.168 HD
BRANCH  11  18
HETATM   18  N   UNK N   1      28.085  17.109   3.645  0.00  0.00    -0.370 N 
HETATM   19  H   UNK N   1      28.274  16.754   2.747  0.00  0.00     0.161 HD
BRANCH  18  20
HETATM   20  C   UNK N   1      28.749  16.568   4.798  0.00  0.00     0.160 C 
BRANCH  20  21
HETATM   21  C   UNK N   1      30.218  16.755   4.617  0.00  0.00    -0.029 A 
HETATM   22  C   UNK N   1      30.718  16.667   3.319  0.00  0.00     0.010 A 
HETATM   23  C   UNK N   1      32.069  16.895   3.060  0.00  0.00     0.002 A 
HETATM   24  C   UNK N   1      32.936  17.232   4.100  0.00  0.00     0.012 A 
HETATM   25  C   UNK N   1      32.462  17.321   5.409  0.00  0.00    -0.025 A 
HETATM   26  C   UNK N   1      33.339  17.670   6.440  0.00  0.00     0.012 A 
HETATM   27  C   UNK N   1      31.096  17.071   5.687  0.00  0.00    -0.018 A 
HETATM   28  C   UNK N   1      32.875  17.767   7.755  0.00  0.00     0.001 A 
HETATM   29  C   UNK N   1      31.533  17.507   8.043  0.00  0.00     0.001 A 
HETATM   30  C   UNK N   1      30.647  17.162   7.015  0.00  0.00     0.013 A 
ENDBRANCH  20  21
ENDBRANCH  18  20
ENDBRANCH  11  18
ENDBRANCH   4   6
BRANCH   2  31
HETATM   31  N   UNK N   1      21.058  17.481   4.452  0.00  0.00    -0.359 N 
ATOM     32  HN  UNK N   1      21.718  17.558   5.226  1.00  0.00     0.162 HD
BRANCH  31  33
HETATM   33  C   UNK N   1      20.171  16.558   4.595  0.00  0.00     0.146 C 
BRANCH  33  34
HETATM   34  C   UNK N   1      20.574  15.316   5.310  0.00  0.00     0.020 A 
HETATM   35  C   UNK N   1      21.339  14.361   4.625  0.00  0.00     0.052 A 
HETATM   36  C   UNK N   1      21.750  13.178   5.233  0.00  0.00     0.071 A 
HETATM   37  C   UNK N   1      21.396  12.940   6.568  0.00  0.00     0.073 A 
HETATM   38  C   UNK N   1      20.632  13.872   7.278  0.00  0.00     0.071 A 
HETATM   39  C   UNK N   1      20.210  15.063   6.641  0.00  0.00     0.052 A 
BRANCH  36  40
HETATM   40  O   UNK N   1      22.481  12.291   4.516  0.00  0.00    -0.356 OA
HETATM   41  C   UNK N   1      22.053  11.733   3.334  0.00  0.00     0.210 C 
ENDBRANCH  36  40
BRANCH  38  42
HETATM   42  O   UNK N   1      20.321  13.601   8.566  0.00  0.00    -0.356 OA
HETATM   43  C   UNK N   1      20.865  14.274   9.634  0.00  0.00     0.210 C 
ENDBRANCH  38  42
ENDBRANCH  33  34
BRANCH  33  44
HETATM   44  O   UNK N   1      18.919  16.713   4.120  0.00  0.00    -0.346 OA
HETATM   45  H   UNK N   1      18.264  16.052   4.232  0.00  0.00     0.219 HD
ENDBRANCH  33  44
ENDBRANCH  31  33
ENDBRANCH   2  31
BRANCH   3  46
HETATM   46  O   UNK N   1      19.164  19.284   2.530  0.00  0.00    -0.391 OA
HETATM   47  H   UNK N   1      18.315  18.979   2.890  0.00  0.00     0.210 HD
ENDBRANCH   3  46
BRANCH   1  48
HETATM   48  C   UNK N   1      21.140  20.514   0.926  0.00  0.00     0.198 C 
BRANCH  48  49
HETATM   49  O   UNK N   1      20.099  21.338   0.490  0.00  0.00    -0.398 OA
HETATM   50  H   UNK N   1      19.182  21.022   0.510  0.00  0.00     0.209 HD
ENDBRANCH  48  49
ENDBRANCH   1  48
TORSDOF 13
ENDMDL
MODEL 6
REMARK VINA RESULT:      -8.8      2.703      4.063
REMARK  13 active torsions:
REMARK  status: ('A' for Active; 'I' for Inactive)
REMARK    1  A    between atoms: C_18  and  C_13 
REMARK    2  A    between atoms: N_31  and  C_13 
REMARK    3  A    between atoms: C_23  and  C_14 
REMARK    4  A    between atoms: O_41  and  C_14 
REMARK    5  A    between atoms: C_29  and  C_19 
REMARK    6  A    between atoms: O_44  and  C_20 
REMARK    7  A    between atoms: O_45  and  C_21 
REMARK    8  A    between atoms: C_24  and  N_38 
REMARK    9  A    between atoms: C_26  and  O_42 
REMARK   10  A    between atoms: N_31  and  C_27 
REMARK   11  A    between atoms: N_38  and  C_29 
REMARK   12  A    between atoms: C_29  and  O_43 
REMARK   13  A    between atoms: C_30  and  N_40 
ROOT
HETATM    1  C   UNK N   1      20.339  20.000   3.318  0.00  0.00     0.178 C 
HETATM    2  C   UNK N   1      21.166  17.819   3.020  0.00  0.00     0.164 C 
HETATM    3  C   UNK N   1      19.889  18.594   2.824  0.00  0.00     0.176 C 
HETATM    4  C   UNK N   1      21.517  18.422   4.367  0.00  0.00     0.256 C 
HETATM    5  O   UNK N   1      21.411  19.813   4.230  0.00  0.00    -0.354 OA
ENDROOT
BRANCH   4   6
HETATM    6  N   UNK N   1      22.821  17.976   4.833  0.00  0.00    -0.298 N 
HETATM    7  C   UNK N   1      23.161  16.903   5.591  0.00  0.00     0.188 A 
HETATM    8  N   UNK N   1      24.518  16.793   5.699  0.00  0.00    -0.346 N 
HETATM    9  C   UNK N   1      24.995  17.819   4.963  0.00  0.00     0.122 A 
ATOM     10  HN  UNK N   1      25.049  16.094   6.218  1.00  0.00     0.167 HD
HETATM   11  C   UNK N   1      26.292  18.142   4.616  0.00  0.00     0.133 A 
HETATM   12  C   UNK N   1      23.978  18.522   4.457  0.00  0.00     0.142 A 
HETATM   13  N   UNK N   1      26.494  19.195   3.766  0.00  0.00    -0.337 N 
HETATM   14  C   UNK N   1      25.436  19.921   3.285  0.00  0.00     0.183 A 
ATOM     15  HN  UNK N   1      27.443  19.444   3.488  1.00  0.00     0.168 HD
HETATM   16  N   UNK N   1      24.159  19.574   3.618  0.00  0.00    -0.336 N 
ATOM     17  HN  UNK N   1      23.361  20.092   3.248  1.00  0.00     0.168 HD
BRANCH  11  18
HETATM   18  N   UNK N   1      27.359  17.324   5.008  0.00  0.00    -0.370 N 
HETATM   19  H   UNK N   1      27.197  16.514   5.544  0.00  0.00     0.161 HD
BRANCH  18  20
HETATM   20  C   UNK N   1      28.693  17.683   4.615  0.00  0.00     0.160 C 
BRANCH  20  21
HETATM   21  C   UNK N   1      29.578  17.556   5.810  0.00  0.00    -0.029 A 
HETATM   22  C   UNK N   1      28.961  17.495   7.059  0.00  0.00     0.010 A 
HETATM   23  C   UNK N   1      29.716  17.310   8.216  0.00  0.00     0.002 A 
HETATM   24  C   UNK N   1      31.102  17.165   8.136  0.00  0.00     0.012 A 
HETATM   25  C   UNK N   1      31.744  17.228   6.899  0.00  0.00    -0.025 A 
HETATM   26  C   UNK N   1      33.132  17.071   6.832  0.00  0.00     0.012 A 
HETATM   27  C   UNK N   1      30.990  17.436   5.718  0.00  0.00    -0.018 A 
HETATM   28  C   UNK N   1      33.785  17.127   5.598  0.00  0.00     0.001 A 
HETATM   29  C   UNK N   1      33.054  17.348   4.429  0.00  0.00     0.001 A 
HETATM   30  C   UNK N   1      31.663  17.501   4.488  0.00  0.00     0.013 A 
ENDBRANCH  20  21
ENDBRANCH  18  20
ENDBRANCH  11  18
ENDBRANCH   4   6
BRANCH   2  31
HETATM   31  N   UNK N   1      21.111  16.377   3.187  0.00  0.00    -0.359 N 
ATOM     32  HN  UNK N   1      21.260  16.055   4.143  1.00  0.00     0.162 HD
BRANCH  31  33
HETATM   33  C   UNK N   1      20.907  15.437   2.331  0.00  0.00     0.146 C 
BRANCH  33  34
HETATM   34  C   UNK N   1      22.090  14.674   1.846  0.00  0.00     0.020 A 
HETATM   35  C   UNK N   1      23.344  14.940   2.416  0.00  0.00     0.052 A 
HETATM   36  C   UNK N   1      24.492  14.264   2.009  0.00  0.00     0.071 A 
HETATM   37  C   UNK N   1      24.389  13.287   1.010  0.00  0.00     0.073 A 
HETATM   38  C   UNK N   1      23.153  13.000   0.421  0.00  0.00     0.071 A 
HETATM   39  C   UNK N   1      21.998  13.706   0.835  0.00  0.00     0.052 A 
BRANCH  36  40
HETATM   40  O   UNK N   1      25.675  14.571   2.593  0.00  0.00    -0.356 OA
HETATM   41  C   UNK N   1      26.559  15.493   2.080  0.00  0.00     0.210 C 
ENDBRANCH  36  40
BRANCH  38  42
HETATM   42  O   UNK N   1      23.102  12.044  -0.534  0.00  0.00    -0.356 OA
HETATM   43  C   UNK N   1      23.298  10.708  -0.279  0.00  0.00     0.210 C 
ENDBRANCH  38  42
ENDBRANCH  33  34
BRANCH  33  44
HETATM   44  O   UNK N   1      19.665  15.147   1.893  0.00  0.00    -0.346 OA
HETATM   45  H   UNK N   1      18.921  15.188   2.461  0.00  0.00     0.219 HD
ENDBRANCH  33  44
ENDBRANCH  31  33
ENDBRANCH   2  31
BRANCH   3  46
HETATM   46  O   UNK N   1      19.420  18.581   1.508  0.00  0.00    -0.391 OA
HETATM   47  H   UNK N   1      19.816  18.978   0.716  0.00  0.00     0.210 HD
ENDBRANCH   3  46
BRANCH   1  48
HETATM   48  C   UNK N   1      20.847  20.918   2.211  0.00  0.00     0.198 C 
BRANCH  48  49
HETATM   49  O   UNK N   1      21.935  21.665   2.668  0.00  0.00    -0.398 OA
HETATM   50  H   UNK N   1      21.981  21.949   3.595  0.00  0.00     0.209 HD
ENDBRANCH  48  49
ENDBRANCH   1  48
TORSDOF 13
ENDMDL
MODEL 7
REMARK VINA RESULT:      -8.6      7.675     11.653
REMARK  13 active torsions:
REMARK  status: ('A' for Active; 'I' for Inactive)
REMARK    1  A    between atoms: C_18  and  C_13 
REMARK    2  A    between atoms: N_31  and  C_13 
REMARK    3  A    between atoms: C_23  and  C_14 
REMARK    4  A    between atoms: O_41  and  C_14 
REMARK    5  A    between atoms: C_29  and  C_19 
REMARK    6  A    between atoms: O_44  and  C_20 
REMARK    7  A    between atoms: O_45  and  C_21 
REMARK    8  A    between atoms: C_24  and  N_38 
REMARK    9  A    between atoms: C_26  and  O_42 
REMARK   10  A    between atoms: N_31  and  C_27 
REMARK   11  A    between atoms: N_38  and  C_29 
REMARK   12  A    between atoms: C_29  and  O_43 
REMARK   13  A    between atoms: C_30  and  N_40 
ROOT
HETATM    1  C   UNK N   1      33.798  16.215   4.842  0.00  0.00     0.178 C 
HETATM    2  C   UNK N   1      32.310  16.557   6.630  0.00  0.00     0.164 C 
HETATM    3  C   UNK N   1      32.755  17.245   5.365  0.00  0.00     0.176 C 
HETATM    4  C   UNK N   1      33.693  16.112   7.068  0.00  0.00     0.256 C 
HETATM    5  O   UNK N   1      34.291  15.494   5.961  0.00  0.00    -0.354 OA
ENDROOT
BRANCH   4   6
HETATM    6  N   UNK N   1      33.637  15.268   8.252  0.00  0.00    -0.298 N 
HETATM    7  C   UNK N   1      33.121  14.024   8.418  0.00  0.00     0.188 A 
HETATM    8  N   UNK N   1      33.383  13.551   9.671  0.00  0.00    -0.346 N 
HETATM    9  C   UNK N   1      34.097  14.537  10.257  0.00  0.00     0.122 A 
ATOM     10  HN  UNK N   1      33.104  12.656  10.074  1.00  0.00     0.167 HD
HETATM   11  C   UNK N   1      34.732  14.572  11.483  0.00  0.00     0.133 A 
HETATM   12  C   UNK N   1      34.238  15.557   9.407  0.00  0.00     0.142 A 
HETATM   13  N   UNK N   1      35.480  15.675  11.795  0.00  0.00    -0.337 N 
HETATM   14  C   UNK N   1      35.583  16.723  10.919  0.00  0.00     0.183 A 
ATOM     15  HN  UNK N   1      35.966  15.717  12.690  1.00  0.00     0.168 HD
HETATM   16  N   UNK N   1      34.969  16.662   9.701  0.00  0.00    -0.336 N 
ATOM     17  HN  UNK N   1      35.057  17.426   9.031  1.00  0.00     0.168 HD
BRANCH  11  18
HETATM   18  N   UNK N   1      34.728  13.450  12.321  0.00  0.00    -0.370 N 
HETATM   19  H   UNK N   1      34.279  12.619  12.040  0.00  0.00     0.161 HD
BRANCH  18  20
HETATM   20  C   UNK N   1      35.387  13.528  13.594  0.00  0.00     0.160 C 
BRANCH  20  21
HETATM   21  C   UNK N   1      35.156  12.243  14.316  0.00  0.00    -0.029 A 
HETATM   22  C   UNK N   1      34.998  11.094  13.541  0.00  0.00     0.010 A 
HETATM   23  C   UNK N   1      34.845   9.846  14.143  0.00  0.00     0.002 A 
HETATM   24  C   UNK N   1      34.865   9.730  15.534  0.00  0.00     0.012 A 
HETATM   25  C   UNK N   1      35.016  10.864  16.332  0.00  0.00    -0.025 A 
HETATM   26  C   UNK N   1      35.046  10.732  17.723  0.00  0.00     0.012 A 
HETATM   27  C   UNK N   1      35.152  12.140  15.732  0.00  0.00    -0.018 A 
HETATM   28  C   UNK N   1      35.202  11.860  18.532  0.00  0.00     0.001 A 
HETATM   29  C   UNK N   1      35.320  13.126  17.952  0.00  0.00     0.001 A 
HETATM   30  C   UNK N   1      35.297  13.265  16.559  0.00  0.00     0.013 A 
ENDBRANCH  20  21
ENDBRANCH  18  20
ENDBRANCH  11  18
ENDBRANCH   4   6
BRANCH   2  31
HETATM   31  N   UNK N   1      31.740  17.342   7.711  0.00  0.00    -0.359 N 
ATOM     32  HN  UNK N   1      32.360  18.060   8.084  1.00  0.00     0.162 HD
BRANCH  31  33
HETATM   33  C   UNK N   1      30.585  17.284   8.277  0.00  0.00     0.146 C 
BRANCH  33  34
HETATM   34  C   UNK N   1      29.401  17.702   7.477  0.00  0.00     0.020 A 
HETATM   35  C   UNK N   1      28.890  16.817   6.515  0.00  0.00     0.052 A 
HETATM   36  C   UNK N   1      27.785  17.145   5.732  0.00  0.00     0.071 A 
HETATM   37  C   UNK N   1      27.164  18.387   5.916  0.00  0.00     0.073 A 
HETATM   38  C   UNK N   1      27.652  19.292   6.866  0.00  0.00     0.071 A 
HETATM   39  C   UNK N   1      28.783  18.950   7.644  0.00  0.00     0.052 A 
BRANCH  36  40
HETATM   40  O   UNK N   1      27.343  16.251   4.815  0.00  0.00    -0.356 OA
HETATM   41  C   UNK N   1      26.056  15.766   4.786  0.00  0.00     0.210 C 
ENDBRANCH  36  40
BRANCH  38  42
HETATM   42  O   UNK N   1      27.014  20.476   7.012  0.00  0.00    -0.356 OA
HETATM   43  C   UNK N   1      27.271  21.576   6.229  0.00  0.00     0.210 C 
ENDBRANCH  38  42
ENDBRANCH  33  34
BRANCH  33  44
HETATM   44  O   UNK N   1      30.449  16.853   9.547  0.00  0.00    -0.346 OA
HETATM   45  H   UNK N   1      29.996  17.358  10.193  0.00  0.00     0.219 HD
ENDBRANCH  33  44
ENDBRANCH  31  33
ENDBRANCH   2  31
BRANCH   3  46
HETATM   46  O   UNK N   1      31.714  17.501   4.469  0.00  0.00    -0.391 OA
HETATM   47  H   UNK N   1      31.184  18.307   4.366  0.00  0.00     0.210 HD
ENDBRANCH   3  46
BRANCH   1  48
HETATM   48  C   UNK N   1      33.229  15.192   3.863  0.00  0.00     0.198 C 
BRANCH  48  49
HETATM   49  O   UNK N   1      33.137  15.749   2.585  0.00  0.00    -0.398 OA
HETATM   50  H   UNK N   1      32.671  16.589   2.449  0.00  0.00     0.209 HD
ENDBRANCH  48  49
ENDBRANCH   1  48
TORSDOF 13
ENDMDL
MODEL 8
REMARK VINA RESULT:      -8.4      9.675     14.312
REMARK  13 active torsions:
REMARK  status: ('A' for Active; 'I' for Inactive)
REMARK    1  A    between atoms: C_18  and  C_13 
REMARK    2  A    between atoms: N_31  and  C_13 
REMARK    3  A    between atoms: C_23  and  C_14 
REMARK    4  A    between atoms: O_41  and  C_14 
REMARK    5  A    between atoms: C_29  and  C_19 
REMARK    6  A    between atoms: O_44  and  C_20 
REMARK    7  A    between atoms: O_45  and  C_21 
REMARK    8  A    between atoms: C_24  and  N_38 
REMARK    9  A    between atoms: C_26  and  O_42 
REMARK   10  A    between atoms: N_31  and  C_27 
REMARK   11  A    between atoms: N_38  and  C_29 
REMARK   12  A    between atoms: C_29  and  O_43 
REMARK   13  A    between atoms: C_30  and  N_40 
ROOT
HETATM    1  C   UNK N   1      36.374  13.646   7.145  0.00  0.00     0.178 C 
HETATM    2  C   UNK N   1      34.732  14.469   8.612  0.00  0.00     0.164 C 
HETATM    3  C   UNK N   1      35.033  14.435   7.136  0.00  0.00     0.176 C 
HETATM    4  C   UNK N   1      36.150  14.768   9.061  0.00  0.00     0.256 C 
HETATM    5  O   UNK N   1      36.984  13.848   8.411  0.00  0.00    -0.354 OA
ENDROOT
BRANCH   4   6
HETATM    6  N   UNK N   1      36.272  14.749  10.510  0.00  0.00    -0.298 N 
HETATM    7  C   UNK N   1      36.116  15.747  11.416  0.00  0.00     0.188 A 
HETATM    8  N   UNK N   1      36.209  15.269  12.690  0.00  0.00    -0.346 N 
HETATM    9  C   UNK N   1      36.401  13.941  12.534  0.00  0.00     0.122 A 
ATOM     10  HN  UNK N   1      36.146  15.794  13.562  1.00  0.00     0.167 HD
HETATM   11  C   UNK N   1      36.451  12.929  13.473  0.00  0.00     0.133 A 
HETATM   12  C   UNK N   1      36.443  13.642  11.233  0.00  0.00     0.142 A 
HETATM   13  N   UNK N   1      36.561  11.639  13.031  0.00  0.00    -0.337 N 
HETATM   14  C   UNK N   1      36.635  11.360  11.692  0.00  0.00     0.183 A 
ATOM     15  HN  UNK N   1      36.589  10.875  13.707  1.00  0.00     0.168 HD
HETATM   16  N   UNK N   1      36.559  12.369  10.776  0.00  0.00    -0.336 N 
ATOM     17  HN  UNK N   1      36.590  12.173   9.776  1.00  0.00     0.168 HD
BRANCH  11  18
HETATM   18  N   UNK N   1      36.250  13.207  14.831  0.00  0.00    -0.370 N 
HETATM   19  H   UNK N   1      36.988  13.551  15.386  0.00  0.00     0.161 HD
BRANCH  18  20
HETATM   20  C   UNK N   1      34.952  12.982  15.402  0.00  0.00     0.160 C 
BRANCH  20  21
HETATM   21  C   UNK N   1      35.134  12.606  16.835  0.00  0.00    -0.029 A 
HETATM   22  C   UNK N   1      35.130  13.638  17.772  0.00  0.00     0.010 A 
HETATM   23  C   UNK N   1      35.228  13.361  19.135  0.00  0.00     0.002 A 
HETATM   24  C   UNK N   1      35.316  12.041  19.579  0.00  0.00     0.012 A 
HETATM   25  C   UNK N   1      35.329  10.990  18.662  0.00  0.00    -0.025 A 
HETATM   26  C   UNK N   1      35.406   9.672  19.121  0.00  0.00     0.012 A 
HETATM   27  C   UNK N   1      35.250  11.260  17.273  0.00  0.00    -0.018 A 
HETATM   28  C   UNK N   1      35.414   8.611  18.211  0.00  0.00     0.001 A 
HETATM   29  C   UNK N   1      35.354   8.867  16.839  0.00  0.00     0.001 A 
HETATM   30  C   UNK N   1      35.271  10.184  16.372  0.00  0.00     0.013 A 
ENDBRANCH  20  21
ENDBRANCH  18  20
ENDBRANCH  11  18
ENDBRANCH   4   6
BRANCH   2  31
HETATM   31  N   UNK N   1      33.875  15.514   9.145  0.00  0.00    -0.359 N 
ATOM     32  HN  UNK N   1      33.367  15.255   9.990  1.00  0.00     0.162 HD
BRANCH  31  33
HETATM   33  C   UNK N   1      33.648  16.712   8.729  0.00  0.00     0.146 C 
BRANCH  33  34
HETATM   34  C   UNK N   1      32.462  16.927   7.856  0.00  0.00     0.020 A 
HETATM   35  C   UNK N   1      31.188  16.960   8.443  0.00  0.00     0.052 A 
HETATM   36  C   UNK N   1      30.037  17.156   7.684  0.00  0.00     0.071 A 
HETATM   37  C   UNK N   1      30.155  17.335   6.300  0.00  0.00     0.073 A 
HETATM   38  C   UNK N   1      31.411  17.305   5.684  0.00  0.00     0.071 A 
HETATM   39  C   UNK N   1      32.571  17.090   6.467  0.00  0.00     0.052 A 
BRANCH  36  40
HETATM   40  O   UNK N   1      28.835  17.171   8.309  0.00  0.00    -0.356 OA
HETATM   41  C   UNK N   1      28.436  18.170   9.167  0.00  0.00     0.210 C 
ENDBRANCH  36  40
BRANCH  38  42
HETATM   42  O   UNK N   1      31.476  17.489   4.346  0.00  0.00    -0.356 OA
HETATM   43  C   UNK N   1      31.673  16.466   3.449  0.00  0.00     0.210 C 
ENDBRANCH  38  42
ENDBRANCH  33  34
BRANCH  33  44
HETATM   44  O   UNK N   1      34.451  17.737   9.078  0.00  0.00    -0.346 OA
HETATM   45  H   UNK N   1      35.094  18.081   8.490  0.00  0.00     0.219 HD
ENDBRANCH  33  44
ENDBRANCH  31  33
ENDBRANCH   2  31
BRANCH   3  46
HETATM   46  O   UNK N   1      34.030  13.835   6.371  0.00  0.00    -0.391 OA
HETATM   47  H   UNK N   1      34.024  12.958   5.955  0.00  0.00     0.210 HD
ENDBRANCH   3  46
BRANCH   1  48
HETATM   48  C   UNK N   1      36.216  12.141   6.957  0.00  0.00     0.198 C 
BRANCH  48  49
HETATM   49  O   UNK N   1      36.864  11.457   7.989  0.00  0.00    -0.398 OA
HETATM   50  H   UNK N   1      37.221  10.567   7.839  0.00  0.00     0.209 HD
ENDBRANCH  48  49
ENDBRANCH   1  48
TORSDOF 13
ENDMDL
MODEL 9
REMARK VINA RESULT:      -8.4      9.202     14.131
REMARK  13 active torsions:
REMARK  status: ('A' for Active; 'I' for Inactive)
REMARK    1  A    between atoms: C_18  and  C_13 
REMARK    2  A    between atoms: N_31  and  C_13 
REMARK    3  A    between atoms: C_23  and  C_14 
REMARK    4  A    between atoms: O_41  and  C_14 
REMARK    5  A    between atoms: C_29  and  C_19 
REMARK    6  A    between atoms: O_44  and  C_20 
REMARK    7  A    between atoms: O_45  and  C_21 
REMARK    8  A    between atoms: C_24  and  N_38 
REMARK    9  A    between atoms: C_26  and  O_42 
REMARK   10  A    between atoms: N_31  and  C_27 
REMARK   11  A    between atoms: N_38  and  C_29 
REMARK   12  A    between atoms: C_29  and  O_43 
REMARK   13  A    between atoms: C_30  and  N_40 
ROOT
HETATM    1  C   UNK N   1      37.728  12.144  10.481  0.00  0.00     0.178 C 
HETATM    2  C   UNK N   1      35.763  12.562  11.702  0.00  0.00     0.164 C 
HETATM    3  C   UNK N   1      37.041  11.774  11.827  0.00  0.00     0.176 C 
HETATM    4  C   UNK N   1      35.511  12.233  10.242  0.00  0.00     0.256 C 
HETATM    5  O   UNK N   1      36.707  12.489   9.556  0.00  0.00    -0.354 OA
ENDROOT
BRANCH   4   6
HETATM    6  N   UNK N   1      34.366  12.959   9.716  0.00  0.00    -0.298 N 
HETATM    7  C   UNK N   1      33.138  12.513   9.349  0.00  0.00     0.188 A 
HETATM    8  N   UNK N   1      32.320  13.553   9.015  0.00  0.00    -0.346 N 
HETATM    9  C   UNK N   1      33.081  14.651   9.215  0.00  0.00     0.122 A 
ATOM     10  HN  UNK N   1      31.355  13.511   8.690  1.00  0.00     0.167 HD
HETATM   11  C   UNK N   1      32.750  15.991   9.150  0.00  0.00     0.133 A 
HETATM   12  C   UNK N   1      34.299  14.288   9.625  0.00  0.00     0.142 A 
HETATM   13  N   UNK N   1      33.700  16.912   9.498  0.00  0.00    -0.337 N 
HETATM   14  C   UNK N   1      34.953  16.515   9.887  0.00  0.00     0.183 A 
ATOM     15  HN  UNK N   1      33.474  17.906   9.469  1.00  0.00     0.168 HD
HETATM   16  N   UNK N   1      35.256  15.187   9.968  0.00  0.00    -0.336 N 
ATOM     17  HN  UNK N   1      36.178  14.878  10.278  1.00  0.00     0.168 HD
BRANCH  11  18
HETATM   18  N   UNK N   1      31.435  16.388   8.875  0.00  0.00    -0.370 N 
HETATM   19  H   UNK N   1      30.676  15.822   9.145  0.00  0.00     0.161 HD
BRANCH  18  20
HETATM   20  C   UNK N   1      31.211  17.631   8.192  0.00  0.00     0.160 C 
BRANCH  20  21
HETATM   21  C   UNK N   1      30.572  17.331   6.878  0.00  0.00    -0.029 A 
HETATM   22  C   UNK N   1      29.180  17.257   6.846  0.00  0.00     0.010 A 
HETATM   23  C   UNK N   1      28.507  17.045   5.644  0.00  0.00     0.002 A 
HETATM   24  C   UNK N   1      29.220  16.922   4.451  0.00  0.00     0.012 A 
HETATM   25  C   UNK N   1      30.614  16.987   4.456  0.00  0.00    -0.025 A 
HETATM   26  C   UNK N   1      31.316  16.873   3.253  0.00  0.00     0.012 A 
HETATM   27  C   UNK N   1      31.311  17.180   5.675  0.00  0.00    -0.018 A 
HETATM   28  C   UNK N   1      32.711  16.941   3.244  0.00  0.00     0.001 A 
HETATM   29  C   UNK N   1      33.410  17.115   4.442  0.00  0.00     0.001 A 
HETATM   30  C   UNK N   1      32.713  17.235   5.651  0.00  0.00     0.013 A 
ENDBRANCH  20  21
ENDBRANCH  18  20
ENDBRANCH  11  18
ENDBRANCH   4   6
BRANCH   2  31
HETATM   31  N   UNK N   1      34.589  12.148  12.452  0.00  0.00    -0.359 N 
ATOM     32  HN  UNK N   1      33.840  12.838  12.480  1.00  0.00     0.162 HD
BRANCH  31  33
HETATM   33  C   UNK N   1      34.337  11.057  13.088  0.00  0.00     0.146 C 
BRANCH  33  34
HETATM   34  C   UNK N   1      34.633  11.024  14.547  0.00  0.00     0.020 A 
HETATM   35  C   UNK N   1      34.603  12.226  15.269  0.00  0.00     0.052 A 
HETATM   36  C   UNK N   1      34.870  12.266  16.635  0.00  0.00     0.071 A 
HETATM   37  C   UNK N   1      35.167  11.073  17.307  0.00  0.00     0.073 A 
HETATM   38  C   UNK N   1      35.206   9.858  16.615  0.00  0.00     0.071 A 
HETATM   39  C   UNK N   1      34.946   9.836  15.223  0.00  0.00     0.052 A 
BRANCH  36  40
HETATM   40  O   UNK N   1      34.834  13.460  17.275  0.00  0.00    -0.356 OA
HETATM   41  C   UNK N   1      35.214  13.631  18.587  0.00  0.00     0.210 C 
ENDBRANCH  36  40
BRANCH  38  42
HETATM   42  O   UNK N   1      35.490   8.732  17.307  0.00  0.00    -0.356 OA
HETATM   43  C   UNK N   1      36.625   8.576  18.068  0.00  0.00     0.210 C 
ENDBRANCH  38  42
ENDBRANCH  33  34
BRANCH  33  44
HETATM   44  O   UNK N   1      33.818   9.984  12.458  0.00  0.00    -0.346 OA
HETATM   45  H   UNK N   1      34.234   9.602  11.712  0.00  0.00     0.219 HD
ENDBRANCH  33  44
ENDBRANCH  31  33
ENDBRANCH   2  31
BRANCH   3  46
HETATM   46  O   UNK N   1      37.796  12.103  12.956  0.00  0.00    -0.391 OA
HETATM   47  H   UNK N   1      38.397  11.542  13.471  0.00  0.00     0.210 HD
ENDBRANCH   3  46
BRANCH   1  48
HETATM   48  C   UNK N   1      38.674  13.338  10.569  0.00  0.00     0.198 C 
BRANCH  48  49
HETATM   49  O   UNK N   1      38.083  14.463   9.989  0.00  0.00    -0.398 OA
HETATM   50  H   UNK N   1      37.395  14.362   9.313  0.00  0.00     0.209 HD
ENDBRANCH  48  49
ENDBRANCH   1  48
TORSDOF 13
ENDMDL
