MODEL 1
REMARK VINA RESULT:      -7.6      0.000      0.000
REMARK  11 active torsions:
REMARK  status: ('A' for Active; 'I' for Inactive)
REMARK    1  A    between atoms: C_31  and  C_7 
REMARK    2  A    between atoms: C_15  and  N_32 
REMARK    3  A    between atoms: O_40  and  C_16 
REMARK    4  A    between atoms: C_17  and  O_43 
REMARK    5  A    between atoms: C_18  and  O_43 
REMARK    6  A    between atoms: C_24  and  C_30 
REMARK    7  A    between atoms: C_25  and  O_33 
REMARK    8  A    between atoms: O_36  and  C_28 
REMARK    9  A    between atoms: O_37  and  C_29 
REMARK   10  A    between atoms: O_41  and  C_30 
REMARK   11  A    between atoms: C_31  and  O_39 
ROOT
HETATM    1  C   UNK N   1      24.909  19.043   3.972  0.00  0.00     0.004 A 
HETATM    2  C   UNK N   1      25.583  17.951   3.436  0.00  0.00     0.017 A 
HETATM    3  C   UNK N   1      25.504  19.806   4.971  0.00  0.00     0.038 A 
HETATM    4  C   UNK N   1      33.651  14.047   4.330  0.00  0.00     0.076 C 
HETATM    5  C   UNK N   1      26.848  17.588   3.912  0.00  0.00     0.032 A 
HETATM    6  C   UNK N   1      26.770  19.484   5.465  0.00  0.00     0.083 A 
HETATM    7  C   UNK N   1      32.995  15.242   5.031  0.00  0.00     0.164 C 
HETATM    8  C   UNK N   1      27.450  18.332   4.955  0.00  0.00     0.062 A 
HETATM    9  C   UNK N   1      31.611  15.556   4.493  0.00  0.00     0.015 A 
HETATM   10  C   UNK N   1      31.053  14.878   3.378  0.00  0.00     0.004 A 
HETATM   11  C   UNK N   1      28.959  16.124   3.688  0.00  0.00     0.066 A 
HETATM   12  C   UNK N   1      29.539  16.823   4.767  0.00  0.00     0.066 A 
HETATM   13  C   UNK N   1      31.869  13.854   2.581  0.00  0.00     0.156 C 
HETATM   14  C   UNK N   1      27.554  16.439   3.297  0.00  0.00     0.197 C 
HETATM   15  C   UNK N   1      28.756  17.863   5.486  0.00  0.00     0.200 C 
HETATM   16  C   UNK N   1      30.856  16.532   5.160  0.00  0.00     0.090 A 
HETATM   17  C   UNK N   1      29.722  15.155   2.997  0.00  0.00     0.088 A 
HETATM   18  C   UNK N   1      33.397  14.045   2.828  0.00  0.00     0.077 C 
HETATM   19  O   UNK N   1      26.990  15.783   2.431  0.00  0.00    -0.286 OA
HETATM   20  O   UNK N   1      29.173  18.298   6.549  0.00  0.00    -0.286 OA
ENDROOT
BRANCH   7  21
HETATM   21  O   UNK N   1      32.827  14.930   6.404  0.00  0.00    -0.351 OA
BRANCH  21  22
HETATM   22  C   UNK N   1      33.974  15.162   7.197  0.00  0.00     0.263 C 
HETATM   23  C   UNK N   1      34.030  14.334   8.505  0.00  0.00     0.099 C 
HETATM   24  C   UNK N   1      34.513  15.056   9.778  0.00  0.00     0.257 C 
HETATM   25  C   UNK N   1      35.054  16.468   9.500  0.00  0.00     0.180 C 
HETATM   26  C   UNK N   1      34.146  17.156   8.481  0.00  0.00     0.151 C 
HETATM   27  C   UNK N   1      34.561  18.607   8.312  0.00  0.00     0.042 C 
HETATM   28  O   UNK N   1      34.297  16.543   7.223  0.00  0.00    -0.354 OA
BRANCH  24  29
HETATM   29  N   UNK N   1      35.497  14.259  10.540  0.00  0.00     0.087 N 
HETATM   30  C   UNK N   1      35.897  13.063   9.805  0.00  0.00     0.310 C 
HETATM   31  C   UNK N   1      34.936  13.816  11.810  0.00  0.00     0.310 C 
ENDBRANCH  24  29
BRANCH  25  32
HETATM   32  O   UNK N   1      35.095  17.188  10.699  0.00  0.00    -0.391 OA
HETATM   33  H   UNK N   1      35.651  17.855  11.130  0.00  0.00     0.210 HD
ENDBRANCH  25  32
ENDBRANCH  21  22
ENDBRANCH   7  21
BRANCH  18  34
HETATM   34  C   UNK N   1      34.295  13.009   2.128  0.00  0.00     0.034 C 
HETATM   35  C   UNK N   1      35.585  13.568   1.537  0.00  0.00     0.008 C 
ENDBRANCH  18  34
BRANCH  18  36
HETATM   36  O   UNK N   1      33.772  15.292   2.314  0.00  0.00    -0.389 OA
HETATM   37  H   UNK N   1      34.043  15.859   1.576  0.00  0.00     0.210 HD
ENDBRANCH  18  36
BRANCH  16  38
HETATM   38  O   UNK N   1      31.410  17.194   6.195  0.00  0.00    -0.359 OA
HETATM   39  H   UNK N   1      31.306  16.888   7.074  0.00  0.00     0.217 HD
ENDBRANCH  16  38
BRANCH  13  40
HETATM   40  C   UNK N   1      31.345  12.448   2.835  0.00  0.00     0.270 C 
HETATM   41  O   UNK N   1      31.410  11.954   3.955  0.00  0.00    -0.264 OA
BRANCH  40  42
HETATM   42  O   UNK N   1      30.750  11.766   1.826  0.00  0.00    -0.326 OA
HETATM   43  C   UNK N   1      31.125  11.919   0.510  0.00  0.00     0.213 C 
ENDBRANCH  40  42
ENDBRANCH  13  40
BRANCH  17  44
HETATM   44  O   UNK N   1      29.187  14.494   1.949  0.00  0.00    -0.359 OA
HETATM   45  H   UNK N   1      28.924  13.598   2.025  0.00  0.00     0.217 HD
ENDBRANCH  17  44
BRANCH   6  46
HETATM   46  O   UNK N   1      27.298  20.322   6.394  0.00  0.00    -0.355 OA
HETATM   47  C   UNK N   1      27.044  21.676   6.430  0.00  0.00     0.210 C 
ENDBRANCH   6  46
TORSDOF 11
ENDMDL
MODEL 2
REMARK VINA RESULT:      -7.3      3.622      6.709
REMARK  11 active torsions:
REMARK  status: ('A' for Active; 'I' for Inactive)
REMARK    1  A    between atoms: C_31  and  C_7 
REMARK    2  A    between atoms: C_15  and  N_32 
REMARK    3  A    between atoms: O_40  and  C_16 
REMARK    4  A    between atoms: C_17  and  O_43 
REMARK    5  A    between atoms: C_18  and  O_43 
REMARK    6  A    between atoms: C_24  and  C_30 
REMARK    7  A    between atoms: C_25  and  O_33 
REMARK    8  A    between atoms: O_36  and  C_28 
REMARK    9  A    between atoms: O_37  and  C_29 
REMARK   10  A    between atoms: O_41  and  C_30 
REMARK   11  A    between atoms: C_31  and  O_39 
ROOT
HETATM    1  C   UNK N   1      29.746  17.895   5.380  0.00  0.00     0.004 A 
HETATM    2  C   UNK N   1      30.934  17.188   5.232  0.00  0.00     0.017 A 
HETATM    3  C   UNK N   1      29.174  18.039   6.641  0.00  0.00     0.038 A 
HETATM    4  C   UNK N   1      36.894  13.045  10.566  0.00  0.00     0.076 C 
HETATM    5  C   UNK N   1      31.551  16.588   6.336  0.00  0.00     0.032 A 
HETATM    6  C   UNK N   1      29.765  17.465   7.768  0.00  0.00     0.083 A 
HETATM    7  C   UNK N   1      35.569  13.759  10.853  0.00  0.00     0.164 C 
HETATM    8  C   UNK N   1      30.960  16.692   7.618  0.00  0.00     0.062 A 
HETATM    9  C   UNK N   1      34.935  14.352   9.607  0.00  0.00     0.015 A 
HETATM   10  C   UNK N   1      35.579  14.338   8.343  0.00  0.00     0.004 A 
HETATM   11  C   UNK N   1      33.581  15.347   7.331  0.00  0.00     0.066 A 
HETATM   12  C   UNK N   1      32.968  15.396   8.601  0.00  0.00     0.066 A 
HETATM   13  C   UNK N   1      37.010  13.813   8.185  0.00  0.00     0.156 C 
HETATM   14  C   UNK N   1      32.834  15.869   6.150  0.00  0.00     0.197 C 
HETATM   15  C   UNK N   1      31.604  15.972   8.747  0.00  0.00     0.200 C 
HETATM   16  C   UNK N   1      33.649  14.897   9.724  0.00  0.00     0.090 A 
HETATM   17  C   UNK N   1      34.887  14.819   7.210  0.00  0.00     0.088 A 
HETATM   18  C   UNK N   1      37.752  13.797   9.557  0.00  0.00     0.077 C 
HETATM   19  O   UNK N   1      33.297  15.750   5.023  0.00  0.00    -0.286 OA
HETATM   20  O   UNK N   1      30.993  15.806   9.792  0.00  0.00    -0.286 OA
ENDROOT
BRANCH   7  21
HETATM   21  O   UNK N   1      34.641  12.814  11.360  0.00  0.00    -0.351 OA
BRANCH  21  22
HETATM   22  C   UNK N   1      34.802  12.523  12.733  0.00  0.00     0.263 C 
HETATM   23  C   UNK N   1      35.791  13.455  13.477  0.00  0.00     0.099 C 
HETATM   24  C   UNK N   1      36.757  12.800  14.485  0.00  0.00     0.257 C 
HETATM   25  C   UNK N   1      36.448  11.315  14.735  0.00  0.00     0.180 C 
HETATM   26  C   UNK N   1      36.102  10.649  13.405  0.00  0.00     0.151 C 
HETATM   27  C   UNK N   1      35.954   9.149  13.598  0.00  0.00     0.042 C 
HETATM   28  O   UNK N   1      34.858  11.122  12.947  0.00  0.00    -0.354 OA
BRANCH  24  29
HETATM   29  N   UNK N   1      36.829  13.542  15.761  0.00  0.00     0.087 N 
HETATM   30  C   UNK N   1      35.545  13.533  16.456  0.00  0.00     0.310 C 
HETATM   31  C   UNK N   1      37.183  14.937  15.531  0.00  0.00     0.310 C 
ENDBRANCH  24  29
BRANCH  25  32
HETATM   32  O   UNK N   1      37.562  10.708  15.324  0.00  0.00    -0.391 OA
HETATM   33  H   UNK N   1      37.934   9.819  15.437  0.00  0.00     0.210 HD
ENDBRANCH  25  32
ENDBRANCH  21  22
ENDBRANCH   7  21
BRANCH  18  34
HETATM   34  C   UNK N   1      39.175  13.211   9.511  0.00  0.00     0.034 C 
HETATM   35  C   UNK N   1      39.268  11.718   9.813  0.00  0.00     0.008 C 
ENDBRANCH  18  34
BRANCH  18  36
HETATM   36  O   UNK N   1      37.894  15.119   9.994  0.00  0.00    -0.389 OA
HETATM   37  H   UNK N   1      37.715  16.068   9.902  0.00  0.00     0.210 HD
ENDBRANCH  18  36
BRANCH  16  38
HETATM   38  O   UNK N   1      33.062  14.937  10.938  0.00  0.00    -0.359 OA
HETATM   39  H   UNK N   1      32.180  14.646  11.056  0.00  0.00     0.217 HD
ENDBRANCH  16  38
BRANCH  13  40
HETATM   40  C   UNK N   1      37.008  12.488   7.437  0.00  0.00     0.270 C 
HETATM   41  O   UNK N   1      36.309  11.558   7.824  0.00  0.00    -0.264 OA
BRANCH  40  42
HETATM   42  O   UNK N   1      37.740  12.361   6.303  0.00  0.00    -0.326 OA
HETATM   43  C   UNK N   1      38.634  13.322   5.890  0.00  0.00     0.213 C 
ENDBRANCH  40  42
ENDBRANCH  13  40
BRANCH  17  44
HETATM   44  O   UNK N   1      35.493  14.786   6.005  0.00  0.00    -0.359 OA
HETATM   45  H   UNK N   1      35.374  15.478   5.384  0.00  0.00     0.217 HD
ENDBRANCH  17  44
BRANCH   6  46
HETATM   46  O   UNK N   1      29.170  17.712   8.965  0.00  0.00    -0.355 OA
HETATM   47  C   UNK N   1      27.879  17.337   9.265  0.00  0.00     0.210 C 
ENDBRANCH   6  46
TORSDOF 11
ENDMDL
MODEL 3
REMARK VINA RESULT:      -7.2      7.888     11.303
REMARK  11 active torsions:
REMARK  status: ('A' for Active; 'I' for Inactive)
REMARK    1  A    between atoms: C_31  and  C_7 
REMARK    2  A    between atoms: C_15  and  N_32 
REMARK    3  A    between atoms: O_40  and  C_16 
REMARK    4  A    between atoms: C_17  and  O_43 
REMARK    5  A    between atoms: C_18  and  O_43 
REMARK    6  A    between atoms: C_24  and  C_30 
REMARK    7  A    between atoms: C_25  and  O_33 
REMARK    8  A    between atoms: O_36  and  C_28 
REMARK    9  A    between atoms: O_37  and  C_29 
REMARK   10  A    between atoms: O_41  and  C_30 
REMARK   11  A    between atoms: C_31  and  O_39 
ROOT
HETATM    1  C   UNK N   1      25.055  20.522   2.857  0.00  0.00     0.004 A 
HETATM    2  C   UNK N   1      25.396  19.353   3.528  0.00  0.00     0.017 A 
HETATM    3  C   UNK N   1      23.716  20.870   2.701  0.00  0.00     0.038 A 
HETATM    4  C   UNK N   1      21.135  12.754   7.937  0.00  0.00     0.076 C 
HETATM    5  C   UNK N   1      24.404  18.500   4.025  0.00  0.00     0.032 A 
HETATM    6  C   UNK N   1      22.698  20.051   3.193  0.00  0.00     0.083 A 
HETATM    7  C   UNK N   1      20.631  13.988   7.181  0.00  0.00     0.164 C 
HETATM    8  C   UNK N   1      23.038  18.821   3.840  0.00  0.00     0.062 A 
HETATM    9  C   UNK N   1      21.757  14.848   6.634  0.00  0.00     0.015 A 
HETATM   10  C   UNK N   1      23.123  14.582   6.911  0.00  0.00     0.004 A 
HETATM   11  C   UNK N   1      23.767  16.431   5.427  0.00  0.00     0.066 A 
HETATM   12  C   UNK N   1      22.404  16.713   5.195  0.00  0.00     0.066 A 
HETATM   13  C   UNK N   1      23.537  13.463   7.873  0.00  0.00     0.156 C 
HETATM   14  C   UNK N   1      24.801  17.278   4.765  0.00  0.00     0.197 C 
HETATM   15  C   UNK N   1      22.020  17.847   4.311  0.00  0.00     0.200 C 
HETATM   16  C   UNK N   1      21.415  15.919   5.798  0.00  0.00     0.090 A 
HETATM   17  C   UNK N   1      24.119  15.366   6.288  0.00  0.00     0.088 A 
HETATM   18  C   UNK N   1      22.350  13.061   8.803  0.00  0.00     0.077 C 
HETATM   19  O   UNK N   1      25.989  16.998   4.867  0.00  0.00    -0.286 OA
HETATM   20  O   UNK N   1      20.862  17.945   3.934  0.00  0.00    -0.286 OA
ENDROOT
BRANCH   7  21
HETATM   21  O   UNK N   1      19.878  13.559   6.058  0.00  0.00    -0.351 OA
BRANCH  21  22
HETATM   22  C   UNK N   1      20.369  12.385   5.444  0.00  0.00     0.263 C 
HETATM   23  C   UNK N   1      21.218  12.632   4.171  0.00  0.00     0.099 C 
HETATM   24  C   UNK N   1      20.987  11.688   2.975  0.00  0.00     0.257 C 
HETATM   25  C   UNK N   1      20.063  10.506   3.310  0.00  0.00     0.180 C 
HETATM   26  C   UNK N   1      18.906  11.010   4.171  0.00  0.00     0.151 C 
HETATM   27  C   UNK N   1      17.891   9.899   4.379  0.00  0.00     0.042 C 
HETATM   28  O   UNK N   1      19.383  11.366   5.446  0.00  0.00    -0.354 OA
BRANCH  24  29
HETATM   29  N   UNK N   1      22.254  11.210   2.381  0.00  0.00     0.087 N 
HETATM   30  C   UNK N   1      23.402  11.595   3.196  0.00  0.00     0.310 C 
HETATM   31  C   UNK N   1      22.456  11.783   1.056  0.00  0.00     0.310 C 
ENDBRANCH  24  29
BRANCH  25  32
HETATM   32  O   UNK N   1      19.593   9.940   2.121  0.00  0.00    -0.391 OA
HETATM   33  H   UNK N   1      19.811   9.205   1.527  0.00  0.00     0.210 HD
ENDBRANCH  25  32
ENDBRANCH  21  22
ENDBRANCH   7  21
BRANCH  18  34
HETATM   34  C   UNK N   1      22.649  11.888   9.754  0.00  0.00     0.034 C 
HETATM   35  C   UNK N   1      22.568  12.224  11.240  0.00  0.00     0.008 C 
ENDBRANCH  18  34
BRANCH  18  36
HETATM   36  O   UNK N   1      22.045  14.155   9.622  0.00  0.00    -0.389 OA
HETATM   37  H   UNK N   1      22.310  14.948  10.113  0.00  0.00     0.210 HD
ENDBRANCH  18  36
BRANCH  16  38
HETATM   38  O   UNK N   1      20.112  16.184   5.572  0.00  0.00    -0.359 OA
HETATM   39  H   UNK N   1      19.584  15.603   5.059  0.00  0.00     0.217 HD
ENDBRANCH  16  38
BRANCH  13  40
HETATM   40  C   UNK N   1      24.173  12.314   7.105  0.00  0.00     0.270 C 
HETATM   41  O   UNK N   1      25.384  12.289   6.916  0.00  0.00    -0.264 OA
BRANCH  40  42
HETATM   42  O   UNK N   1      23.398  11.286   6.681  0.00  0.00    -0.326 OA
HETATM   43  C   UNK N   1      23.789   9.971   6.794  0.00  0.00     0.213 C 
ENDBRANCH  40  42
ENDBRANCH  13  40
BRANCH  17  44
HETATM   44  O   UNK N   1      25.418  15.099   6.536  0.00  0.00    -0.359 OA
HETATM   45  H   UNK N   1      25.677  14.300   6.951  0.00  0.00     0.217 HD
ENDBRANCH  17  44
BRANCH   6  46
HETATM   46  O   UNK N   1      21.425  20.503   3.050  0.00  0.00    -0.355 OA
HETATM   47  C   UNK N   1      20.817  20.696   1.828  0.00  0.00     0.210 C 
ENDBRANCH   6  46
TORSDOF 11
ENDMDL
MODEL 4
REMARK VINA RESULT:      -7.1      7.346     12.343
REMARK  11 active torsions:
REMARK  status: ('A' for Active; 'I' for Inactive)
REMARK    1  A    between atoms: C_31  and  C_7 
REMARK    2  A    between atoms: C_15  and  N_32 
REMARK    3  A    between atoms: O_40  and  C_16 
REMARK    4  A    between atoms: C_17  and  O_43 
REMARK    5  A    between atoms: C_18  and  O_43 
REMARK    6  A    between atoms: C_24  and  C_30 
REMARK    7  A    between atoms: C_25  and  O_33 
REMARK    8  A    between atoms: O_36  and  C_28 
REMARK    9  A    between atoms: O_37  and  C_29 
REMARK   10  A    between atoms: O_41  and  C_30 
REMARK   11  A    between atoms: C_31  and  O_39 
ROOT
HETATM    1  C   UNK N   1      35.380  12.328  19.913  0.00  0.00     0.004 A 
HETATM    2  C   UNK N   1      35.660  13.138  18.818  0.00  0.00     0.017 A 
HETATM    3  C   UNK N   1      34.988  11.007  19.719  0.00  0.00     0.038 A 
HETATM    4  C   UNK N   1      36.051  12.274   9.860  0.00  0.00     0.076 C 
HETATM    5  C   UNK N   1      35.522  12.649  17.514  0.00  0.00     0.032 A 
HETATM    6  C   UNK N   1      34.849  10.479  18.435  0.00  0.00     0.083 A 
HETATM    7  C   UNK N   1      35.673  11.297  10.979  0.00  0.00     0.164 C 
HETATM    8  C   UNK N   1      35.086  11.319  17.301  0.00  0.00     0.062 A 
HETATM    9  C   UNK N   1      35.807  11.904  12.364  0.00  0.00     0.015 A 
HETATM   10  C   UNK N   1      36.345  13.200  12.580  0.00  0.00     0.004 A 
HETATM   11  C   UNK N   1      35.858  12.984  14.979  0.00  0.00     0.066 A 
HETATM   12  C   UNK N   1      35.368  11.680  14.758  0.00  0.00     0.066 A 
HETATM   13  C   UNK N   1      36.922  14.025  11.425  0.00  0.00     0.156 C 
HETATM   14  C   UNK N   1      35.859  13.527  16.368  0.00  0.00     0.197 C 
HETATM   15  C   UNK N   1      34.874  10.867  15.901  0.00  0.00     0.200 C 
HETATM   16  C   UNK N   1      35.345  11.155  13.455  0.00  0.00     0.090 A 
HETATM   17  C   UNK N   1      36.347  13.737  13.887  0.00  0.00     0.088 A 
HETATM   18  C   UNK N   1      37.274  13.111  10.211  0.00  0.00     0.077 C 
HETATM   19  O   UNK N   1      36.186  14.688  16.579  0.00  0.00    -0.286 OA
HETATM   20  O   UNK N   1      34.246   9.843  15.680  0.00  0.00    -0.286 OA
ENDROOT
BRANCH   7  21
HETATM   21  O   UNK N   1      34.308  10.942  10.832  0.00  0.00    -0.351 OA
BRANCH  21  22
HETATM   22  C   UNK N   1      34.090   9.784  10.051  0.00  0.00     0.263 C 
HETATM   23  C   UNK N   1      32.615   9.314   9.994  0.00  0.00     0.099 C 
HETATM   24  C   UNK N   1      32.353   7.799  10.097  0.00  0.00     0.257 C 
HETATM   25  C   UNK N   1      33.640   6.961  10.050  0.00  0.00     0.180 C 
HETATM   26  C   UNK N   1      34.712   7.649  10.893  0.00  0.00     0.151 C 
HETATM   27  C   UNK N   1      35.940   6.762  10.998  0.00  0.00     0.042 C 
HETATM   28  O   UNK N   1      35.124   8.836  10.258  0.00  0.00    -0.354 OA
BRANCH  24  29
HETATM   29  N   UNK N   1      31.382   7.325   9.089  0.00  0.00     0.087 N 
HETATM   30  C   UNK N   1      31.182   8.315   8.035  0.00  0.00     0.310 C 
HETATM   31  C   UNK N   1      30.080   7.076   9.696  0.00  0.00     0.310 C 
ENDBRANCH  24  29
BRANCH  25  32
HETATM   32  O   UNK N   1      33.370   5.677  10.535  0.00  0.00    -0.391 OA
HETATM   33  H   UNK N   1      33.455   4.755  10.247  0.00  0.00     0.210 HD
ENDBRANCH  25  32
ENDBRANCH  21  22
ENDBRANCH   7  21
BRANCH  18  34
HETATM   34  C   UNK N   1      37.790  13.863   8.970  0.00  0.00     0.034 C 
HETATM   35  C   UNK N   1      36.881  13.792   7.747  0.00  0.00     0.008 C 
ENDBRANCH  18  34
BRANCH  18  36
HETATM   36  O   UNK N   1      38.307  12.248  10.596  0.00  0.00    -0.389 OA
HETATM   37  H   UNK N   1      38.883  11.486  10.430  0.00  0.00     0.210 HD
ENDBRANCH  18  36
BRANCH  16  38
HETATM   38  O   UNK N   1      34.871   9.911  13.240  0.00  0.00    -0.359 OA
HETATM   39  H   UNK N   1      35.297   9.329  12.642  0.00  0.00     0.217 HD
ENDBRANCH  16  38
BRANCH  13  40
HETATM   40  C   UNK N   1      36.009  15.199  11.106  0.00  0.00     0.270 C 
HETATM   41  O   UNK N   1      36.482  16.296  10.833  0.00  0.00    -0.264 OA
BRANCH  40  42
HETATM   42  O   UNK N   1      34.667  15.009  11.068  0.00  0.00    -0.326 OA
HETATM   43  C   UNK N   1      33.914  15.280   9.948  0.00  0.00     0.213 C 
ENDBRANCH  40  42
ENDBRANCH  13  40
BRANCH  17  44
HETATM   44  O   UNK N   1      36.839  14.977  14.088  0.00  0.00    -0.359 OA
HETATM   45  H   UNK N   1      37.595  15.279  13.624  0.00  0.00     0.217 HD
ENDBRANCH  17  44
BRANCH   6  46
HETATM   46  O   UNK N   1      34.524   9.162  18.345  0.00  0.00    -0.355 OA
HETATM   47  C   UNK N   1      33.614   8.544  19.176  0.00  0.00     0.210 C 
ENDBRANCH   6  46
TORSDOF 11
ENDMDL
MODEL 5
REMARK VINA RESULT:      -7.1      4.893     10.788
REMARK  11 active torsions:
REMARK  status: ('A' for Active; 'I' for Inactive)
REMARK    1  A    between atoms: C_31  and  C_7 
REMARK    2  A    between atoms: C_15  and  N_32 
REMARK    3  A    between atoms: O_40  and  C_16 
REMARK    4  A    between atoms: C_17  and  O_43 
REMARK    5  A    between atoms: C_18  and  O_43 
REMARK    6  A    between atoms: C_24  and  C_30 
REMARK    7  A    between atoms: C_25  and  O_33 
REMARK    8  A    between atoms: O_36  and  C_28 
REMARK    9  A    between atoms: O_37  and  C_29 
REMARK   10  A    between atoms: O_41  and  C_30 
REMARK   11  A    between atoms: C_31  and  O_39 
ROOT
HETATM    1  C   UNK N   1      35.430  10.507  18.612  0.00  0.00     0.004 A 
HETATM    2  C   UNK N   1      35.404   9.811  17.409  0.00  0.00     0.017 A 
HETATM    3  C   UNK N   1      35.295  11.892  18.618  0.00  0.00     0.038 A 
HETATM    4  C   UNK N   1      34.192  11.693   8.684  0.00  0.00     0.076 C 
HETATM    5  C   UNK N   1      35.275  10.491  16.193  0.00  0.00     0.032 A 
HETATM    6  C   UNK N   1      35.152  12.606  17.427  0.00  0.00     0.083 A 
HETATM    7  C   UNK N   1      34.249  12.576   9.936  0.00  0.00     0.164 C 
HETATM    8  C   UNK N   1      35.176  11.903  16.180  0.00  0.00     0.062 A 
HETATM    9  C   UNK N   1      34.430  11.777  11.214  0.00  0.00     0.015 A 
HETATM   10  C   UNK N   1      34.423  10.359  11.235  0.00  0.00     0.004 A 
HETATM   11  C   UNK N   1      34.936  10.408  13.637  0.00  0.00     0.066 A 
HETATM   12  C   UNK N   1      34.897  11.818  13.613  0.00  0.00     0.066 A 
HETATM   13  C   UNK N   1      34.123   9.546   9.971  0.00  0.00     0.156 C 
HETATM   14  C   UNK N   1      35.218   9.717  14.930  0.00  0.00     0.197 C 
HETATM   15  C   UNK N   1      35.123  12.590  14.864  0.00  0.00     0.200 C 
HETATM   16  C   UNK N   1      34.647  12.487  12.404  0.00  0.00     0.090 A 
HETATM   17  C   UNK N   1      34.696   9.685  12.446  0.00  0.00     0.088 A 
HETATM   18  C   UNK N   1      33.387  10.420   8.909  0.00  0.00     0.077 C 
HETATM   19  O   UNK N   1      35.356   8.501  14.964  0.00  0.00    -0.286 OA
HETATM   20  O   UNK N   1      35.314  13.795  14.797  0.00  0.00    -0.286 OA
ENDROOT
BRANCH   7  21
HETATM   21  O   UNK N   1      35.375  13.433   9.839  0.00  0.00    -0.351 OA
BRANCH  21  22
HETATM   22  C   UNK N   1      35.149  14.605   9.083  0.00  0.00     0.263 C 
HETATM   23  C   UNK N   1      33.662  15.027   8.979  0.00  0.00     0.099 C 
HETATM   24  C   UNK N   1      33.163  15.521   7.608  0.00  0.00     0.257 C 
HETATM   25  C   UNK N   1      34.295  15.701   6.584  0.00  0.00     0.180 C 
HETATM   26  C   UNK N   1      35.267  14.529   6.710  0.00  0.00     0.151 C 
HETATM   27  C   UNK N   1      36.305  14.593   5.602  0.00  0.00     0.042 C 
HETATM   28  O   UNK N   1      35.969  14.624   7.926  0.00  0.00    -0.354 OA
BRANCH  24  29
HETATM   29  N   UNK N   1      32.353  16.754   7.714  0.00  0.00     0.087 N 
HETATM   30  C   UNK N   1      33.136  17.861   8.254  0.00  0.00     0.310 C 
HETATM   31  C   UNK N   1      31.218  16.555   8.606  0.00  0.00     0.310 C 
ENDBRANCH  24  29
BRANCH  25  32
HETATM   32  O   UNK N   1      33.747  15.759   5.298  0.00  0.00    -0.391 OA
HETATM   33  H   UNK N   1      32.978  16.144   4.851  0.00  0.00     0.210 HD
ENDBRANCH  25  32
ENDBRANCH  21  22
ENDBRANCH   7  21
BRANCH  18  34
HETATM   34  C   UNK N   1      33.113   9.709   7.571  0.00  0.00     0.034 C 
HETATM   35  C   UNK N   1      31.909   8.772   7.573  0.00  0.00     0.008 C 
ENDBRANCH  18  34
BRANCH  18  36
HETATM   36  O   UNK N   1      32.134  10.772   9.423  0.00  0.00    -0.389 OA
HETATM   37  H   UNK N   1      31.444  11.430   9.603  0.00  0.00     0.210 HD
ENDBRANCH  18  36
BRANCH  16  38
HETATM   38  O   UNK N   1      34.615  13.835  12.377  0.00  0.00    -0.359 OA
HETATM   39  H   UNK N   1      33.813  14.295  12.223  0.00  0.00     0.217 HD
ENDBRANCH  16  38
BRANCH  13  40
HETATM   40  C   UNK N   1      35.384   8.854   9.476  0.00  0.00     0.270 C 
HETATM   41  O   UNK N   1      36.341   9.513   9.085  0.00  0.00    -0.264 OA
BRANCH  40  42
HETATM   42  O   UNK N   1      35.466   7.502   9.526  0.00  0.00    -0.326 OA
HETATM   43  C   UNK N   1      34.359   6.690   9.417  0.00  0.00     0.213 C 
ENDBRANCH  40  42
ENDBRANCH  13  40
BRANCH  17  44
HETATM   44  O   UNK N   1      34.709   8.336  12.460  0.00  0.00    -0.359 OA
HETATM   45  H   UNK N   1      35.506   7.858  12.334  0.00  0.00     0.217 HD
ENDBRANCH  17  44
BRANCH   6  46
HETATM   46  O   UNK N   1      34.963  13.947  17.535  0.00  0.00    -0.355 OA
HETATM   47  C   UNK N   1      35.888  14.804  18.091  0.00  0.00     0.210 C 
ENDBRANCH   6  46
TORSDOF 11
ENDMDL
MODEL 6
REMARK VINA RESULT:      -6.9      3.697      6.907
REMARK  11 active torsions:
REMARK  status: ('A' for Active; 'I' for Inactive)
REMARK    1  A    between atoms: C_31  and  C_7 
REMARK    2  A    between atoms: C_15  and  N_32 
REMARK    3  A    between atoms: O_40  and  C_16 
REMARK    4  A    between atoms: C_17  and  O_43 
REMARK    5  A    between atoms: C_18  and  O_43 
REMARK    6  A    between atoms: C_24  and  C_30 
REMARK    7  A    between atoms: C_25  and  O_33 
REMARK    8  A    between atoms: O_36  and  C_28 
REMARK    9  A    between atoms: O_37  and  C_29 
REMARK   10  A    between atoms: O_41  and  C_30 
REMARK   11  A    between atoms: C_31  and  O_39 
ROOT
HETATM    1  C   UNK N   1      29.754  17.466   5.565  0.00  0.00     0.004 A 
HETATM    2  C   UNK N   1      30.929  16.743   5.392  0.00  0.00     0.017 A 
HETATM    3  C   UNK N   1      29.254  17.685   6.844  0.00  0.00     0.038 A 
HETATM    4  C   UNK N   1      37.167  12.879  10.616  0.00  0.00     0.076 C 
HETATM    5  C   UNK N   1      31.605  16.205   6.492  0.00  0.00     0.032 A 
HETATM    6  C   UNK N   1      29.905  17.174   7.969  0.00  0.00     0.083 A 
HETATM    7  C   UNK N   1      35.863  13.618  10.935  0.00  0.00     0.164 C 
HETATM    8  C   UNK N   1      31.088  16.387   7.797  0.00  0.00     0.062 A 
HETATM    9  C   UNK N   1      35.161  14.141   9.694  0.00  0.00     0.015 A 
HETATM   10  C   UNK N   1      35.734  14.050   8.398  0.00  0.00     0.004 A 
HETATM   11  C   UNK N   1      33.684  15.011   7.443  0.00  0.00     0.066 A 
HETATM   12  C   UNK N   1      33.144  15.137   8.740  0.00  0.00     0.066 A 
HETATM   13  C   UNK N   1      37.152  13.508   8.192  0.00  0.00     0.156 C 
HETATM   14  C   UNK N   1      32.874  15.468   6.277  0.00  0.00     0.197 C 
HETATM   15  C   UNK N   1      31.792  15.729   8.928  0.00  0.00     0.200 C 
HETATM   16  C   UNK N   1      33.885  14.700   9.850  0.00  0.00     0.090 A 
HETATM   17  C   UNK N   1      34.980  14.469   7.280  0.00  0.00     0.088 A 
HETATM   18  C   UNK N   1      37.970  13.567   9.519  0.00  0.00     0.077 C 
HETATM   19  O   UNK N   1      33.273  15.281   5.135  0.00  0.00    -0.286 OA
HETATM   20  O   UNK N   1      31.240  15.627  10.013  0.00  0.00    -0.286 OA
ENDROOT
BRANCH   7  21
HETATM   21  O   UNK N   1      34.962  12.710  11.547  0.00  0.00    -0.351 OA
BRANCH  21  22
HETATM   22  C   UNK N   1      35.526  11.953  12.598  0.00  0.00     0.263 C 
HETATM   23  C   UNK N   1      35.203  10.438  12.546  0.00  0.00     0.099 C 
HETATM   24  C   UNK N   1      34.856   9.744  13.877  0.00  0.00     0.257 C 
HETATM   25  C   UNK N   1      35.075  10.646  15.101  0.00  0.00     0.180 C 
HETATM   26  C   UNK N   1      34.577  12.054  14.776  0.00  0.00     0.151 C 
HETATM   27  C   UNK N   1      34.629  12.924  16.020  0.00  0.00     0.042 C 
HETATM   28  O   UNK N   1      35.430  12.651  13.829  0.00  0.00    -0.354 OA
BRANCH  24  29
HETATM   29  N   UNK N   1      35.564   8.456  14.043  0.00  0.00     0.087 N 
HETATM   30  C   UNK N   1      36.889   8.648  14.623  0.00  0.00     0.310 C 
HETATM   31  C   UNK N   1      35.749   7.796  12.757  0.00  0.00     0.310 C 
ENDBRANCH  24  29
BRANCH  25  32
HETATM   32  O   UNK N   1      34.385  10.112  16.195  0.00  0.00    -0.391 OA
HETATM   33  H   UNK N   1      33.473  10.034  16.515  0.00  0.00     0.210 HD
ENDBRANCH  25  32
ENDBRANCH  21  22
ENDBRANCH   7  21
BRANCH  18  34
HETATM   34  C   UNK N   1      39.386  12.970   9.428  0.00  0.00     0.034 C 
HETATM   35  C   UNK N   1      39.483  11.485   9.761  0.00  0.00     0.008 C 
ENDBRANCH  18  34
BRANCH  18  36
HETATM   36  O   UNK N   1      38.139  14.911   9.870  0.00  0.00    -0.389 OA
HETATM   37  H   UNK N   1      38.666  15.629  10.254  0.00  0.00     0.210 HD
ENDBRANCH  18  36
BRANCH  16  38
HETATM   38  O   UNK N   1      33.368  14.814  11.090  0.00  0.00    -0.359 OA
HETATM   39  H   UNK N   1      33.089  14.057  11.568  0.00  0.00     0.217 HD
ENDBRANCH  16  38
BRANCH  13  40
HETATM   40  C   UNK N   1      37.103  12.142   7.524  0.00  0.00     0.270 C 
HETATM   41  O   UNK N   1      37.874  11.870   6.610  0.00  0.00    -0.264 OA
BRANCH  40  42
HETATM   42  O   UNK N   1      36.240  11.204   7.985  0.00  0.00    -0.326 OA
HETATM   43  C   UNK N   1      36.574   9.872   8.074  0.00  0.00     0.213 C 
ENDBRANCH  40  42
ENDBRANCH  13  40
BRANCH  17  44
HETATM   44  O   UNK N   1      35.517  14.362   6.047  0.00  0.00    -0.359 OA
HETATM   45  H   UNK N   1      35.179  13.750   5.423  0.00  0.00     0.217 HD
ENDBRANCH  17  44
BRANCH   6  46
HETATM   46  O   UNK N   1      29.379  17.494   9.180  0.00  0.00    -0.355 OA
HETATM   47  C   UNK N   1      29.614  18.691   9.821  0.00  0.00     0.210 C 
ENDBRANCH   6  46
TORSDOF 11
ENDMDL
MODEL 7
REMARK VINA RESULT:      -6.9      3.326      7.189
REMARK  11 active torsions:
REMARK  status: ('A' for Active; 'I' for Inactive)
REMARK    1  A    between atoms: C_31  and  C_7 
REMARK    2  A    between atoms: C_15  and  N_32 
REMARK    3  A    between atoms: O_40  and  C_16 
REMARK    4  A    between atoms: C_17  and  O_43 
REMARK    5  A    between atoms: C_18  and  O_43 
REMARK    6  A    between atoms: C_24  and  C_30 
REMARK    7  A    between atoms: C_25  and  O_33 
REMARK    8  A    between atoms: O_36  and  C_28 
REMARK    9  A    between atoms: O_37  and  C_29 
REMARK   10  A    between atoms: O_41  and  C_30 
REMARK   11  A    between atoms: C_31  and  O_39 
ROOT
HETATM    1  C   UNK N   1      28.588  18.210   6.267  0.00  0.00     0.004 A 
HETATM    2  C   UNK N   1      29.270  17.740   7.384  0.00  0.00     0.017 A 
HETATM    3  C   UNK N   1      29.063  17.924   4.991  0.00  0.00     0.038 A 
HETATM    4  C   UNK N   1      36.449  12.570   9.080  0.00  0.00     0.076 C 
HETATM    5  C   UNK N   1      30.451  17.003   7.242  0.00  0.00     0.032 A 
HETATM    6  C   UNK N   1      30.232  17.183   4.807  0.00  0.00     0.083 A 
HETATM    7  C   UNK N   1      35.816  13.067   7.776  0.00  0.00     0.164 C 
HETATM    8  C   UNK N   1      30.967  16.738   5.951  0.00  0.00     0.062 A 
HETATM    9  C   UNK N   1      34.561  13.892   8.005  0.00  0.00     0.015 A 
HETATM   10  C   UNK N   1      33.987  14.067   9.291  0.00  0.00     0.004 A 
HETATM   11  C   UNK N   1      32.314  15.581   8.319  0.00  0.00     0.066 A 
HETATM   12  C   UNK N   1      32.866  15.363   7.040  0.00  0.00     0.066 A 
HETATM   13  C   UNK N   1      34.548  13.340  10.518  0.00  0.00     0.156 C 
HETATM   14  C   UNK N   1      31.136  16.487   8.452  0.00  0.00     0.197 C 
HETATM   15  C   UNK N   1      32.267  16.024   5.849  0.00  0.00     0.200 C 
HETATM   16  C   UNK N   1      33.983  14.524   6.895  0.00  0.00     0.090 A 
HETATM   17  C   UNK N   1      32.878  14.928   9.440  0.00  0.00     0.088 A 
HETATM   18  C   UNK N   1      35.407  12.110  10.092  0.00  0.00     0.077 C 
HETATM   19  O   UNK N   1      30.697  16.774   9.558  0.00  0.00    -0.286 OA
HETATM   20  O   UNK N   1      32.877  16.017   4.791  0.00  0.00    -0.286 OA
ENDROOT
BRANCH   7  21
HETATM   21  O   UNK N   1      36.737  13.920   7.118  0.00  0.00    -0.351 OA
BRANCH  21  22
HETATM   22  C   UNK N   1      37.670  13.245   6.298  0.00  0.00     0.263 C 
HETATM   23  C   UNK N   1      39.083  13.881   6.273  0.00  0.00     0.099 C 
HETATM   24  C   UNK N   1      39.797  13.960   4.910  0.00  0.00     0.257 C 
HETATM   25  C   UNK N   1      39.053  13.207   3.796  0.00  0.00     0.180 C 
HETATM   26  C   UNK N   1      37.554  13.471   3.934  0.00  0.00     0.151 C 
HETATM   27  C   UNK N   1      36.810  12.874   2.752  0.00  0.00     0.042 C 
HETATM   28  O   UNK N   1      37.064  12.827   5.086  0.00  0.00    -0.354 OA
BRANCH  24  29
HETATM   29  N   UNK N   1      41.207  13.522   4.986  0.00  0.00     0.087 N 
HETATM   30  C   UNK N   1      41.310  12.068   5.062  0.00  0.00     0.310 C 
HETATM   31  C   UNK N   1      41.856  14.062   6.174  0.00  0.00     0.310 C 
ENDBRANCH  24  29
BRANCH  25  32
HETATM   32  O   UNK N   1      39.525  13.642   2.553  0.00  0.00    -0.391 OA
HETATM   33  H   UNK N   1      39.236  14.209   1.821  0.00  0.00     0.210 HD
ENDBRANCH  25  32
ENDBRANCH  21  22
ENDBRANCH   7  21
BRANCH  18  34
HETATM   34  C   UNK N   1      36.077  11.360  11.258  0.00  0.00     0.034 C 
HETATM   35  C   UNK N   1      37.594  11.507  11.333  0.00  0.00     0.008 C 
ENDBRANCH  18  34
BRANCH  18  36
HETATM   36  O   UNK N   1      34.564  11.181   9.470  0.00  0.00    -0.389 OA
HETATM   37  H   UNK N   1      34.068  10.869   8.697  0.00  0.00     0.210 HD
ENDBRANCH  18  36
BRANCH  16  38
HETATM   38  O   UNK N   1      34.516  14.320   5.674  0.00  0.00    -0.359 OA
HETATM   39  H   UNK N   1      34.154  14.734   4.915  0.00  0.00     0.217 HD
ENDBRANCH  16  38
BRANCH  13  40
HETATM   40  C   UNK N   1      35.246  14.326  11.443  0.00  0.00     0.270 C 
HETATM   41  O   UNK N   1      35.938  15.226  10.982  0.00  0.00    -0.264 OA
BRANCH  40  42
HETATM   42  O   UNK N   1      35.049  14.238  12.781  0.00  0.00    -0.326 OA
HETATM   43  C   UNK N   1      36.091  14.176  13.678  0.00  0.00     0.213 C 
ENDBRANCH  40  42
ENDBRANCH  13  40
BRANCH  17  44
HETATM   44  O   UNK N   1      32.346  15.110  10.666  0.00  0.00    -0.359 OA
HETATM   45  H   UNK N   1      32.447  15.923  11.121  0.00  0.00     0.217 HD
ENDBRANCH  17  44
BRANCH   6  46
HETATM   46  O   UNK N   1      30.583  16.899   3.526  0.00  0.00    -0.355 OA
HETATM   47  C   UNK N   1      29.847  16.079   2.698  0.00  0.00     0.210 C 
ENDBRANCH   6  46
TORSDOF 11
ENDMDL
MODEL 8
REMARK VINA RESULT:      -6.9      3.384      9.597
REMARK  11 active torsions:
REMARK  status: ('A' for Active; 'I' for Inactive)
REMARK    1  A    between atoms: C_31  and  C_7 
REMARK    2  A    between atoms: C_15  and  N_32 
REMARK    3  A    between atoms: O_40  and  C_16 
REMARK    4  A    between atoms: C_17  and  O_43 
REMARK    5  A    between atoms: C_18  and  O_43 
REMARK    6  A    between atoms: C_24  and  C_30 
REMARK    7  A    between atoms: C_25  and  O_33 
REMARK    8  A    between atoms: O_36  and  C_28 
REMARK    9  A    between atoms: O_37  and  C_29 
REMARK   10  A    between atoms: O_41  and  C_30 
REMARK   11  A    between atoms: C_31  and  O_39 
ROOT
HETATM    1  C   UNK N   1      36.972  12.929  14.720  0.00  0.00     0.004 A 
HETATM    2  C   UNK N   1      36.411  13.969  13.987  0.00  0.00     0.017 A 
HETATM    3  C   UNK N   1      37.033  11.649  14.178  0.00  0.00     0.038 A 
HETATM    4  C   UNK N   1      32.930  15.159   5.765  0.00  0.00     0.076 C 
HETATM    5  C   UNK N   1      35.874  13.737  12.716  0.00  0.00     0.032 A 
HETATM    6  C   UNK N   1      36.519  11.380  12.909  0.00  0.00     0.083 A 
HETATM    7  C   UNK N   1      33.481  13.925   6.487  0.00  0.00     0.164 C 
HETATM    8  C   UNK N   1      35.893  12.433  12.168  0.00  0.00     0.062 A 
HETATM    9  C   UNK N   1      34.010  14.239   7.876  0.00  0.00     0.015 A 
HETATM   10  C   UNK N   1      34.087  15.563   8.381  0.00  0.00     0.004 A 
HETATM   11  C   UNK N   1      34.867  14.678  10.536  0.00  0.00     0.066 A 
HETATM   12  C   UNK N   1      34.829  13.371  10.008  0.00  0.00     0.066 A 
HETATM   13  C   UNK N   1      33.735  16.771   7.505  0.00  0.00     0.156 C 
HETATM   14  C   UNK N   1      35.312  14.873  11.946  0.00  0.00     0.197 C 
HETATM   15  C   UNK N   1      35.239  12.216  10.851  0.00  0.00     0.200 C 
HETATM   16  C   UNK N   1      34.400  13.164   8.686  0.00  0.00     0.090 A 
HETATM   17  C   UNK N   1      34.497  15.770   9.716  0.00  0.00     0.088 A 
HETATM   18  C   UNK N   1      33.790  16.396   5.992  0.00  0.00     0.077 C 
HETATM   19  O   UNK N   1      35.262  15.982  12.464  0.00  0.00    -0.286 OA
HETATM   20  O   UNK N   1      34.990  11.081  10.473  0.00  0.00    -0.286 OA
ENDROOT
BRANCH   7  21
HETATM   21  O   UNK N   1      32.428  12.992   6.666  0.00  0.00    -0.351 OA
BRANCH  21  22
HETATM   22  C   UNK N   1      32.230  12.124   5.568  0.00  0.00     0.263 C 
HETATM   23  C   UNK N   1      33.473  11.940   4.661  0.00  0.00     0.099 C 
HETATM   24  C   UNK N   1      33.238  11.927   3.138  0.00  0.00     0.257 C 
HETATM   25  C   UNK N   1      31.749  11.908   2.758  0.00  0.00     0.180 C 
HETATM   26  C   UNK N   1      30.990  12.862   3.679  0.00  0.00     0.151 C 
HETATM   27  C   UNK N   1      29.547  12.988   3.221  0.00  0.00     0.042 C 
HETATM   28  O   UNK N   1      30.955  12.335   4.983  0.00  0.00    -0.354 OA
BRANCH  24  29
HETATM   29  N   UNK N   1      33.964  10.828   2.466  0.00  0.00     0.087 N 
HETATM   30  C   UNK N   1      34.129   9.679   3.351  0.00  0.00     0.310 C 
HETATM   31  C   UNK N   1      35.298  11.255   2.063  0.00  0.00     0.310 C 
ENDBRANCH  24  29
BRANCH  25  32
HETATM   32  O   UNK N   1      31.612  12.290   1.419  0.00  0.00    -0.391 OA
HETATM   33  H   UNK N   1      30.922  12.616   0.821  0.00  0.00     0.210 HD
ENDBRANCH  25  32
ENDBRANCH  21  22
ENDBRANCH   7  21
BRANCH  18  34
HETATM   34  C   UNK N   1      33.374  17.528   5.034  0.00  0.00     0.034 C 
HETATM   35  C   UNK N   1      32.088  17.274   4.254  0.00  0.00     0.008 C 
ENDBRANCH  18  34
BRANCH  18  36
HETATM   36  O   UNK N   1      35.114  16.081   5.666  0.00  0.00    -0.389 OA
HETATM   37  H   UNK N   1      36.067  16.140   5.834  0.00  0.00     0.210 HD
ENDBRANCH  18  36
BRANCH  16  38
HETATM   38  O   UNK N   1      34.357  11.914   8.182  0.00  0.00    -0.359 OA
HETATM   39  H   UNK N   1      34.644  11.180   8.688  0.00  0.00     0.217 HD
ENDBRANCH  16  38
BRANCH  13  40
HETATM   40  C   UNK N   1      32.428  17.396   7.968  0.00  0.00     0.270 C 
HETATM   41  O   UNK N   1      32.413  18.530   8.435  0.00  0.00    -0.264 OA
BRANCH  40  42
HETATM   42  O   UNK N   1      31.268  16.713   7.808  0.00  0.00    -0.326 OA
HETATM   43  C   UNK N   1      30.043  17.339   7.757  0.00  0.00     0.213 C 
ENDBRANCH  40  42
ENDBRANCH  13  40
BRANCH  17  44
HETATM   44  O   UNK N   1      34.550  17.027  10.202  0.00  0.00    -0.359 OA
HETATM   45  H   UNK N   1      35.368  17.426  10.426  0.00  0.00     0.217 HD
ENDBRANCH  17  44
BRANCH   6  46
HETATM   46  O   UNK N   1      36.680  10.116  12.437  0.00  0.00    -0.355 OA
HETATM   47  C   UNK N   1      37.902   9.584  12.086  0.00  0.00     0.210 C 
ENDBRANCH   6  46
TORSDOF 11
ENDMDL
MODEL 9
REMARK VINA RESULT:      -6.7      2.562      6.629
REMARK  11 active torsions:
REMARK  status: ('A' for Active; 'I' for Inactive)
REMARK    1  A    between atoms: C_31  and  C_7 
REMARK    2  A    between atoms: C_15  and  N_32 
REMARK    3  A    between atoms: O_40  and  C_16 
REMARK    4  A    between atoms: C_17  and  O_43 
REMARK    5  A    between atoms: C_18  and  O_43 
REMARK    6  A    between atoms: C_24  and  C_30 
REMARK    7  A    between atoms: C_25  and  O_33 
REMARK    8  A    between atoms: O_36  and  C_28 
REMARK    9  A    between atoms: O_37  and  C_29 
REMARK   10  A    between atoms: O_41  and  C_30 
REMARK   11  A    between atoms: C_31  and  O_39 
ROOT
HETATM    1  C   UNK N   1      27.379  19.797   7.022  0.00  0.00     0.004 A 
HETATM    2  C   UNK N   1      28.376  19.202   7.787  0.00  0.00     0.017 A 
HETATM    3  C   UNK N   1      27.186  19.401   5.702  0.00  0.00     0.038 A 
HETATM    4  C   UNK N   1      34.444  12.616   6.811  0.00  0.00     0.076 C 
HETATM    5  C   UNK N   1      29.213  18.225   7.235  0.00  0.00     0.032 A 
HETATM    6  C   UNK N   1      27.992  18.422   5.119  0.00  0.00     0.083 A 
HETATM    7  C   UNK N   1      33.413  13.225   5.854  0.00  0.00     0.164 C 
HETATM    8  C   UNK N   1      29.053  17.840   5.883  0.00  0.00     0.062 A 
HETATM    9  C   UNK N   1      32.567  14.305   6.505  0.00  0.00     0.015 A 
HETATM   10  C   UNK N   1      32.657  14.615   7.887  0.00  0.00     0.004 A 
HETATM   11  C   UNK N   1      31.050  16.444   7.564  0.00  0.00     0.066 A 
HETATM   12  C   UNK N   1      30.935  16.098   6.201  0.00  0.00     0.066 A 
HETATM   13  C   UNK N   1      33.547  13.797   8.829  0.00  0.00     0.156 C 
HETATM   14  C   UNK N   1      30.245  17.586   8.087  0.00  0.00     0.197 C 
HETATM   15  C   UNK N   1      30.015  16.860   5.315  0.00  0.00     0.200 C 
HETATM   16  C   UNK N   1      31.695  15.035   5.686  0.00  0.00     0.090 A 
HETATM   17  C   UNK N   1      31.910  15.697   8.401  0.00  0.00     0.088 A 
HETATM   18  C   UNK N   1      33.882  12.405   8.210  0.00  0.00     0.077 C 
HETATM   19  O   UNK N   1      30.395  17.973   9.239  0.00  0.00    -0.286 OA
HETATM   20  O   UNK N   1      30.089  16.710   4.105  0.00  0.00    -0.286 OA
ENDROOT
BRANCH   7  21
HETATM   21  O   UNK N   1      34.099  13.851   4.782  0.00  0.00    -0.351 OA
BRANCH  21  22
HETATM   22  C   UNK N   1      34.379  12.994   3.693  0.00  0.00     0.263 C 
HETATM   23  C   UNK N   1      35.519  13.484   2.765  0.00  0.00     0.099 C 
HETATM   24  C   UNK N   1      35.310  13.327   1.246  0.00  0.00     0.257 C 
HETATM   25  C   UNK N   1      34.053  12.517   0.893  0.00  0.00     0.180 C 
HETATM   26  C   UNK N   1      32.914  12.938   1.821  0.00  0.00     0.151 C 
HETATM   27  C   UNK N   1      31.618  12.274   1.387  0.00  0.00     0.042 C 
HETATM   28  O   UNK N   1      33.179  12.490   3.128  0.00  0.00    -0.354 OA
BRANCH  24  29
HETATM   29  N   UNK N   1      36.500  12.770   0.568  0.00  0.00     0.087 N 
HETATM   30  C   UNK N   1      36.734  11.383   0.958  0.00  0.00     0.310 C 
HETATM   31  C   UNK N   1      37.698  13.523   0.918  0.00  0.00     0.310 C 
ENDBRANCH  24  29
BRANCH  25  32
HETATM   32  O   UNK N   1      33.718  12.749  -0.446  0.00  0.00    -0.391 OA
HETATM   33  H   UNK N   1      33.302  12.281  -1.185  0.00  0.00     0.210 HD
ENDBRANCH  25  32
ENDBRANCH  21  22
ENDBRANCH   7  21
BRANCH  18  34
HETATM   34  C   UNK N   1      34.837  11.540   9.053  0.00  0.00     0.034 C 
HETATM   35  C   UNK N   1      34.260  11.042  10.375  0.00  0.00     0.008 C 
ENDBRANCH  18  34
BRANCH  18  36
HETATM   36  O   UNK N   1      32.692  11.674   8.104  0.00  0.00    -0.389 OA
HETATM   37  H   UNK N   1      32.137  10.917   8.343  0.00  0.00     0.210 HD
ENDBRANCH  18  36
BRANCH  16  38
HETATM   38  O   UNK N   1      31.592  14.707   4.382  0.00  0.00    -0.359 OA
HETATM   39  H   UNK N   1      32.355  14.628   3.843  0.00  0.00     0.217 HD
ENDBRANCH  16  38
BRANCH  13  40
HETATM   40  C   UNK N   1      34.752  14.618   9.263  0.00  0.00     0.270 C 
HETATM   41  O   UNK N   1      35.627  14.909   8.456  0.00  0.00    -0.264 OA
BRANCH  40  42
HETATM   42  O   UNK N   1      34.823  15.075  10.537  0.00  0.00    -0.326 OA
HETATM   43  C   UNK N   1      35.334  16.315  10.849  0.00  0.00     0.213 C 
ENDBRANCH  40  42
ENDBRANCH  13  40
BRANCH  17  44
HETATM   44  O   UNK N   1      32.012  16.004   9.711  0.00  0.00    -0.359 OA
HETATM   45  H   UNK N   1      32.055  15.333  10.363  0.00  0.00     0.217 HD
ENDBRANCH  17  44
BRANCH   6  46
HETATM   46  O   UNK N   1      27.688  18.054   3.846  0.00  0.00    -0.355 OA
HETATM   47  C   UNK N   1      26.633  17.228   3.524  0.00  0.00     0.210 C 
ENDBRANCH   6  46
TORSDOF 11
ENDMDL
