MODEL 1
REMARK VINA RESULT:      -4.8      0.000      0.000
REMARK  9 active torsions:
REMARK  status: ('A' for Active; 'I' for Inactive)
REMARK    1  A    between atoms: N_1  and  C_2 
REMARK    2  A    between atoms: C_2  and  C_3 
REMARK    3  A    between atoms: C_3  and  C_4 
REMARK       I    between atoms: C_4  and  N_6 
REMARK    4  A    between atoms: N_6  and  C_7 
REMARK    5  A    between atoms: C_7  and  C_8 
REMARK    6  A    between atoms: C_8  and  C_9 
REMARK    7  A    between atoms: C_9  and  N_10 
REMARK    8  A    between atoms: C_9  and  C_11 
REMARK    9  A    between atoms: C_11  and  O_12 
ROOT
HETATM    1  C   UNK N   1      31.903  15.866   9.070  0.00  0.00     0.125 C 
ENDROOT
BRANCH   1   2
HETATM    2  N   UNK N   1      30.879  16.349   8.187  0.00  0.00    -0.361 N 
HETATM    3  C   UNK N   1      30.355  17.591   8.268  0.00  0.00     0.219 C 
HETATM    4  O   UNK N   1      30.741  18.377   9.120  0.00  0.00    -0.274 OA
HETATM    5  H   UNK N   1      30.543  15.744   7.486  0.00  0.00     0.162 HD
BRANCH   3   6
HETATM    6  C   UNK N   1      29.292  17.967   7.283  0.00  0.00     0.121 C 
BRANCH   6   7
HETATM    7  C   UNK N   1      28.242  18.904   7.846  0.00  0.00     0.120 C 
BRANCH   7   8
HETATM    8  N   UNK N   1      27.749  18.355   9.096  0.00  0.00    -0.430 N 
HETATM    9  H   UNK N   1      27.412  17.394   9.133  0.00  0.00     0.149 HD
HETATM   10  H   UNK N   1      27.740  18.932   9.938  0.00  0.00     0.149 HD
ENDBRANCH   7   8
ENDBRANCH   6   7
ENDBRANCH   3   6
ENDBRANCH   1   2
BRANCH   1  11
HETATM   11  C   UNK N   1      33.214  15.984   8.325  0.00  0.00     0.055 C 
BRANCH  11  12
HETATM   12  C   UNK N   1      34.132  17.077   8.844  0.00  0.00     0.174 C 
BRANCH  12  13
HETATM   13  N   UNK N   1      34.624  17.039  10.214  0.00  0.00    -0.418 N 
HETATM   14  H   UNK N   1      33.978  17.173  10.991  0.00  0.00     0.150 HD
HETATM   15  H   UNK N   1      35.615  16.879  10.396  0.00  0.00     0.150 HD
ENDBRANCH  12  13
BRANCH  12  16
HETATM   16  C   UNK N   1      34.548  18.210   7.961  0.00  0.00     0.163 C 
HETATM   17  O   UNK N   1      35.095  19.190   8.443  0.00  0.00    -0.648 OA
BRANCH  16  18
HETATM   18  O   UNK N   1      34.323  18.157   6.636  0.00  0.00    -0.775 OA
HETATM   19  H   UNK N   1      34.040  17.355   6.241  0.00  0.00     0.167 HD
ENDBRANCH  16  18
ENDBRANCH  12  16
ENDBRANCH  11  12
ENDBRANCH   1  11
TORSDOF 9
ENDMDL
MODEL 2
REMARK VINA RESULT:      -4.7      9.104     12.246
REMARK  9 active torsions:
REMARK  status: ('A' for Active; 'I' for Inactive)
REMARK    1  A    between atoms: N_1  and  C_2 
REMARK    2  A    between atoms: C_2  and  C_3 
REMARK    3  A    between atoms: C_3  and  C_4 
REMARK       I    between atoms: C_4  and  N_6 
REMARK    4  A    between atoms: N_6  and  C_7 
REMARK    5  A    between atoms: C_7  and  C_8 
REMARK    6  A    between atoms: C_8  and  C_9 
REMARK    7  A    between atoms: C_9  and  N_10 
REMARK    8  A    between atoms: C_9  and  C_11 
REMARK    9  A    between atoms: C_11  and  O_12 
ROOT
HETATM    1  C   UNK N   1      21.986  19.241   4.006  0.00  0.00     0.125 C 
ENDROOT
BRANCH   1   2
HETATM    2  N   UNK N   1      23.384  19.206   3.683  0.00  0.00    -0.361 N 
HETATM    3  C   UNK N   1      24.061  20.271   3.202  0.00  0.00     0.219 C 
HETATM    4  O   UNK N   1      23.496  21.338   3.016  0.00  0.00    -0.274 OA
HETATM    5  H   UNK N   1      23.875  18.363   3.819  0.00  0.00     0.162 HD
BRANCH   3   6
HETATM    6  C   UNK N   1      25.519  20.098   2.905  0.00  0.00     0.121 C 
BRANCH   6   7
HETATM    7  C   UNK N   1      26.390  20.033   4.143  0.00  0.00     0.120 C 
BRANCH   7   8
HETATM    8  N   UNK N   1      27.759  19.772   3.738  0.00  0.00    -0.430 N 
HETATM    9  H   UNK N   1      27.955  19.069   3.025  0.00  0.00     0.149 HD
HETATM   10  H   UNK N   1      28.526  20.291   4.166  0.00  0.00     0.149 HD
ENDBRANCH   7   8
ENDBRANCH   6   7
ENDBRANCH   3   6
ENDBRANCH   1   2
BRANCH   1  11
HETATM   11  C   UNK N   1      21.275  18.412   2.959  0.00  0.00     0.055 C 
BRANCH  11  12
HETATM   12  C   UNK N   1      20.200  19.162   2.192  0.00  0.00     0.174 C 
BRANCH  12  13
HETATM   13  N   UNK N   1      18.794  18.827   2.373  0.00  0.00    -0.418 N 
HETATM   14  H   UNK N   1      18.203  19.411   2.964  0.00  0.00     0.150 HD
HETATM   15  H   UNK N   1      18.401  18.009   1.909  0.00  0.00     0.150 HD
ENDBRANCH  12  13
BRANCH  12  16
HETATM   16  C   UNK N   1      20.562  20.255   1.238  0.00  0.00     0.163 C 
HETATM   17  O   UNK N   1      20.765  21.385   1.655  0.00  0.00    -0.648 OA
BRANCH  16  18
HETATM   18  O   UNK N   1      20.667  20.001  -0.078  0.00  0.00    -0.775 OA
HETATM   19  H   UNK N   1      21.194  20.553  -0.621  0.00  0.00     0.167 HD
ENDBRANCH  16  18
ENDBRANCH  12  16
ENDBRANCH  11  12
ENDBRANCH   1  11
TORSDOF 9
ENDMDL
MODEL 3
REMARK VINA RESULT:      -4.6     11.438     12.584
REMARK  9 active torsions:
REMARK  status: ('A' for Active; 'I' for Inactive)
REMARK    1  A    between atoms: N_1  and  C_2 
REMARK    2  A    between atoms: C_2  and  C_3 
REMARK    3  A    between atoms: C_3  and  C_4 
REMARK       I    between atoms: C_4  and  N_6 
REMARK    4  A    between atoms: N_6  and  C_7 
REMARK    5  A    between atoms: C_7  and  C_8 
REMARK    6  A    between atoms: C_8  and  C_9 
REMARK    7  A    between atoms: C_9  and  N_10 
REMARK    8  A    between atoms: C_9  and  C_11 
REMARK    9  A    between atoms: C_11  and  O_12 
ROOT
HETATM    1  C   UNK N   1      21.565  18.826   4.648  0.00  0.00     0.125 C 
ENDROOT
BRANCH   1   2
HETATM    2  N   UNK N   1      21.279  17.661   5.436  0.00  0.00    -0.361 N 
HETATM    3  C   UNK N   1      20.948  17.713   6.744  0.00  0.00     0.219 C 
HETATM    4  O   UNK N   1      20.876  18.784   7.328  0.00  0.00    -0.274 OA
HETATM    5  H   UNK N   1      21.327  16.779   5.001  0.00  0.00     0.162 HD
BRANCH   3   6
HETATM    6  C   UNK N   1      20.675  16.420   7.450  0.00  0.00     0.121 C 
BRANCH   6   7
HETATM    7  C   UNK N   1      20.044  16.592   8.816  0.00  0.00     0.120 C 
BRANCH   7   8
HETATM    8  N   UNK N   1      18.688  17.082   8.646  0.00  0.00    -0.430 N 
HETATM    9  H   UNK N   1      18.527  18.023   8.287  0.00  0.00     0.149 HD
HETATM   10  H   UNK N   1      17.896  16.485   8.886  0.00  0.00     0.149 HD
ENDBRANCH   7   8
ENDBRANCH   6   7
ENDBRANCH   3   6
ENDBRANCH   1   2
BRANCH   1  11
HETATM   11  C   UNK N   1      21.370  18.432   3.200  0.00  0.00     0.055 C 
BRANCH  11  12
HETATM   12  C   UNK N   1      20.477  19.374   2.410  0.00  0.00     0.174 C 
BRANCH  12  13
HETATM   13  N   UNK N   1      19.053  19.102   2.276  0.00  0.00    -0.418 N 
HETATM   14  H   UNK N   1      18.505  19.592   1.570  0.00  0.00     0.150 HD
HETATM   15  H   UNK N   1      18.604  18.423   2.890  0.00  0.00     0.150 HD
ENDBRANCH  12  13
BRANCH  12  16
HETATM   16  C   UNK N   1      21.042  20.594   1.757  0.00  0.00     0.163 C 
HETATM   17  O   UNK N   1      21.180  20.628   0.543  0.00  0.00    -0.648 OA
BRANCH  16  18
HETATM   18  O   UNK N   1      21.400  21.658   2.498  0.00  0.00    -0.775 OA
HETATM   19  H   UNK N   1      21.304  21.633   3.430  0.00  0.00     0.167 HD
ENDBRANCH  16  18
ENDBRANCH  12  16
ENDBRANCH  11  12
ENDBRANCH   1  11
TORSDOF 9
ENDMDL
MODEL 4
REMARK VINA RESULT:      -4.6     10.594     11.438
REMARK  9 active torsions:
REMARK  status: ('A' for Active; 'I' for Inactive)
REMARK    1  A    between atoms: N_1  and  C_2 
REMARK    2  A    between atoms: C_2  and  C_3 
REMARK    3  A    between atoms: C_3  and  C_4 
REMARK       I    between atoms: C_4  and  N_6 
REMARK    4  A    between atoms: N_6  and  C_7 
REMARK    5  A    between atoms: C_7  and  C_8 
REMARK    6  A    between atoms: C_8  and  C_9 
REMARK    7  A    between atoms: C_9  and  N_10 
REMARK    8  A    between atoms: C_9  and  C_11 
REMARK    9  A    between atoms: C_11  and  O_12 
ROOT
HETATM    1  C   UNK N   1      21.324  12.649  10.581  0.00  0.00     0.125 C 
ENDROOT
BRANCH   1   2
HETATM    2  N   UNK N   1      21.480  13.876   9.850  0.00  0.00    -0.361 N 
HETATM    3  C   UNK N   1      20.441  14.641   9.455  0.00  0.00     0.219 C 
HETATM    4  O   UNK N   1      19.292  14.313   9.710  0.00  0.00    -0.274 OA
HETATM    5  H   UNK N   1      22.392  14.174   9.626  0.00  0.00     0.162 HD
BRANCH   3   6
HETATM    6  C   UNK N   1      20.744  15.898   8.700  0.00  0.00     0.121 C 
BRANCH   6   7
HETATM    7  C   UNK N   1      20.433  15.811   7.220  0.00  0.00     0.120 C 
BRANCH   7   8
HETATM    8  N   UNK N   1      21.082  16.916   6.540  0.00  0.00    -0.430 N 
HETATM    9  H   UNK N   1      20.696  17.277   5.668  0.00  0.00     0.149 HD
HETATM   10  H   UNK N   1      21.927  17.332   6.934  0.00  0.00     0.149 HD
ENDBRANCH   7   8
ENDBRANCH   6   7
ENDBRANCH   3   6
ENDBRANCH   1   2
BRANCH   1  11
HETATM   11  C   UNK N   1      22.605  11.865  10.396  0.00  0.00     0.055 C 
BRANCH  11  12
HETATM   12  C   UNK N   1      23.639  12.092  11.485  0.00  0.00     0.174 C 
BRANCH  12  13
HETATM   13  N   UNK N   1      24.985  12.532  11.145  0.00  0.00    -0.418 N 
HETATM   14  H   UNK N   1      25.571  12.973  11.853  0.00  0.00     0.150 HD
HETATM   15  H   UNK N   1      25.340  12.400  10.199  0.00  0.00     0.150 HD
ENDBRANCH  12  13
BRANCH  12  16
HETATM   16  C   UNK N   1      23.297  11.868  12.923  0.00  0.00     0.163 C 
HETATM   17  O   UNK N   1      23.950  12.416  13.798  0.00  0.00    -0.648 OA
BRANCH  16  18
HETATM   18  O   UNK N   1      22.272  11.065  13.260  0.00  0.00    -0.775 OA
HETATM   19  H   UNK N   1      22.076  10.312  12.739  0.00  0.00     0.167 HD
ENDBRANCH  16  18
ENDBRANCH  12  16
ENDBRANCH  11  12
ENDBRANCH   1  11
TORSDOF 9
ENDMDL
MODEL 5
REMARK VINA RESULT:      -4.6      3.807      6.310
REMARK  9 active torsions:
REMARK  status: ('A' for Active; 'I' for Inactive)
REMARK    1  A    between atoms: N_1  and  C_2 
REMARK    2  A    between atoms: C_2  and  C_3 
REMARK    3  A    between atoms: C_3  and  C_4 
REMARK       I    between atoms: C_4  and  N_6 
REMARK    4  A    between atoms: N_6  and  C_7 
REMARK    5  A    between atoms: C_7  and  C_8 
REMARK    6  A    between atoms: C_8  and  C_9 
REMARK    7  A    between atoms: C_9  and  N_10 
REMARK    8  A    between atoms: C_9  and  C_11 
REMARK    9  A    between atoms: C_11  and  O_12 
ROOT
HETATM    1  C   UNK N   1      34.881  15.052   9.835  0.00  0.00     0.125 C 
ENDROOT
BRANCH   1   2
HETATM    2  N   UNK N   1      34.685  14.484  11.140  0.00  0.00    -0.361 N 
HETATM    3  C   UNK N   1      35.683  13.949  11.874  0.00  0.00     0.219 C 
HETATM    4  O   UNK N   1      36.828  13.925  11.448  0.00  0.00    -0.274 OA
HETATM    5  H   UNK N   1      33.775  14.485  11.518  0.00  0.00     0.162 HD
BRANCH   3   6
HETATM    6  C   UNK N   1      35.340  13.390  13.221  0.00  0.00     0.121 C 
BRANCH   6   7
HETATM    7  C   UNK N   1      36.451  13.531  14.241  0.00  0.00     0.120 C 
BRANCH   7   8
HETATM    8  N   UNK N   1      36.883  14.916  14.273  0.00  0.00    -0.430 N 
HETATM    9  H   UNK N   1      36.223  15.651  14.526  0.00  0.00     0.149 HD
HETATM   10  H   UNK N   1      37.849  15.155  14.042  0.00  0.00     0.149 HD
ENDBRANCH   7   8
ENDBRANCH   6   7
ENDBRANCH   3   6
ENDBRANCH   1   2
BRANCH   1  11
HETATM   11  C   UNK N   1      34.937  16.553  10.016  0.00  0.00     0.055 C 
BRANCH  11  12
HETATM   12  C   UNK N   1      34.049  17.331   9.061  0.00  0.00     0.174 C 
BRANCH  12  13
HETATM   13  N   UNK N   1      32.607  17.129   9.063  0.00  0.00    -0.418 N 
HETATM   14  H   UNK N   1      32.212  16.264   8.695  0.00  0.00     0.150 HD
HETATM   15  H   UNK N   1      31.991  17.853   9.433  0.00  0.00     0.150 HD
ENDBRANCH  12  13
BRANCH  12  16
HETATM   16  C   UNK N   1      34.636  18.317   8.102  0.00  0.00     0.163 C 
HETATM   17  O   UNK N   1      35.296  19.256   8.521  0.00  0.00    -0.648 OA
BRANCH  16  18
HETATM   18  O   UNK N   1      34.443  18.176   6.779  0.00  0.00    -0.775 OA
HETATM   19  H   UNK N   1      33.757  18.652   6.352  0.00  0.00     0.167 HD
ENDBRANCH  16  18
ENDBRANCH  12  16
ENDBRANCH  11  12
ENDBRANCH   1  11
TORSDOF 9
ENDMDL
MODEL 6
REMARK VINA RESULT:      -4.5      6.442      8.305
REMARK  9 active torsions:
REMARK  status: ('A' for Active; 'I' for Inactive)
REMARK    1  A    between atoms: N_1  and  C_2 
REMARK    2  A    between atoms: C_2  and  C_3 
REMARK    3  A    between atoms: C_3  and  C_4 
REMARK       I    between atoms: C_4  and  N_6 
REMARK    4  A    between atoms: N_6  and  C_7 
REMARK    5  A    between atoms: C_7  and  C_8 
REMARK    6  A    between atoms: C_8  and  C_9 
REMARK    7  A    between atoms: C_9  and  N_10 
REMARK    8  A    between atoms: C_9  and  C_11 
REMARK    9  A    between atoms: C_11  and  O_12 
ROOT
HETATM    1  C   UNK N   1      36.105  14.177  13.365  0.00  0.00     0.125 C 
ENDROOT
BRANCH   1   2
HETATM    2  N   UNK N   1      35.365  13.565  14.433  0.00  0.00    -0.361 N 
HETATM    3  C   UNK N   1      35.763  13.596  15.723  0.00  0.00     0.219 C 
HETATM    4  O   UNK N   1      36.797  14.161  16.045  0.00  0.00    -0.274 OA
HETATM    5  H   UNK N   1      34.525  13.100  14.214  0.00  0.00     0.162 HD
BRANCH   3   6
HETATM    6  C   UNK N   1      34.896  12.917  16.739  0.00  0.00     0.121 C 
BRANCH   6   7
HETATM    7  C   UNK N   1      35.314  13.181  18.171  0.00  0.00     0.120 C 
BRANCH   7   8
HETATM    8  N   UNK N   1      35.319  14.614  18.400  0.00  0.00    -0.430 N 
HETATM    9  H   UNK N   1      36.151  15.068  18.777  0.00  0.00     0.149 HD
HETATM   10  H   UNK N   1      34.490  15.168  18.182  0.00  0.00     0.149 HD
ENDBRANCH   7   8
ENDBRANCH   6   7
ENDBRANCH   3   6
ENDBRANCH   1   2
BRANCH   1  11
HETATM   11  C   UNK N   1      35.400  13.806  12.079  0.00  0.00     0.055 C 
BRANCH  11  12
HETATM   12  C   UNK N   1      34.862  14.992  11.296  0.00  0.00     0.174 C 
BRANCH  12  13
HETATM   13  N   UNK N   1      33.473  15.019  10.860  0.00  0.00    -0.418 N 
HETATM   14  H   UNK N   1      32.860  14.230  11.061  0.00  0.00     0.150 HD
HETATM   15  H   UNK N   1      33.114  15.828  10.354  0.00  0.00     0.150 HD
ENDBRANCH  12  13
BRANCH  12  16
HETATM   16  C   UNK N   1      35.746  16.150  10.959  0.00  0.00     0.163 C 
HETATM   17  O   UNK N   1      35.268  17.269  10.849  0.00  0.00    -0.648 OA
BRANCH  16  18
HETATM   18  O   UNK N   1      37.065  15.967  10.777  0.00  0.00    -0.775 OA
HETATM   19  H   UNK N   1      37.672  16.624  11.057  0.00  0.00     0.167 HD
ENDBRANCH  16  18
ENDBRANCH  12  16
ENDBRANCH  11  12
ENDBRANCH   1  11
TORSDOF 9
ENDMDL
MODEL 7
REMARK VINA RESULT:      -4.5     13.016     14.220
REMARK  9 active torsions:
REMARK  status: ('A' for Active; 'I' for Inactive)
REMARK    1  A    between atoms: N_1  and  C_2 
REMARK    2  A    between atoms: C_2  and  C_3 
REMARK    3  A    between atoms: C_3  and  C_4 
REMARK       I    between atoms: C_4  and  N_6 
REMARK    4  A    between atoms: N_6  and  C_7 
REMARK    5  A    between atoms: C_7  and  C_8 
REMARK    6  A    between atoms: C_8  and  C_9 
REMARK    7  A    between atoms: C_9  and  N_10 
REMARK    8  A    between atoms: C_9  and  C_11 
REMARK    9  A    between atoms: C_11  and  O_12 
ROOT
HETATM    1  C   UNK N   1      20.567  17.302   2.419  0.00  0.00     0.125 C 
ENDROOT
BRANCH   1   2
HETATM    2  N   UNK N   1      19.771  16.112   2.308  0.00  0.00    -0.361 N 
HETATM    3  C   UNK N   1      19.951  15.187   1.340  0.00  0.00     0.219 C 
HETATM    4  O   UNK N   1      20.823  15.329   0.496  0.00  0.00    -0.274 OA
HETATM    5  H   UNK N   1      19.058  15.962   2.970  0.00  0.00     0.162 HD
BRANCH   3   6
HETATM    6  C   UNK N   1      19.050  13.991   1.339  0.00  0.00     0.121 C 
BRANCH   6   7
HETATM    7  C   UNK N   1      18.143  13.911   0.128  0.00  0.00     0.120 C 
BRANCH   7   8
HETATM    8  N   UNK N   1      17.819  15.258  -0.302  0.00  0.00    -0.430 N 
HETATM    9  H   UNK N   1      18.183  15.613  -1.186  0.00  0.00     0.149 HD
HETATM   10  H   UNK N   1      17.227  15.851   0.281  0.00  0.00     0.149 HD
ENDBRANCH   7   8
ENDBRANCH   6   7
ENDBRANCH   3   6
ENDBRANCH   1   2
BRANCH   1  11
HETATM   11  C   UNK N   1      19.634  18.473   2.199  0.00  0.00     0.055 C 
BRANCH  11  12
HETATM   12  C   UNK N   1      20.338  19.786   1.902  0.00  0.00     0.174 C 
BRANCH  12  13
HETATM   13  N   UNK N   1      20.509  20.237   0.529  0.00  0.00    -0.418 N 
HETATM   14  H   UNK N   1      20.475  19.565  -0.237  0.00  0.00     0.150 HD
HETATM   15  H   UNK N   1      20.661  21.226   0.332  0.00  0.00     0.150 HD
ENDBRANCH  12  13
BRANCH  12  16
HETATM   16  C   UNK N   1      20.868  20.637   3.011  0.00  0.00     0.163 C 
HETATM   17  O   UNK N   1      20.465  20.472   4.152  0.00  0.00    -0.648 OA
BRANCH  16  18
HETATM   18  O   UNK N   1      21.786  21.586   2.759  0.00  0.00    -0.775 OA
HETATM   19  H   UNK N   1      22.275  21.964   3.464  0.00  0.00     0.167 HD
ENDBRANCH  16  18
ENDBRANCH  12  16
ENDBRANCH  11  12
ENDBRANCH   1  11
TORSDOF 9
ENDMDL
MODEL 8
REMARK VINA RESULT:      -4.4     10.634     12.274
REMARK  9 active torsions:
REMARK  status: ('A' for Active; 'I' for Inactive)
REMARK    1  A    between atoms: N_1  and  C_2 
REMARK    2  A    between atoms: C_2  and  C_3 
REMARK    3  A    between atoms: C_3  and  C_4 
REMARK       I    between atoms: C_4  and  N_6 
REMARK    4  A    between atoms: N_6  and  C_7 
REMARK    5  A    between atoms: C_7  and  C_8 
REMARK    6  A    between atoms: C_8  and  C_9 
REMARK    7  A    between atoms: C_9  and  N_10 
REMARK    8  A    between atoms: C_9  and  C_11 
REMARK    9  A    between atoms: C_11  and  O_12 
ROOT
HETATM    1  C   UNK N   1      20.070  14.630   9.561  0.00  0.00     0.125 C 
ENDROOT
BRANCH   1   2
HETATM    2  N   UNK N   1      21.269  13.887   9.830  0.00  0.00    -0.361 N 
HETATM    3  C   UNK N   1      21.672  12.834   9.086  0.00  0.00     0.219 C 
HETATM    4  O   UNK N   1      21.014  12.459   8.127  0.00  0.00    -0.274 OA
HETATM    5  H   UNK N   1      21.826  14.158  10.595  0.00  0.00     0.162 HD
BRANCH   3   6
HETATM    6  C   UNK N   1      22.944  12.147   9.476  0.00  0.00     0.121 C 
BRANCH   6   7
HETATM    7  C   UNK N   1      23.366  12.409  10.907  0.00  0.00     0.120 C 
BRANCH   7   8
HETATM    8  N   UNK N   1      24.811  12.539  10.952  0.00  0.00    -0.430 N 
HETATM    9  H   UNK N   1      25.272  12.814  11.819  0.00  0.00     0.149 HD
HETATM   10  H   UNK N   1      25.365  12.354  10.115  0.00  0.00     0.149 HD
ENDBRANCH   7   8
ENDBRANCH   6   7
ENDBRANCH   3   6
ENDBRANCH   1   2
BRANCH   1  11
HETATM   11  C   UNK N   1      20.485  15.866   8.795  0.00  0.00     0.055 C 
BRANCH  11  12
HETATM   12  C   UNK N   1      19.520  17.032   8.918  0.00  0.00     0.174 C 
BRANCH  12  13
HETATM   13  N   UNK N   1      18.092  16.795   9.072  0.00  0.00    -0.418 N 
HETATM   14  H   UNK N   1      17.706  15.869   8.887  0.00  0.00     0.150 HD
HETATM   15  H   UNK N   1      17.477  17.554   9.363  0.00  0.00     0.150 HD
ENDBRANCH  12  13
BRANCH  12  16
HETATM   16  C   UNK N   1      20.016  18.442   8.885  0.00  0.00     0.163 C 
HETATM   17  O   UNK N   1      19.862  19.166   9.857  0.00  0.00    -0.648 OA
BRANCH  16  18
HETATM   18  O   UNK N   1      20.631  18.920   7.789  0.00  0.00    -0.775 OA
HETATM   19  H   UNK N   1      21.559  18.830   7.695  0.00  0.00     0.167 HD
ENDBRANCH  16  18
ENDBRANCH  12  16
ENDBRANCH  11  12
ENDBRANCH   1  11
TORSDOF 9
ENDMDL
MODEL 9
REMARK VINA RESULT:      -4.4      2.457      3.074
REMARK  9 active torsions:
REMARK  status: ('A' for Active; 'I' for Inactive)
REMARK    1  A    between atoms: N_1  and  C_2 
REMARK    2  A    between atoms: C_2  and  C_3 
REMARK    3  A    between atoms: C_3  and  C_4 
REMARK       I    between atoms: C_4  and  N_6 
REMARK    4  A    between atoms: N_6  and  C_7 
REMARK    5  A    between atoms: C_7  and  C_8 
REMARK    6  A    between atoms: C_8  and  C_9 
REMARK    7  A    between atoms: C_9  and  N_10 
REMARK    8  A    between atoms: C_9  and  C_11 
REMARK    9  A    between atoms: C_11  and  O_12 
ROOT
HETATM    1  C   UNK N   1      31.569  17.536   8.089  0.00  0.00     0.125 C 
ENDROOT
BRANCH   1   2
HETATM    2  N   UNK N   1      31.464  17.230   6.689  0.00  0.00    -0.361 N 
HETATM    3  C   UNK N   1      30.295  17.229   6.016  0.00  0.00     0.219 C 
HETATM    4  O   UNK N   1      29.247  17.497   6.584  0.00  0.00    -0.274 OA
HETATM    5  H   UNK N   1      32.288  17.009   6.196  0.00  0.00     0.162 HD
BRANCH   3   6
HETATM    6  C   UNK N   1      30.327  16.892   4.557  0.00  0.00     0.121 C 
BRANCH   6   7
HETATM    7  C   UNK N   1      31.725  16.705   4.004  0.00  0.00     0.120 C 
BRANCH   7   8
HETATM    8  N   UNK N   1      31.785  17.295   2.679  0.00  0.00    -0.430 N 
HETATM    9  H   UNK N   1      31.424  16.782   1.875  0.00  0.00     0.149 HD
HETATM   10  H   UNK N   1      32.189  18.224   2.552  0.00  0.00     0.149 HD
ENDBRANCH   7   8
ENDBRANCH   6   7
ENDBRANCH   3   6
ENDBRANCH   1   2
BRANCH   1  11
HETATM   11  C   UNK N   1      32.618  16.607   8.661  0.00  0.00     0.055 C 
BRANCH  11  12
HETATM   12  C   UNK N   1      33.942  17.280   8.980  0.00  0.00     0.174 C 
BRANCH  12  13
HETATM   13  N   UNK N   1      34.633  16.994  10.229  0.00  0.00    -0.418 N 
HETATM   14  H   UNK N   1      34.112  16.639  11.030  0.00  0.00     0.150 HD
HETATM   15  H   UNK N   1      35.638  17.149  10.302  0.00  0.00     0.150 HD
ENDBRANCH  12  13
BRANCH  12  16
HETATM   16  C   UNK N   1      34.560  18.245   8.019  0.00  0.00     0.163 C 
HETATM   17  O   UNK N   1      35.112  19.251   8.437  0.00  0.00    -0.648 OA
BRANCH  16  18
HETATM   18  O   UNK N   1      34.511  18.012   6.696  0.00  0.00    -0.775 OA
HETATM   19  H   UNK N   1      34.794  18.671   6.093  0.00  0.00     0.167 HD
ENDBRANCH  16  18
ENDBRANCH  12  16
ENDBRANCH  11  12
ENDBRANCH   1  11
TORSDOF 9
ENDMDL
