MODEL 1
REMARK VINA RESULT:      -8.0      0.000      0.000
REMARK  6 active torsions:
REMARK  status: ('A' for Active; 'I' for Inactive)
REMARK    1  A    between atoms: C_14  and  C_7 
REMARK    2  A    between atoms: C_15  and  C_8 
REMARK    3  A    between atoms: C_16  and  C_13 
REMARK    4  A    between atoms: C_17  and  C_13 
REMARK    5  A    between atoms: N_19  and  C_14 
REMARK    6  A    between atoms: N_22  and  C_15 
ROOT
HETATM    1  C   UNK N   1      33.984  17.612   7.937  0.00  0.00     0.259 C 
HETATM    2  O   UNK N   1      34.575  18.343   7.158  0.00  0.00    -0.280 OA
ENDROOT
BRANCH   1   3
HETATM    3  C   UNK N   1      32.503  17.560   7.990  0.00  0.00     0.161 A 
HETATM    4  N   UNK N   1      31.698  17.864   9.048  0.00  0.00    -0.337 N 
HETATM    5  C   UNK N   1      30.455  17.646   8.560  0.00  0.00     0.060 A 
HETATM    6  H   UNK N   1      31.959  18.168   9.948  0.00  0.00     0.167 HD
HETATM    7  C   UNK N   1      29.215  17.824   9.173  0.00  0.00     0.033 A 
HETATM    8  C   UNK N   1      30.539  17.209   7.280  0.00  0.00     0.061 A 
HETATM    9  C   UNK N   1      28.058  17.529   8.403  0.00  0.00     0.017 A 
HETATM   10  C   UNK N   1      28.176  17.062   7.061  0.00  0.00     0.009 A 
HETATM   11  C   UNK N   1      29.447  16.900   6.500  0.00  0.00     0.047 A 
HETATM   12  N   UNK N   1      31.803  17.147   6.909  0.00  0.00    -0.337 N 
ATOM     13  HN  UNK N   1      32.172  16.852   6.006  1.00  0.00     0.167 HD
BRANCH  10  14
HETATM   14  C   UNK N   1      26.995  16.752   6.229  0.00  0.00     0.102 C 
HETATM   15  N   UNK N   1      26.923  17.167   5.020  0.00  0.00    -0.385 N 
HETATM   16  H   UNK N   1      26.303  16.737   4.387  0.00  0.00     0.157 HD
HETATM   17  H   UNK N   1      27.488  17.916   4.721  0.00  0.00     0.157 HD
BRANCH  14  18
HETATM   18  N   UNK N   1      25.937  15.974   6.761  0.00  0.00    -0.385 N 
HETATM   19  H   UNK N   1      25.089  16.370   7.067  0.00  0.00     0.157 HD
HETATM   20  H   UNK N   1      26.055  14.998   6.827  0.00  0.00     0.157 HD
ENDBRANCH  14  18
ENDBRANCH  10  14
ENDBRANCH   1   3
BRANCH   1  21
HETATM   21  C   UNK N   1      34.700  16.803   8.954  0.00  0.00     0.161 A 
HETATM   22  N   UNK N   1      35.081  15.532   8.679  0.00  0.00    -0.337 N 
HETATM   23  C   UNK N   1      35.498  15.048   9.838  0.00  0.00     0.060 A 
ATOM     24  HN  UNK N   1      35.053  15.054   7.780  1.00  0.00     0.167 HD
HETATM   25  C   UNK N   1      35.922  13.756  10.088  0.00  0.00     0.033 A 
HETATM   26  C   UNK N   1      35.381  15.999  10.801  0.00  0.00     0.061 A 
HETATM   27  C   UNK N   1      36.215  13.425  11.414  0.00  0.00     0.017 A 
HETATM   28  C   UNK N   1      36.077  14.387  12.447  0.00  0.00     0.009 A 
HETATM   29  C   UNK N   1      35.662  15.710  12.136  0.00  0.00     0.047 A 
HETATM   30  N   UNK N   1      34.892  17.139  10.259  0.00  0.00    -0.337 N 
HETATM   31  H   UNK N   1      34.718  18.000  10.702  0.00  0.00     0.167 HD
BRANCH  28  32
HETATM   32  C   UNK N   1      36.323  13.980  13.844  0.00  0.00     0.102 C 
HETATM   33  N   UNK N   1      35.788  12.911  14.310  0.00  0.00    -0.385 N 
HETATM   34  H   UNK N   1      36.160  12.482  15.114  0.00  0.00     0.157 HD
ATOM     35  HN  UNK N   1      34.975  12.504  13.847  1.00  0.00     0.157 HD
BRANCH  32  36
HETATM   36  N   UNK N   1      37.086  14.803  14.701  0.00  0.00    -0.385 N 
HETATM   37  H   UNK N   1      37.483  15.662  14.428  0.00  0.00     0.157 HD
HETATM   38  H   UNK N   1      37.228  14.501  15.626  0.00  0.00     0.157 HD
ENDBRANCH  32  36
ENDBRANCH  28  32
ENDBRANCH   1  21
TORSDOF 6
ENDMDL
MODEL 2
REMARK VINA RESULT:      -7.9      0.991      1.793
REMARK  6 active torsions:
REMARK  status: ('A' for Active; 'I' for Inactive)
REMARK    1  A    between atoms: C_14  and  C_7 
REMARK    2  A    between atoms: C_15  and  C_8 
REMARK    3  A    between atoms: C_16  and  C_13 
REMARK    4  A    between atoms: C_17  and  C_13 
REMARK    5  A    between atoms: N_19  and  C_14 
REMARK    6  A    between atoms: N_22  and  C_15 
ROOT
HETATM    1  C   UNK N   1      34.498  18.028   8.539  0.00  0.00     0.259 C 
HETATM    2  O   UNK N   1      35.069  19.102   8.431  0.00  0.00    -0.280 OA
ENDROOT
BRANCH   1   3
HETATM    3  C   UNK N   1      33.219  17.750   7.842  0.00  0.00     0.161 A 
HETATM    4  N   UNK N   1      33.034  17.495   6.515  0.00  0.00    -0.337 N 
HETATM    5  C   UNK N   1      31.696  17.318   6.421  0.00  0.00     0.060 A 
HETATM    6  H   UNK N   1      33.711  17.450   5.800  0.00  0.00     0.167 HD
HETATM    7  C   UNK N   1      30.918  16.992   5.310  0.00  0.00     0.033 A 
HETATM    8  C   UNK N   1      31.127  17.490   7.639  0.00  0.00     0.061 A 
HETATM    9  C   UNK N   1      29.520  16.849   5.512  0.00  0.00     0.017 A 
HETATM   10  C   UNK N   1      28.947  17.045   6.803  0.00  0.00     0.009 A 
HETATM   11  C   UNK N   1      29.776  17.374   7.880  0.00  0.00     0.047 A 
HETATM   12  N   UNK N   1      32.057  17.761   8.534  0.00  0.00    -0.337 N 
ATOM     13  HN  UNK N   1      31.928  17.941   9.529  1.00  0.00     0.167 HD
BRANCH  10  14
HETATM   14  C   UNK N   1      27.497  16.898   7.051  0.00  0.00     0.102 C 
HETATM   15  N   UNK N   1      27.066  16.546   8.203  0.00  0.00    -0.385 N 
HETATM   16  H   UNK N   1      26.131  16.724   8.455  0.00  0.00     0.157 HD
HETATM   17  H   UNK N   1      27.669  16.098   8.840  0.00  0.00     0.157 HD
BRANCH  14  18
HETATM   18  N   UNK N   1      26.570  17.167   6.014  0.00  0.00    -0.385 N 
HETATM   19  H   UNK N   1      26.846  17.493   5.126  0.00  0.00     0.157 HD
HETATM   20  H   UNK N   1      25.611  17.021   6.187  0.00  0.00     0.157 HD
ENDBRANCH  14  18
ENDBRANCH  10  14
ENDBRANCH   1   3
BRANCH   1  21
HETATM   21  C   UNK N   1      34.987  16.967   9.452  0.00  0.00     0.161 A 
HETATM   22  N   UNK N   1      34.934  15.663   9.084  0.00  0.00    -0.337 N 
HETATM   23  C   UNK N   1      35.249  14.992  10.180  0.00  0.00     0.060 A 
ATOM     24  HN  UNK N   1      34.702  15.284   8.167  1.00  0.00     0.167 HD
HETATM   25  C   UNK N   1      35.262  13.617  10.330  0.00  0.00     0.033 A 
HETATM   26  C   UNK N   1      35.494  15.860  11.195  0.00  0.00     0.061 A 
HETATM   27  C   UNK N   1      35.518  13.117  11.609  0.00  0.00     0.017 A 
HETATM   28  C   UNK N   1      35.751  13.996  12.697  0.00  0.00     0.009 A 
HETATM   29  C   UNK N   1      35.752  15.402  12.487  0.00  0.00     0.047 A 
HETATM   30  N   UNK N   1      35.354  17.131  10.753  0.00  0.00    -0.337 N 
HETATM   31  H   UNK N   1      35.485  17.969  11.251  0.00  0.00     0.167 HD
BRANCH  28  32
HETATM   32  C   UNK N   1      35.943  13.433  14.047  0.00  0.00     0.102 C 
HETATM   33  N   UNK N   1      37.021  13.670  14.700  0.00  0.00    -0.385 N 
HETATM   34  H   UNK N   1      37.044  13.554  15.677  0.00  0.00     0.157 HD
ATOM     35  HN  UNK N   1      37.858  13.980  14.205  1.00  0.00     0.157 HD
BRANCH  32  36
HETATM   36  N   UNK N   1      34.975  12.565  14.600  0.00  0.00    -0.385 N 
HETATM   37  H   UNK N   1      34.337  12.041  14.065  0.00  0.00     0.157 HD
HETATM   38  H   UNK N   1      34.937  12.479  15.580  0.00  0.00     0.157 HD
ENDBRANCH  32  36
ENDBRANCH  28  32
ENDBRANCH   1  21
TORSDOF 6
ENDMDL
MODEL 3
REMARK VINA RESULT:      -7.9      4.608      7.999
REMARK  6 active torsions:
REMARK  status: ('A' for Active; 'I' for Inactive)
REMARK    1  A    between atoms: C_14  and  C_7 
REMARK    2  A    between atoms: C_15  and  C_8 
REMARK    3  A    between atoms: C_16  and  C_13 
REMARK    4  A    between atoms: C_17  and  C_13 
REMARK    5  A    between atoms: N_19  and  C_14 
REMARK    6  A    between atoms: N_22  and  C_15 
ROOT
HETATM    1  C   UNK N   1      26.715  20.024   5.272  0.00  0.00     0.259 C 
HETATM    2  O   UNK N   1      27.112  21.129   4.938  0.00  0.00    -0.280 OA
ENDROOT
BRANCH   1   3
HETATM    3  C   UNK N   1      25.372  19.528   4.890  0.00  0.00     0.161 A 
HETATM    4  N   UNK N   1      24.734  18.414   5.353  0.00  0.00    -0.337 N 
HETATM    5  C   UNK N   1      23.558  18.433   4.683  0.00  0.00     0.060 A 
HETATM    6  H   UNK N   1      25.053  17.757   6.014  0.00  0.00     0.167 HD
HETATM    7  C   UNK N   1      22.472  17.562   4.768  0.00  0.00     0.033 A 
HETATM    8  C   UNK N   1      23.528  19.500   3.848  0.00  0.00     0.061 A 
HETATM    9  C   UNK N   1      21.347  17.842   3.949  0.00  0.00     0.017 A 
HETATM   10  C   UNK N   1      21.345  18.967   3.072  0.00  0.00     0.009 A 
HETATM   11  C   UNK N   1      22.465  19.804   3.027  0.00  0.00     0.047 A 
HETATM   12  N   UNK N   1      24.646  20.190   3.960  0.00  0.00    -0.337 N 
ATOM     13  HN  UNK N   1      24.907  21.038   3.457  1.00  0.00     0.167 HD
BRANCH  10  14
HETATM   14  C   UNK N   1      20.189  19.292   2.211  0.00  0.00     0.102 C 
HETATM   15  N   UNK N   1      20.294  20.165   1.281  0.00  0.00    -0.385 N 
HETATM   16  H   UNK N   1      19.646  20.178   0.541  0.00  0.00     0.157 HD
HETATM   17  H   UNK N   1      21.025  20.826   1.306  0.00  0.00     0.157 HD
BRANCH  14  18
HETATM   18  N   UNK N   1      18.955  18.620   2.397  0.00  0.00    -0.385 N 
HETATM   19  H   UNK N   1      18.814  17.958   3.112  0.00  0.00     0.157 HD
HETATM   20  H   UNK N   1      18.209  18.824   1.787  0.00  0.00     0.157 HD
ENDBRANCH  14  18
ENDBRANCH  10  14
ENDBRANCH   1   3
BRANCH   1  21
HETATM   21  C   UNK N   1      27.505  19.142   6.165  0.00  0.00     0.161 A 
HETATM   22  N   UNK N   1      27.439  19.287   7.511  0.00  0.00    -0.337 N 
HETATM   23  C   UNK N   1      28.394  18.502   7.982  0.00  0.00     0.060 A 
ATOM     24  HN  UNK N   1      26.795  19.871   8.043  1.00  0.00     0.167 HD
HETATM   25  C   UNK N   1      28.770  18.362   9.306  0.00  0.00     0.033 A 
HETATM   26  C   UNK N   1      29.030  17.886   6.952  0.00  0.00     0.061 A 
HETATM   27  C   UNK N   1      29.882  17.560   9.572  0.00  0.00     0.017 A 
HETATM   28  C   UNK N   1      30.585  16.924   8.518  0.00  0.00     0.009 A 
HETATM   29  C   UNK N   1      30.145  17.078   7.175  0.00  0.00     0.047 A 
HETATM   30  N   UNK N   1      28.469  18.261   5.779  0.00  0.00    -0.337 N 
HETATM   31  H   UNK N   1      28.702  17.968   4.869  0.00  0.00     0.167 HD
BRANCH  28  32
HETATM   32  C   UNK N   1      31.800  16.146   8.831  0.00  0.00     0.102 C 
HETATM   33  N   UNK N   1      32.803  16.163   8.031  0.00  0.00    -0.385 N 
HETATM   34  H   UNK N   1      33.695  15.899   8.351  0.00  0.00     0.157 HD
ATOM     35  HN  UNK N   1      32.675  16.449   7.060  1.00  0.00     0.157 HD
BRANCH  32  36
HETATM   36  N   UNK N   1      31.839  15.318   9.974  0.00  0.00    -0.385 N 
HETATM   37  H   UNK N   1      31.821  14.334   9.941  0.00  0.00     0.157 HD
HETATM   38  H   UNK N   1      31.886  15.750  10.857  0.00  0.00     0.157 HD
ENDBRANCH  32  36
ENDBRANCH  28  32
ENDBRANCH   1  21
TORSDOF 6
ENDMDL
MODEL 4
REMARK VINA RESULT:      -7.9      1.864      8.846
REMARK  6 active torsions:
REMARK  status: ('A' for Active; 'I' for Inactive)
REMARK    1  A    between atoms: C_14  and  C_7 
REMARK    2  A    between atoms: C_15  and  C_8 
REMARK    3  A    between atoms: C_16  and  C_13 
REMARK    4  A    between atoms: C_17  and  C_13 
REMARK    5  A    between atoms: N_19  and  C_14 
REMARK    6  A    between atoms: N_22  and  C_15 
ROOT
HETATM    1  C   UNK N   1      34.487  17.912   8.314  0.00  0.00     0.259 C 
HETATM    2  O   UNK N   1      34.931  19.048   8.381  0.00  0.00    -0.280 OA
ENDROOT
BRANCH   1   3
HETATM    3  C   UNK N   1      34.949  16.838   9.225  0.00  0.00     0.161 A 
HETATM    4  N   UNK N   1      35.317  15.567   8.892  0.00  0.00    -0.337 N 
HETATM    5  C   UNK N   1      35.643  15.019  10.086  0.00  0.00     0.060 A 
HETATM    6  H   UNK N   1      35.340  15.151   8.000  0.00  0.00     0.167 HD
HETATM    7  C   UNK N   1      36.128  13.745  10.377  0.00  0.00     0.033 A 
HETATM    8  C   UNK N   1      35.446  15.928  11.072  0.00  0.00     0.061 A 
HETATM    9  C   UNK N   1      36.405  13.447  11.738  0.00  0.00     0.017 A 
HETATM   10  C   UNK N   1      36.181  14.419  12.756  0.00  0.00     0.009 A 
HETATM   11  C   UNK N   1      35.688  15.681  12.405  0.00  0.00     0.047 A 
HETATM   12  N   UNK N   1      35.013  17.063  10.557  0.00  0.00    -0.337 N 
ATOM     13  HN  UNK N   1      34.778  17.921  11.054  1.00  0.00     0.167 HD
BRANCH  10  14
HETATM   14  C   UNK N   1      36.463  14.147  14.181  0.00  0.00     0.102 C 
HETATM   15  N   UNK N   1      36.026  13.081  14.739  0.00  0.00    -0.385 N 
HETATM   16  H   UNK N   1      36.438  12.756  15.572  0.00  0.00     0.157 HD
HETATM   17  H   UNK N   1      35.277  12.585  14.336  0.00  0.00     0.157 HD
BRANCH  14  18
HETATM   18  N   UNK N   1      37.240  15.059  14.936  0.00  0.00    -0.385 N 
HETATM   19  H   UNK N   1      38.140  14.839  15.271  0.00  0.00     0.157 HD
HETATM   20  H   UNK N   1      36.866  15.948  15.134  0.00  0.00     0.157 HD
ENDBRANCH  14  18
ENDBRANCH  10  14
ENDBRANCH   1   3
BRANCH   1  21
HETATM   21  C   UNK N   1      33.532  17.503   7.256  0.00  0.00     0.161 A 
HETATM   22  N   UNK N   1      33.936  17.400   5.966  0.00  0.00    -0.337 N 
HETATM   23  C   UNK N   1      32.820  17.219   5.278  0.00  0.00     0.060 A 
ATOM     24  HN  UNK N   1      34.888  17.450   5.606  1.00  0.00     0.167 HD
HETATM   25  C   UNK N   1      32.704  17.130   3.903  0.00  0.00     0.033 A 
HETATM   26  C   UNK N   1      31.757  17.207   6.123  0.00  0.00     0.061 A 
HETATM   27  C   UNK N   1      31.413  17.051   3.375  0.00  0.00     0.017 A 
HETATM   28  C   UNK N   1      30.280  17.063   4.228  0.00  0.00     0.009 A 
HETATM   29  C   UNK N   1      30.452  17.130   5.637  0.00  0.00     0.047 A 
HETATM   30  N   UNK N   1      32.185  17.365   7.397  0.00  0.00    -0.337 N 
HETATM   31  H   UNK N   1      31.651  17.379   8.224  0.00  0.00     0.167 HD
BRANCH  28  32
HETATM   32  C   UNK N   1      28.931  17.053   3.630  0.00  0.00     0.102 C 
HETATM   33  N   UNK N   1      28.534  16.043   2.945  0.00  0.00    -0.385 N 
HETATM   34  H   UNK N   1      27.573  15.896   2.793  0.00  0.00     0.157 HD
ATOM     35  HN  UNK N   1      29.216  15.391   2.558  1.00  0.00     0.157 HD
BRANCH  32  36
HETATM   36  N   UNK N   1      28.095  18.186   3.741  0.00  0.00    -0.385 N 
HETATM   37  H   UNK N   1      27.886  18.633   4.593  0.00  0.00     0.157 HD
HETATM   38  H   UNK N   1      27.699  18.551   2.918  0.00  0.00     0.157 HD
ENDBRANCH  32  36
ENDBRANCH  28  32
ENDBRANCH   1  21
TORSDOF 6
ENDMDL
MODEL 5
REMARK VINA RESULT:      -7.9      0.385      8.544
REMARK  6 active torsions:
REMARK  status: ('A' for Active; 'I' for Inactive)
REMARK    1  A    between atoms: C_14  and  C_7 
REMARK    2  A    between atoms: C_15  and  C_8 
REMARK    3  A    between atoms: C_16  and  C_13 
REMARK    4  A    between atoms: C_17  and  C_13 
REMARK    5  A    between atoms: N_19  and  C_14 
REMARK    6  A    between atoms: N_22  and  C_15 
ROOT
HETATM    1  C   UNK N   1      34.096  17.822   8.310  0.00  0.00     0.259 C 
HETATM    2  O   UNK N   1      34.855  18.633   7.802  0.00  0.00    -0.280 OA
ENDROOT
BRANCH   1   3
HETATM    3  C   UNK N   1      34.594  16.710   9.155  0.00  0.00     0.161 A 
HETATM    4  N   UNK N   1      34.828  15.420   8.778  0.00  0.00    -0.337 N 
HETATM    5  C   UNK N   1      35.262  14.841   9.922  0.00  0.00     0.060 A 
HETATM    6  H   UNK N   1      34.710  15.011   7.890  0.00  0.00     0.167 HD
HETATM    7  C   UNK N   1      35.691  13.533  10.149  0.00  0.00     0.033 A 
HETATM    8  C   UNK N   1      35.254  15.752  10.925  0.00  0.00     0.061 A 
HETATM    9  C   UNK N   1      36.115  13.205  11.464  0.00  0.00     0.017 A 
HETATM   10  C   UNK N   1      36.088  14.181  12.503  0.00  0.00     0.009 A 
HETATM   11  C   UNK N   1      35.644  15.476  12.217  0.00  0.00     0.047 A 
HETATM   12  N   UNK N   1      34.840  16.918  10.469  0.00  0.00    -0.337 N 
ATOM     13  HN  UNK N   1      34.729  17.786  10.992  1.00  0.00     0.167 HD
BRANCH  10  14
HETATM   14  C   UNK N   1      36.528  13.877  13.881  0.00  0.00     0.102 C 
HETATM   15  N   UNK N   1      37.026  14.793  14.623  0.00  0.00    -0.385 N 
HETATM   16  H   UNK N   1      37.049  14.678  15.600  0.00  0.00     0.157 HD
HETATM   17  H   UNK N   1      37.387  15.614  14.216  0.00  0.00     0.157 HD
BRANCH  14  18
HETATM   18  N   UNK N   1      36.381  12.566  14.398  0.00  0.00    -0.385 N 
HETATM   19  H   UNK N   1      35.515  12.211  14.706  0.00  0.00     0.157 HD
HETATM   20  H   UNK N   1      37.176  11.987  14.451  0.00  0.00     0.157 HD
ENDBRANCH  14  18
ENDBRANCH  10  14
ENDBRANCH   1   3
BRANCH   1  21
HETATM   21  C   UNK N   1      32.639  17.830   8.037  0.00  0.00     0.161 A 
HETATM   22  N   UNK N   1      31.760  18.219   8.992  0.00  0.00    -0.337 N 
HETATM   23  C   UNK N   1      30.570  17.918   8.497  0.00  0.00     0.060 A 
ATOM     24  HN  UNK N   1      31.969  18.648   9.892  1.00  0.00     0.167 HD
HETATM   25  C   UNK N   1      29.351  18.061   9.135  0.00  0.00     0.033 A 
HETATM   26  C   UNK N   1      30.713  17.362   7.266  0.00  0.00     0.061 A 
HETATM   27  C   UNK N   1      28.222  17.576   8.470  0.00  0.00     0.017 A 
HETATM   28  C   UNK N   1      28.339  16.965   7.195  0.00  0.00     0.009 A 
HETATM   29  C   UNK N   1      29.612  16.865   6.570  0.00  0.00     0.047 A 
HETATM   30  N   UNK N   1      32.024  17.312   6.937  0.00  0.00    -0.337 N 
HETATM   31  H   UNK N   1      32.433  16.981   6.106  0.00  0.00     0.167 HD
BRANCH  28  32
HETATM   32  C   UNK N   1      27.136  16.398   6.558  0.00  0.00     0.102 C 
HETATM   33  N   UNK N   1      26.257  15.784   7.264  0.00  0.00    -0.385 N 
HETATM   34  H   UNK N   1      25.344  15.662   6.920  0.00  0.00     0.157 HD
ATOM     35  HN  UNK N   1      26.507  15.422   8.185  1.00  0.00     0.157 HD
BRANCH  32  36
HETATM   36  N   UNK N   1      26.978  16.459   5.155  0.00  0.00    -0.385 N 
HETATM   37  H   UNK N   1      26.285  15.967   4.659  0.00  0.00     0.157 HD
HETATM   38  H   UNK N   1      27.598  17.027   4.645  0.00  0.00     0.157 HD
ENDBRANCH  32  36
ENDBRANCH  28  32
ENDBRANCH   1  21
TORSDOF 6
ENDMDL
MODEL 6
REMARK VINA RESULT:      -7.8      4.008     10.014
REMARK  6 active torsions:
REMARK  status: ('A' for Active; 'I' for Inactive)
REMARK    1  A    between atoms: C_14  and  C_7 
REMARK    2  A    between atoms: C_15  and  C_8 
REMARK    3  A    between atoms: C_16  and  C_13 
REMARK    4  A    between atoms: C_17  and  C_13 
REMARK    5  A    between atoms: N_19  and  C_14 
REMARK    6  A    between atoms: N_22  and  C_15 
ROOT
HETATM    1  C   UNK N   1      36.518  12.835  13.105  0.00  0.00     0.259 C 
HETATM    2  O   UNK N   1      37.271  12.014  12.606  0.00  0.00    -0.280 OA
ENDROOT
BRANCH   1   3
HETATM    3  C   UNK N   1      36.184  12.813  14.549  0.00  0.00     0.161 A 
HETATM    4  N   UNK N   1      35.894  13.877  15.352  0.00  0.00    -0.337 N 
HETATM    5  C   UNK N   1      35.673  13.301  16.556  0.00  0.00     0.060 A 
HETATM    6  H   UNK N   1      35.855  14.831  15.113  0.00  0.00     0.167 HD
HETATM    7  C   UNK N   1      35.299  13.885  17.766  0.00  0.00     0.033 A 
HETATM    8  C   UNK N   1      35.854  11.961  16.460  0.00  0.00     0.061 A 
HETATM    9  C   UNK N   1      35.117  13.021  18.879  0.00  0.00     0.017 A 
HETATM   10  C   UNK N   1      35.323  11.616  18.752  0.00  0.00     0.009 A 
HETATM   11  C   UNK N   1      35.702  11.087  17.513  0.00  0.00     0.047 A 
HETATM   12  N   UNK N   1      36.174  11.639  15.222  0.00  0.00    -0.337 N 
ATOM     13  HN  UNK N   1      36.372  10.710  14.852  1.00  0.00     0.167 HD
BRANCH  10  14
HETATM   14  C   UNK N   1      35.137  10.686  19.886  0.00  0.00     0.102 C 
HETATM   15  N   UNK N   1      35.792  10.847  20.973  0.00  0.00    -0.385 N 
HETATM   16  H   UNK N   1      35.475  10.429  21.807  0.00  0.00     0.157 HD
HETATM   17  H   UNK N   1      36.615  11.388  20.978  0.00  0.00     0.157 HD
BRANCH  14  18
HETATM   18  N   UNK N   1      34.212   9.618  19.782  0.00  0.00    -0.385 N 
HETATM   19  H   UNK N   1      34.491   8.673  19.780  0.00  0.00     0.157 HD
HETATM   20  H   UNK N   1      33.253   9.828  19.710  0.00  0.00     0.157 HD
ENDBRANCH  14  18
ENDBRANCH  10  14
ENDBRANCH   1   3
BRANCH   1  21
HETATM   21  C   UNK N   1      35.804  13.847  12.288  0.00  0.00     0.161 A 
HETATM   22  N   UNK N   1      34.650  13.529  11.652  0.00  0.00    -0.337 N 
HETATM   23  C   UNK N   1      34.399  14.569  10.873  0.00  0.00     0.060 A 
ATOM     24  HN  UNK N   1      34.098  12.679  11.752  1.00  0.00     0.167 HD
HETATM   25  C   UNK N   1      33.359  14.690   9.968  0.00  0.00     0.033 A 
HETATM   26  C   UNK N   1      35.371  15.504  11.028  0.00  0.00     0.061 A 
HETATM   27  C   UNK N   1      33.344  15.831   9.163  0.00  0.00     0.017 A 
HETATM   28  C   UNK N   1      34.359  16.815   9.281  0.00  0.00     0.009 A 
HETATM   29  C   UNK N   1      35.393  16.657  10.244  0.00  0.00     0.047 A 
HETATM   30  N   UNK N   1      36.272  15.078  11.942  0.00  0.00    -0.337 N 
HETATM   31  H   UNK N   1      37.072  15.544  12.276  0.00  0.00     0.167 HD
BRANCH  28  32
HETATM   32  C   UNK N   1      34.350  17.969   8.362  0.00  0.00     0.102 C 
HETATM   33  N   UNK N   1      35.039  19.017   8.633  0.00  0.00    -0.385 N 
HETATM   34  H   UNK N   1      35.272  19.654   7.920  0.00  0.00     0.157 HD
ATOM     35  HN  UNK N   1      35.347  19.190   9.590  1.00  0.00     0.157 HD
BRANCH  32  36
HETATM   36  N   UNK N   1      33.524  17.960   7.216  0.00  0.00    -0.385 N 
HETATM   37  H   UNK N   1      32.690  17.442   7.144  0.00  0.00     0.157 HD
HETATM   38  H   UNK N   1      33.798  18.506   6.445  0.00  0.00     0.157 HD
ENDBRANCH  32  36
ENDBRANCH  28  32
ENDBRANCH   1  21
TORSDOF 6
ENDMDL
MODEL 7
REMARK VINA RESULT:      -7.6      2.551      4.813
REMARK  6 active torsions:
REMARK  status: ('A' for Active; 'I' for Inactive)
REMARK    1  A    between atoms: C_14  and  C_7 
REMARK    2  A    between atoms: C_15  and  C_8 
REMARK    3  A    between atoms: C_16  and  C_13 
REMARK    4  A    between atoms: C_17  and  C_13 
REMARK    5  A    between atoms: N_19  and  C_14 
REMARK    6  A    between atoms: N_22  and  C_15 
ROOT
HETATM    1  C   UNK N   1      36.249  13.382  10.806  0.00  0.00     0.259 C 
HETATM    2  O   UNK N   1      37.040  12.726  10.146  0.00  0.00    -0.280 OA
ENDROOT
BRANCH   1   3
HETATM    3  C   UNK N   1      35.416  14.446  10.195  0.00  0.00     0.161 A 
HETATM    4  N   UNK N   1      35.797  15.713   9.864  0.00  0.00    -0.337 N 
HETATM    5  C   UNK N   1      34.665  16.250   9.353  0.00  0.00     0.060 A 
HETATM    6  H   UNK N   1      36.682  16.133   9.970  0.00  0.00     0.167 HD
HETATM    7  C   UNK N   1      34.447  17.516   8.810  0.00  0.00     0.033 A 
HETATM    8  C   UNK N   1      33.662  15.339   9.412  0.00  0.00     0.061 A 
HETATM    9  C   UNK N   1      33.143  17.803   8.327  0.00  0.00     0.017 A 
HETATM   10  C   UNK N   1      32.105  16.829   8.409  0.00  0.00     0.009 A 
HETATM   11  C   UNK N   1      32.381  15.576   8.967  0.00  0.00     0.047 A 
HETATM   12  N   UNK N   1      34.109  14.213   9.934  0.00  0.00    -0.337 N 
ATOM     13  HN  UNK N   1      33.585  13.355  10.104  1.00  0.00     0.167 HD
BRANCH  10  14
HETATM   14  C   UNK N   1      30.738  17.090   7.910  0.00  0.00     0.102 C 
HETATM   15  N   UNK N   1      30.300  16.493   6.867  0.00  0.00    -0.385 N 
HETATM   16  H   UNK N   1      29.331  16.437   6.701  0.00  0.00     0.157 HD
HETATM   17  H   UNK N   1      30.932  16.088   6.229  0.00  0.00     0.157 HD
BRANCH  14  18
HETATM   18  N   UNK N   1      29.894  17.995   8.600  0.00  0.00    -0.385 N 
HETATM   19  H   UNK N   1      29.838  18.951   8.368  0.00  0.00     0.157 HD
HETATM   20  H   UNK N   1      29.339  17.655   9.339  0.00  0.00     0.157 HD
ENDBRANCH  14  18
ENDBRANCH  10  14
ENDBRANCH   1   3
BRANCH   1  21
HETATM   21  C   UNK N   1      36.140  13.234  12.278  0.00  0.00     0.161 A 
HETATM   22  N   UNK N   1      35.192  12.433  12.821  0.00  0.00    -0.337 N 
HETATM   23  C   UNK N   1      35.243  12.685  14.120  0.00  0.00     0.060 A 
ATOM     24  HN  UNK N   1      34.576  11.780  12.338  1.00  0.00     0.167 HD
HETATM   25  C   UNK N   1      34.413  12.161  15.094  0.00  0.00     0.033 A 
HETATM   26  C   UNK N   1      36.201  13.614  14.369  0.00  0.00     0.061 A 
HETATM   27  C   UNK N   1      34.570  12.648  16.394  0.00  0.00     0.017 A 
HETATM   28  C   UNK N   1      35.542  13.638  16.684  0.00  0.00     0.009 A 
HETATM   29  C   UNK N   1      36.389  14.127  15.652  0.00  0.00     0.047 A 
HETATM   30  N   UNK N   1      36.806  13.968  13.212  0.00  0.00    -0.337 N 
HETATM   31  H   UNK N   1      37.545  14.603  13.078  0.00  0.00     0.167 HD
BRANCH  28  32
HETATM   32  C   UNK N   1      35.627  14.183  18.053  0.00  0.00     0.102 C 
HETATM   33  N   UNK N   1      36.110  15.354  18.255  0.00  0.00    -0.385 N 
HETATM   34  H   UNK N   1      35.912  15.833  19.091  0.00  0.00     0.157 HD
ATOM     35  HN  UNK N   1      36.702  15.789  17.547  1.00  0.00     0.157 HD
BRANCH  32  36
HETATM   36  N   UNK N   1      35.248  13.390  19.159  0.00  0.00    -0.385 N 
HETATM   37  H   UNK N   1      34.422  12.856  19.195  0.00  0.00     0.157 HD
HETATM   38  H   UNK N   1      35.846  13.369  19.940  0.00  0.00     0.157 HD
ENDBRANCH  32  36
ENDBRANCH  28  32
ENDBRANCH   1  21
TORSDOF 6
ENDMDL
MODEL 8
REMARK VINA RESULT:      -7.6      3.869      6.887
REMARK  6 active torsions:
REMARK  status: ('A' for Active; 'I' for Inactive)
REMARK    1  A    between atoms: C_14  and  C_7 
REMARK    2  A    between atoms: C_15  and  C_8 
REMARK    3  A    between atoms: C_16  and  C_13 
REMARK    4  A    between atoms: C_17  and  C_13 
REMARK    5  A    between atoms: N_19  and  C_14 
REMARK    6  A    between atoms: N_22  and  C_15 
ROOT
HETATM    1  C   UNK N   1      27.186  16.589   6.250  0.00  0.00     0.259 C 
HETATM    2  O   UNK N   1      26.764  15.498   6.601  0.00  0.00    -0.280 OA
ENDROOT
BRANCH   1   3
HETATM    3  C   UNK N   1      26.358  17.530   5.459  0.00  0.00     0.161 A 
HETATM    4  N   UNK N   1      26.770  18.657   4.810  0.00  0.00    -0.337 N 
HETATM    5  C   UNK N   1      25.627  19.130   4.262  0.00  0.00     0.060 A 
HETATM    6  H   UNK N   1      27.678  19.034   4.755  0.00  0.00     0.167 HD
HETATM    7  C   UNK N   1      25.426  20.245   3.448  0.00  0.00     0.033 A 
HETATM    8  C   UNK N   1      24.591  18.324   4.601  0.00  0.00     0.061 A 
HETATM    9  C   UNK N   1      24.102  20.493   2.996  0.00  0.00     0.017 A 
HETATM   10  C   UNK N   1      23.030  19.633   3.376  0.00  0.00     0.009 A 
HETATM   11  C   UNK N   1      23.291  18.532   4.198  0.00  0.00     0.047 A 
HETATM   12  N   UNK N   1      25.025  17.326   5.347  0.00  0.00    -0.337 N 
ATOM     13  HN  UNK N   1      24.477  16.567   5.750  1.00  0.00     0.167 HD
BRANCH  10  14
HETATM   14  C   UNK N   1      21.642  19.857   2.920  0.00  0.00     0.102 C 
HETATM   15  N   UNK N   1      20.837  18.872   2.776  0.00  0.00    -0.385 N 
HETATM   16  H   UNK N   1      19.865  19.029   2.759  0.00  0.00     0.157 HD
HETATM   17  H   UNK N   1      21.189  17.957   2.684  0.00  0.00     0.157 HD
BRANCH  14  18
HETATM   18  N   UNK N   1      21.186  21.172   2.656  0.00  0.00    -0.385 N 
HETATM   19  H   UNK N   1      21.445  21.671   1.847  0.00  0.00     0.157 HD
HETATM   20  H   UNK N   1      20.586  21.604   3.306  0.00  0.00     0.157 HD
ENDBRANCH  14  18
ENDBRANCH  10  14
ENDBRANCH   1   3
BRANCH   1  21
HETATM   21  C   UNK N   1      28.587  17.006   6.500  0.00  0.00     0.161 A 
HETATM   22  N   UNK N   1      29.527  16.882   5.531  0.00  0.00    -0.337 N 
HETATM   23  C   UNK N   1      30.673  17.147   6.138  0.00  0.00     0.060 A 
ATOM     24  HN  UNK N   1      29.383  16.639   4.552  1.00  0.00     0.167 HD
HETATM   25  C   UNK N   1      31.936  17.080   5.580  0.00  0.00     0.033 A 
HETATM   26  C   UNK N   1      30.443  17.432   7.445  0.00  0.00     0.061 A 
HETATM   27  C   UNK N   1      33.022  17.293   6.432  0.00  0.00     0.017 A 
HETATM   28  C   UNK N   1      32.820  17.566   7.809  0.00  0.00     0.009 A 
HETATM   29  C   UNK N   1      31.499  17.650   8.330  0.00  0.00     0.047 A 
HETATM   30  N   UNK N   1      29.116  17.370   7.701  0.00  0.00    -0.337 N 
HETATM   31  H   UNK N   1      28.648  17.544   8.548  0.00  0.00     0.167 HD
BRANCH  28  32
HETATM   32  C   UNK N   1      33.992  17.711   8.692  0.00  0.00     0.102 C 
HETATM   33  N   UNK N   1      34.851  18.641   8.480  0.00  0.00    -0.385 N 
HETATM   34  H   UNK N   1      35.457  18.928   9.200  0.00  0.00     0.157 HD
ATOM     35  HN  UNK N   1      34.906  19.083   7.563  1.00  0.00     0.157 HD
BRANCH  32  36
HETATM   36  N   UNK N   1      34.219  16.782   9.732  0.00  0.00    -0.385 N 
HETATM   37  H   UNK N   1      34.592  15.882   9.593  0.00  0.00     0.157 HD
HETATM   38  H   UNK N   1      33.992  17.052  10.651  0.00  0.00     0.157 HD
ENDBRANCH  32  36
ENDBRANCH  28  32
ENDBRANCH   1  21
TORSDOF 6
ENDMDL
MODEL 9
REMARK VINA RESULT:      -7.4      3.938      7.089
REMARK  6 active torsions:
REMARK  status: ('A' for Active; 'I' for Inactive)
REMARK    1  A    between atoms: C_14  and  C_7 
REMARK    2  A    between atoms: C_15  and  C_8 
REMARK    3  A    between atoms: C_16  and  C_13 
REMARK    4  A    between atoms: C_17  and  C_13 
REMARK    5  A    between atoms: N_19  and  C_14 
REMARK    6  A    between atoms: N_22  and  C_15 
ROOT
HETATM    1  C   UNK N   1      36.452  12.141  13.155  0.00  0.00     0.259 C 
HETATM    2  O   UNK N   1      37.242  11.315  12.726  0.00  0.00    -0.280 OA
ENDROOT
BRANCH   1   3
HETATM    3  C   UNK N   1      35.988  13.281  12.328  0.00  0.00     0.161 A 
HETATM    4  N   UNK N   1      36.592  14.494  12.171  0.00  0.00    -0.337 N 
HETATM    5  C   UNK N   1      35.758  15.145  11.327  0.00  0.00     0.060 A 
HETATM    6  H   UNK N   1      37.431  14.817  12.574  0.00  0.00     0.167 HD
HETATM    7  C   UNK N   1      35.870  16.420  10.773  0.00  0.00     0.033 A 
HETATM    8  C   UNK N   1      34.701  14.350  11.029  0.00  0.00     0.061 A 
HETATM    9  C   UNK N   1      34.839  16.841   9.891  0.00  0.00     0.017 A 
HETATM   10  C   UNK N   1      33.734  15.987   9.602  0.00  0.00     0.009 A 
HETATM   11  C   UNK N   1      33.673  14.720  10.191  0.00  0.00     0.047 A 
HETATM   12  N   UNK N   1      34.826  13.189  11.643  0.00  0.00    -0.337 N 
ATOM     13  HN  UNK N   1      34.185  12.396  11.609  1.00  0.00     0.167 HD
BRANCH  10  14
HETATM   14  C   UNK N   1      32.647  16.390   8.685  0.00  0.00     0.102 C 
HETATM   15  N   UNK N   1      32.887  16.608   7.447  0.00  0.00    -0.385 N 
HETATM   16  H   UNK N   1      32.152  16.590   6.792  0.00  0.00     0.157 HD
HETATM   17  H   UNK N   1      33.807  16.794   7.148  0.00  0.00     0.157 HD
BRANCH  14  18
HETATM   18  N   UNK N   1      31.322  16.518   9.170  0.00  0.00    -0.385 N 
HETATM   19  H   UNK N   1      30.544  16.149   8.693  0.00  0.00     0.157 HD
HETATM   20  H   UNK N   1      31.174  16.996  10.019  0.00  0.00     0.157 HD
ENDBRANCH  14  18
ENDBRANCH  10  14
ENDBRANCH   1   3
BRANCH   1  21
HETATM   21  C   UNK N   1      35.981  12.123  14.561  0.00  0.00     0.161 A 
HETATM   22  N   UNK N   1      35.647  13.276  15.191  0.00  0.00    -0.337 N 
HETATM   23  C   UNK N   1      35.473  12.929  16.456  0.00  0.00     0.060 A 
ATOM     24  HN  UNK N   1      35.552  14.204  14.782  1.00  0.00     0.167 HD
HETATM   25  C   UNK N   1      35.190  13.776  17.512  0.00  0.00     0.033 A 
HETATM   26  C   UNK N   1      35.690  11.596  16.600  0.00  0.00     0.061 A 
HETATM   27  C   UNK N   1      35.156  13.213  18.790  0.00  0.00     0.017 A 
HETATM   28  C   UNK N   1      35.404  11.830  18.979  0.00  0.00     0.009 A 
HETATM   29  C   UNK N   1      35.666  10.995  17.858  0.00  0.00     0.047 A 
HETATM   30  N   UNK N   1      35.996  11.051  15.401  0.00  0.00    -0.337 N 
HETATM   31  H   UNK N   1      36.185  10.109  15.187  0.00  0.00     0.167 HD
BRANCH  28  32
HETATM   32  C   UNK N   1      35.434  11.286  20.351  0.00  0.00     0.102 C 
HETATM   33  N   UNK N   1      36.547  10.931  20.882  0.00  0.00    -0.385 N 
HETATM   34  H   UNK N   1      36.623  10.846  21.859  0.00  0.00     0.157 HD
ATOM     35  HN  UNK N   1      37.354  10.735  20.289  1.00  0.00     0.157 HD
BRANCH  32  36
HETATM   36  N   UNK N   1      34.230  11.081  21.061  0.00  0.00    -0.385 N 
HETATM   37  H   UNK N   1      33.341  11.057  20.640  0.00  0.00     0.157 HD
HETATM   38  H   UNK N   1      34.284  10.955  22.035  0.00  0.00     0.157 HD
ENDBRANCH  32  36
ENDBRANCH  28  32
ENDBRANCH   1  21
TORSDOF 6
ENDMDL
