MODEL 1
REMARK VINA RESULT:      -6.3      0.000      0.000
REMARK  24 active torsions:
REMARK  status: ('A' for Active; 'I' for Inactive)
REMARK    1  A    between atoms: C_4  and  C_5 
REMARK    2  A    between atoms: C_5  and  C_6 
REMARK    3  A    between atoms: C_6  and  C_7 
REMARK    4  A    between atoms: C_9  and  C_10 
REMARK    5  A    between atoms: C_10  and  C_11 
REMARK    6  A    between atoms: C_11  and  C_12 
REMARK    7  A    between atoms: C_14  and  C_15 
REMARK    8  A    between atoms: C_15  and  C_16 
REMARK    9  A    between atoms: C_16  and  C_17 
REMARK   10  A    between atoms: C_19  and  C_20 
REMARK   11  A    between atoms: C_20  and  C_21 
REMARK   12  A    between atoms: C_21  and  C_22 
REMARK   13  A    between atoms: C_24  and  C_25 
REMARK   14  A    between atoms: C_25  and  C_26 
REMARK   15  A    between atoms: C_26  and  C_27 
REMARK   16  A    between atoms: C_29  and  C_30 
REMARK   17  A    between atoms: C_30  and  C_31 
REMARK   18  A    between atoms: C_31  and  C_32 
REMARK   19  A    between atoms: C_34  and  C_35 
REMARK   20  A    between atoms: C_35  and  C_36 
REMARK   21  A    between atoms: C_36  and  C_37 
REMARK   22  A    between atoms: C_39  and  C_40 
REMARK   23  A    between atoms: C_40  and  C_41 
REMARK   24  A    between atoms: C_46  and  O_47 
ROOT
HETATM    1  C   UNK N   1      21.515  13.501   8.572  0.00  0.00    -0.087 C 
HETATM    2  C   UNK N   1      21.621  12.958   9.954  0.00  0.00     0.043 C 
HETATM    3  C   UNK N   1      21.030  14.741   8.404  0.00  0.00    -0.024 C 
ENDROOT
BRANCH   3   4
HETATM    4  C   UNK N   1      20.845  15.440   7.079  0.00  0.00     0.031 C 
BRANCH   4   5
HETATM    5  C   UNK N   1      22.071  16.184   6.547  0.00  0.00     0.037 C 
BRANCH   5   6
HETATM    6  C   UNK N   1      22.317  16.025   5.074  0.00  0.00    -0.087 C 
HETATM    7  C   UNK N   1      22.015  14.715   4.435  0.00  0.00     0.043 C 
HETATM    8  C   UNK N   1      22.841  16.989   4.316  0.00  0.00    -0.024 C 
BRANCH   8   9
HETATM    9  C   UNK N   1      23.213  18.365   4.795  0.00  0.00     0.031 C 
BRANCH   9  10
HETATM   10  C   UNK N   1      23.613  19.280   3.627  0.00  0.00     0.037 C 
BRANCH  10  11
HETATM   11  C   UNK N   1      24.938  19.955   3.853  0.00  0.00    -0.087 C 
HETATM   12  C   UNK N   1      25.628  20.559   2.674  0.00  0.00     0.043 C 
HETATM   13  C   UNK N   1      25.501  19.913   5.076  0.00  0.00    -0.024 C 
BRANCH  13  14
HETATM   14  C   UNK N   1      26.878  20.414   5.449  0.00  0.00     0.031 C 
BRANCH  14  15
HETATM   15  C   UNK N   1      27.587  19.689   6.600  0.00  0.00     0.037 C 
BRANCH  15  16
HETATM   16  C   UNK N   1      28.472  18.533   6.222  0.00  0.00    -0.087 C 
HETATM   17  C   UNK N   1      28.777  18.328   4.773  0.00  0.00     0.043 C 
HETATM   18  C   UNK N   1      28.990  17.727   7.155  0.00  0.00    -0.020 C 
BRANCH  18  19
HETATM   19  C   UNK N   1      29.890  16.574   6.849  0.00  0.00     0.068 C 
BRANCH  19  20
HETATM   20  C   UNK N   1      31.318  16.988   6.993  0.00  0.00    -0.022 A 
HETATM   21  C   UNK N   1      32.092  17.156   5.841  0.00  0.00     0.010 A 
HETATM   22  C   UNK N   1      33.430  17.545   5.944  0.00  0.00     0.001 A 
HETATM   23  C   UNK N   1      34.000  17.767   7.199  0.00  0.00     0.003 A 
HETATM   24  C   UNK N   1      33.233  17.603   8.356  0.00  0.00     0.037 A 
HETATM   25  C   UNK N   1      31.894  17.216   8.260  0.00  0.00     0.072 A 
BRANCH  25  26
HETATM   26  O   UNK N   1      31.167  17.064   9.383  0.00  0.00    -0.360 OA
HETATM   27  H   UNK N   1      31.382  16.400  10.008  0.00  0.00     0.217 HD
ENDBRANCH  25  26
ENDBRANCH  19  20
ENDBRANCH  18  19
ENDBRANCH  15  16
ENDBRANCH  14  15
ENDBRANCH  13  14
ENDBRANCH  10  11
ENDBRANCH   9  10
ENDBRANCH   8   9
ENDBRANCH   5   6
ENDBRANCH   4   5
ENDBRANCH   3   4
BRANCH   1  28
HETATM   28  C   UNK N   1      21.871  12.601   7.428  0.00  0.00     0.037 C 
BRANCH  28  29
HETATM   29  C   UNK N   1      23.328  12.164   7.432  0.00  0.00     0.031 C 
BRANCH  29  30
HETATM   30  C   UNK N   1      24.181  13.333   7.030  0.00  0.00    -0.024 C 
HETATM   31  C   UNK N   1      25.043  13.921   7.875  0.00  0.00    -0.087 C 
HETATM   32  C   UNK N   1      25.199  13.448   9.288  0.00  0.00     0.043 C 
BRANCH  31  33
HETATM   33  C   UNK N   1      25.926  15.032   7.396  0.00  0.00     0.037 C 
BRANCH  33  34
HETATM   34  C   UNK N   1      25.726  15.368   5.920  0.00  0.00     0.031 C 
BRANCH  34  35
HETATM   35  C   UNK N   1      26.835  14.846   5.045  0.00  0.00    -0.024 C 
HETATM   36  C   UNK N   1      27.081  15.256   3.784  0.00  0.00    -0.087 C 
HETATM   37  C   UNK N   1      26.234  16.298   3.126  0.00  0.00     0.043 C 
BRANCH  36  38
HETATM   38  C   UNK N   1      28.204  14.652   2.979  0.00  0.00     0.037 C 
BRANCH  38  39
HETATM   39  C   UNK N   1      29.591  15.209   3.308  0.00  0.00     0.031 C 
BRANCH  39  40
HETATM   40  C   UNK N   1      30.318  14.253   4.208  0.00  0.00    -0.024 C 
HETATM   41  C   UNK N   1      31.627  14.003   4.092  0.00  0.00    -0.087 C 
HETATM   42  C   UNK N   1      32.450  14.634   3.009  0.00  0.00     0.043 C 
BRANCH  41  43
HETATM   43  C   UNK N   1      32.276  13.073   5.062  0.00  0.00     0.037 C 
BRANCH  43  44
HETATM   44  C   UNK N   1      33.454  13.763   5.726  0.00  0.00     0.031 C 
BRANCH  44  45
HETATM   45  C   UNK N   1      33.229  13.805   7.203  0.00  0.00    -0.024 C 
HETATM   46  C   UNK N   1      34.201  14.118   8.068  0.00  0.00    -0.091 C 
HETATM   47  C   UNK N   1      33.899  14.132   9.525  0.00  0.00     0.042 C 
HETATM   48  C   UNK N   1      35.591  14.431   7.611  0.00  0.00     0.042 C 
ENDBRANCH  44  45
ENDBRANCH  43  44
ENDBRANCH  41  43
ENDBRANCH  39  40
ENDBRANCH  38  39
ENDBRANCH  36  38
ENDBRANCH  34  35
ENDBRANCH  33  34
ENDBRANCH  31  33
ENDBRANCH  29  30
ENDBRANCH  28  29
ENDBRANCH   1  28
TORSDOF 24
ENDMDL
MODEL 2
REMARK VINA RESULT:      -6.1      4.858      8.331
REMARK  24 active torsions:
REMARK  status: ('A' for Active; 'I' for Inactive)
REMARK    1  A    between atoms: C_4  and  C_5 
REMARK    2  A    between atoms: C_5  and  C_6 
REMARK    3  A    between atoms: C_6  and  C_7 
REMARK    4  A    between atoms: C_9  and  C_10 
REMARK    5  A    between atoms: C_10  and  C_11 
REMARK    6  A    between atoms: C_11  and  C_12 
REMARK    7  A    between atoms: C_14  and  C_15 
REMARK    8  A    between atoms: C_15  and  C_16 
REMARK    9  A    between atoms: C_16  and  C_17 
REMARK   10  A    between atoms: C_19  and  C_20 
REMARK   11  A    between atoms: C_20  and  C_21 
REMARK   12  A    between atoms: C_21  and  C_22 
REMARK   13  A    between atoms: C_24  and  C_25 
REMARK   14  A    between atoms: C_25  and  C_26 
REMARK   15  A    between atoms: C_26  and  C_27 
REMARK   16  A    between atoms: C_29  and  C_30 
REMARK   17  A    between atoms: C_30  and  C_31 
REMARK   18  A    between atoms: C_31  and  C_32 
REMARK   19  A    between atoms: C_34  and  C_35 
REMARK   20  A    between atoms: C_35  and  C_36 
REMARK   21  A    between atoms: C_36  and  C_37 
REMARK   22  A    between atoms: C_39  and  C_40 
REMARK   23  A    between atoms: C_40  and  C_41 
REMARK   24  A    between atoms: C_46  and  O_47 
ROOT
HETATM    1  C   UNK N   1      21.660  12.587  10.483  0.00  0.00    -0.087 C 
HETATM    2  C   UNK N   1      20.417  12.285  11.245  0.00  0.00     0.043 C 
HETATM    3  C   UNK N   1      22.661  11.693  10.507  0.00  0.00    -0.024 C 
ENDROOT
BRANCH   3   4
HETATM    4  C   UNK N   1      23.988  11.841   9.805  0.00  0.00     0.031 C 
BRANCH   4   5
HETATM    5  C   UNK N   1      24.016  11.395   8.341  0.00  0.00     0.037 C 
BRANCH   5   6
HETATM    6  C   UNK N   1      24.625  12.384   7.390  0.00  0.00    -0.087 C 
HETATM    7  C   UNK N   1      24.942  13.752   7.885  0.00  0.00     0.043 C 
HETATM    8  C   UNK N   1      24.851  12.112   6.104  0.00  0.00    -0.024 C 
BRANCH   8   9
HETATM    9  C   UNK N   1      24.583  10.792   5.436  0.00  0.00     0.031 C 
BRANCH   9  10
HETATM   10  C   UNK N   1      23.287  10.831   4.611  0.00  0.00     0.037 C 
BRANCH  10  11
HETATM   11  C   UNK N   1      23.548  10.944   3.134  0.00  0.00    -0.087 C 
HETATM   12  C   UNK N   1      23.564   9.687   2.326  0.00  0.00     0.043 C 
HETATM   13  C   UNK N   1      23.850  12.145   2.606  0.00  0.00    -0.024 C 
BRANCH  13  14
HETATM   14  C   UNK N   1      24.273  12.420   1.181  0.00  0.00     0.031 C 
BRANCH  14  15
HETATM   15  C   UNK N   1      23.692  13.676   0.519  0.00  0.00     0.037 C 
BRANCH  15  16
HETATM   16  C   UNK N   1      22.268  14.018   0.861  0.00  0.00    -0.087 C 
HETATM   17  C   UNK N   1      21.206  13.023   0.520  0.00  0.00     0.043 C 
HETATM   18  C   UNK N   1      21.963  15.167   1.476  0.00  0.00    -0.020 C 
BRANCH  18  19
HETATM   19  C   UNK N   1      20.573  15.559   1.861  0.00  0.00     0.068 C 
BRANCH  19  20
HETATM   20  C   UNK N   1      20.542  16.994   2.272  0.00  0.00    -0.022 A 
HETATM   21  C   UNK N   1      20.663  17.312   3.628  0.00  0.00     0.010 A 
HETATM   22  C   UNK N   1      20.640  18.646   4.043  0.00  0.00     0.001 A 
HETATM   23  C   UNK N   1      20.496  19.668   3.102  0.00  0.00     0.003 A 
HETATM   24  C   UNK N   1      20.378  19.360   1.744  0.00  0.00     0.037 A 
HETATM   25  C   UNK N   1      20.402  18.028   1.323  0.00  0.00     0.072 A 
BRANCH  25  26
HETATM   26  O   UNK N   1      20.288  17.747   0.012  0.00  0.00    -0.360 OA
HETATM   27  H   UNK N   1      20.419  18.411  -0.635  0.00  0.00     0.217 HD
ENDBRANCH  25  26
ENDBRANCH  19  20
ENDBRANCH  18  19
ENDBRANCH  15  16
ENDBRANCH  14  15
ENDBRANCH  13  14
ENDBRANCH  10  11
ENDBRANCH   9  10
ENDBRANCH   8   9
ENDBRANCH   5   6
ENDBRANCH   4   5
ENDBRANCH   3   4
BRANCH   1  28
HETATM   28  C   UNK N   1      21.768  13.915   9.800  0.00  0.00     0.037 C 
BRANCH  28  29
HETATM   29  C   UNK N   1      20.670  14.160   8.776  0.00  0.00     0.031 C 
BRANCH  29  30
HETATM   30  C   UNK N   1      21.305  14.582   7.482  0.00  0.00    -0.024 C 
HETATM   31  C   UNK N   1      21.431  13.750   6.435  0.00  0.00    -0.087 C 
HETATM   32  C   UNK N   1      20.950  12.333   6.501  0.00  0.00     0.043 C 
BRANCH  31  33
HETATM   33  C   UNK N   1      22.000  14.249   5.143  0.00  0.00     0.037 C 
BRANCH  33  34
HETATM   34  C   UNK N   1      23.077  15.315   5.330  0.00  0.00     0.031 C 
BRANCH  34  35
HETATM   35  C   UNK N   1      24.172  15.230   4.300  0.00  0.00    -0.024 C 
HETATM   36  C   UNK N   1      24.729  16.287   3.675  0.00  0.00    -0.087 C 
HETATM   37  C   UNK N   1      24.281  17.684   3.963  0.00  0.00     0.043 C 
BRANCH  36  38
HETATM   38  C   UNK N   1      25.806  16.094   2.637  0.00  0.00     0.037 C 
BRANCH  38  39
HETATM   39  C   UNK N   1      27.034  15.328   3.132  0.00  0.00     0.031 C 
BRANCH  39  40
HETATM   40  C   UNK N   1      27.403  14.267   2.137  0.00  0.00    -0.024 C 
HETATM   41  C   UNK N   1      27.600  12.989   2.480  0.00  0.00    -0.087 C 
HETATM   42  C   UNK N   1      27.512  12.541   3.908  0.00  0.00     0.043 C 
BRANCH  41  43
HETATM   43  C   UNK N   1      27.918  11.994   1.414  0.00  0.00     0.037 C 
BRANCH  43  44
HETATM   44  C   UNK N   1      27.527  10.602   1.877  0.00  0.00     0.031 C 
BRANCH  44  45
HETATM   45  C   UNK N   1      27.003   9.826   0.713  0.00  0.00    -0.024 C 
HETATM   46  C   UNK N   1      26.667   8.534   0.804  0.00  0.00    -0.091 C 
HETATM   47  C   UNK N   1      26.157   7.829  -0.403  0.00  0.00     0.042 C 
HETATM   48  C   UNK N   1      26.814   7.771   2.083  0.00  0.00     0.042 C 
ENDBRANCH  44  45
ENDBRANCH  43  44
ENDBRANCH  41  43
ENDBRANCH  39  40
ENDBRANCH  38  39
ENDBRANCH  36  38
ENDBRANCH  34  35
ENDBRANCH  33  34
ENDBRANCH  31  33
ENDBRANCH  29  30
ENDBRANCH  28  29
ENDBRANCH   1  28
TORSDOF 24
ENDMDL
MODEL 3
REMARK VINA RESULT:      -6.1      1.737      4.306
REMARK  24 active torsions:
REMARK  status: ('A' for Active; 'I' for Inactive)
REMARK    1  A    between atoms: C_4  and  C_5 
REMARK    2  A    between atoms: C_5  and  C_6 
REMARK    3  A    between atoms: C_6  and  C_7 
REMARK    4  A    between atoms: C_9  and  C_10 
REMARK    5  A    between atoms: C_10  and  C_11 
REMARK    6  A    between atoms: C_11  and  C_12 
REMARK    7  A    between atoms: C_14  and  C_15 
REMARK    8  A    between atoms: C_15  and  C_16 
REMARK    9  A    between atoms: C_16  and  C_17 
REMARK   10  A    between atoms: C_19  and  C_20 
REMARK   11  A    between atoms: C_20  and  C_21 
REMARK   12  A    between atoms: C_21  and  C_22 
REMARK   13  A    between atoms: C_24  and  C_25 
REMARK   14  A    between atoms: C_25  and  C_26 
REMARK   15  A    between atoms: C_26  and  C_27 
REMARK   16  A    between atoms: C_29  and  C_30 
REMARK   17  A    between atoms: C_30  and  C_31 
REMARK   18  A    between atoms: C_31  and  C_32 
REMARK   19  A    between atoms: C_34  and  C_35 
REMARK   20  A    between atoms: C_35  and  C_36 
REMARK   21  A    between atoms: C_36  and  C_37 
REMARK   22  A    between atoms: C_39  and  C_40 
REMARK   23  A    between atoms: C_40  and  C_41 
REMARK   24  A    between atoms: C_46  and  O_47 
ROOT
HETATM    1  C   UNK N   1      21.647  13.180   9.309  0.00  0.00    -0.087 C 
HETATM    2  C   UNK N   1      22.018  12.637  10.645  0.00  0.00     0.043 C 
HETATM    3  C   UNK N   1      21.062  14.386   9.246  0.00  0.00    -0.024 C 
ENDROOT
BRANCH   3   4
HETATM    4  C   UNK N   1      20.613  15.080   7.983  0.00  0.00     0.031 C 
BRANCH   4   5
HETATM    5  C   UNK N   1      21.714  15.782   7.186  0.00  0.00     0.037 C 
BRANCH   5   6
HETATM    6  C   UNK N   1      21.728  15.471   5.717  0.00  0.00    -0.087 C 
HETATM    7  C   UNK N   1      21.062  14.228   5.242  0.00  0.00     0.043 C 
HETATM    8  C   UNK N   1      22.355  16.232   4.819  0.00  0.00    -0.024 C 
BRANCH   8   9
HETATM    9  C   UNK N   1      23.084  17.512   5.123  0.00  0.00     0.031 C 
BRANCH   9  10
HETATM   10  C   UNK N   1      23.140  18.433   3.894  0.00  0.00     0.037 C 
BRANCH  10  11
HETATM   11  C   UNK N   1      24.244  19.450   3.988  0.00  0.00    -0.087 C 
HETATM   12  C   UNK N   1      24.263  20.560   2.987  0.00  0.00     0.043 C 
HETATM   13  C   UNK N   1      25.223  19.281   4.897  0.00  0.00    -0.024 C 
BRANCH  13  14
HETATM   14  C   UNK N   1      26.472  20.121   5.039  0.00  0.00     0.031 C 
BRANCH  14  15
HETATM   15  C   UNK N   1      27.809  19.425   4.753  0.00  0.00     0.037 C 
BRANCH  15  16
HETATM   16  C   UNK N   1      28.421  18.653   5.891  0.00  0.00    -0.087 C 
HETATM   17  C   UNK N   1      28.088  19.077   7.285  0.00  0.00     0.043 C 
HETATM   18  C   UNK N   1      29.219  17.604   5.662  0.00  0.00    -0.020 C 
BRANCH  18  19
HETATM   19  C   UNK N   1      29.843  16.784   6.744  0.00  0.00     0.068 C 
BRANCH  19  20
HETATM   20  C   UNK N   1      31.275  17.172   6.919  0.00  0.00    -0.022 A 
HETATM   21  C   UNK N   1      32.132  17.105   5.816  0.00  0.00     0.010 A 
HETATM   22  C   UNK N   1      33.476  17.464   5.947  0.00  0.00     0.001 A 
HETATM   23  C   UNK N   1      33.968  17.892   7.182  0.00  0.00     0.003 A 
HETATM   24  C   UNK N   1      33.118  17.964   8.289  0.00  0.00     0.037 A 
HETATM   25  C   UNK N   1      31.773  17.608   8.164  0.00  0.00     0.072 A 
BRANCH  25  26
HETATM   26  O   UNK N   1      30.965  17.684   9.238  0.00  0.00    -0.360 OA
HETATM   27  H   UNK N   1      30.968  18.442   9.789  0.00  0.00     0.217 HD
ENDBRANCH  25  26
ENDBRANCH  19  20
ENDBRANCH  18  19
ENDBRANCH  15  16
ENDBRANCH  14  15
ENDBRANCH  13  14
ENDBRANCH  10  11
ENDBRANCH   9  10
ENDBRANCH   8   9
ENDBRANCH   5   6
ENDBRANCH   4   5
ENDBRANCH   3   4
BRANCH   1  28
HETATM   28  C   UNK N   1      21.863  12.313   8.107  0.00  0.00     0.037 C 
BRANCH  28  29
HETATM   29  C   UNK N   1      23.314  11.899   7.913  0.00  0.00     0.031 C 
BRANCH  29  30
HETATM   30  C   UNK N   1      24.057  13.035   7.270  0.00  0.00    -0.024 C 
HETATM   31  C   UNK N   1      24.939  13.792   7.942  0.00  0.00    -0.087 C 
HETATM   32  C   UNK N   1      25.229  13.552   9.391  0.00  0.00     0.043 C 
BRANCH  31  33
HETATM   33  C   UNK N   1      25.708  14.861   7.230  0.00  0.00     0.037 C 
BRANCH  33  34
HETATM   34  C   UNK N   1      25.515  14.836   5.715  0.00  0.00     0.031 C 
BRANCH  34  35
HETATM   35  C   UNK N   1      26.808  14.670   4.962  0.00  0.00    -0.024 C 
HETATM   36  C   UNK N   1      27.135  15.333   3.834  0.00  0.00    -0.087 C 
HETATM   37  C   UNK N   1      26.199  16.321   3.214  0.00  0.00     0.043 C 
BRANCH  36  38
HETATM   38  C   UNK N   1      28.448  15.078   3.138  0.00  0.00     0.037 C 
BRANCH  38  39
HETATM   39  C   UNK N   1      28.335  14.259   1.850  0.00  0.00     0.031 C 
BRANCH  39  40
HETATM   40  C   UNK N   1      27.189  13.297   1.962  0.00  0.00    -0.024 C 
HETATM   41  C   UNK N   1      27.343  12.031   2.365  0.00  0.00    -0.087 C 
HETATM   42  C   UNK N   1      28.697  11.473   2.687  0.00  0.00     0.043 C 
BRANCH  41  43
HETATM   43  C   UNK N   1      26.138  11.159   2.492  0.00  0.00     0.037 C 
BRANCH  43  44
HETATM   44  C   UNK N   1      25.204  11.724   3.546  0.00  0.00     0.031 C 
BRANCH  44  45
HETATM   45  C   UNK N   1      23.790  11.520   3.110  0.00  0.00    -0.024 C 
HETATM   46  C   UNK N   1      23.056  12.501   2.571  0.00  0.00    -0.091 C 
HETATM   47  C   UNK N   1      21.652  12.219   2.166  0.00  0.00     0.042 C 
HETATM   48  C   UNK N   1      23.601  13.881   2.387  0.00  0.00     0.042 C 
ENDBRANCH  44  45
ENDBRANCH  43  44
ENDBRANCH  41  43
ENDBRANCH  39  40
ENDBRANCH  38  39
ENDBRANCH  36  38
ENDBRANCH  34  35
ENDBRANCH  33  34
ENDBRANCH  31  33
ENDBRANCH  29  30
ENDBRANCH  28  29
ENDBRANCH   1  28
TORSDOF 24
ENDMDL
MODEL 4
REMARK VINA RESULT:      -6.1      3.275      7.654
REMARK  24 active torsions:
REMARK  status: ('A' for Active; 'I' for Inactive)
REMARK    1  A    between atoms: C_4  and  C_5 
REMARK    2  A    between atoms: C_5  and  C_6 
REMARK    3  A    between atoms: C_6  and  C_7 
REMARK    4  A    between atoms: C_9  and  C_10 
REMARK    5  A    between atoms: C_10  and  C_11 
REMARK    6  A    between atoms: C_11  and  C_12 
REMARK    7  A    between atoms: C_14  and  C_15 
REMARK    8  A    between atoms: C_15  and  C_16 
REMARK    9  A    between atoms: C_16  and  C_17 
REMARK   10  A    between atoms: C_19  and  C_20 
REMARK   11  A    between atoms: C_20  and  C_21 
REMARK   12  A    between atoms: C_21  and  C_22 
REMARK   13  A    between atoms: C_24  and  C_25 
REMARK   14  A    between atoms: C_25  and  C_26 
REMARK   15  A    between atoms: C_26  and  C_27 
REMARK   16  A    between atoms: C_29  and  C_30 
REMARK   17  A    between atoms: C_30  and  C_31 
REMARK   18  A    between atoms: C_31  and  C_32 
REMARK   19  A    between atoms: C_34  and  C_35 
REMARK   20  A    between atoms: C_35  and  C_36 
REMARK   21  A    between atoms: C_36  and  C_37 
REMARK   22  A    between atoms: C_39  and  C_40 
REMARK   23  A    between atoms: C_40  and  C_41 
REMARK   24  A    between atoms: C_46  and  O_47 
ROOT
HETATM    1  C   UNK N   1      21.759  12.583  10.454  0.00  0.00    -0.087 C 
HETATM    2  C   UNK N   1      20.533  12.269  11.237  0.00  0.00     0.043 C 
HETATM    3  C   UNK N   1      22.764  11.693  10.448  0.00  0.00    -0.024 C 
ENDROOT
BRANCH   3   4
HETATM    4  C   UNK N   1      24.076  11.854   9.721  0.00  0.00     0.031 C 
BRANCH   4   5
HETATM    5  C   UNK N   1      24.043  11.546   8.222  0.00  0.00     0.037 C 
BRANCH   5   6
HETATM    6  C   UNK N   1      24.730  12.560   7.353  0.00  0.00    -0.087 C 
HETATM    7  C   UNK N   1      25.022  13.906   7.917  0.00  0.00     0.043 C 
HETATM    8  C   UNK N   1      25.046  12.329   6.078  0.00  0.00    -0.024 C 
BRANCH   8   9
HETATM    9  C   UNK N   1      24.816  11.035   5.347  0.00  0.00     0.031 C 
BRANCH   9  10
HETATM   10  C   UNK N   1      23.416  10.987   4.714  0.00  0.00     0.037 C 
BRANCH  10  11
HETATM   11  C   UNK N   1      23.462  11.012   3.211  0.00  0.00    -0.087 C 
HETATM   12  C   UNK N   1      22.953   9.816   2.474  0.00  0.00     0.043 C 
HETATM   13  C   UNK N   1      24.040  12.054   2.585  0.00  0.00    -0.024 C 
BRANCH  13  14
HETATM   14  C   UNK N   1      24.297  12.182   1.101  0.00  0.00     0.031 C 
BRANCH  14  15
HETATM   15  C   UNK N   1      23.701  13.409   0.400  0.00  0.00     0.037 C 
BRANCH  15  16
HETATM   16  C   UNK N   1      22.261  13.723   0.705  0.00  0.00    -0.087 C 
HETATM   17  C   UNK N   1      21.262  12.619   0.583  0.00  0.00     0.043 C 
HETATM   18  C   UNK N   1      21.891  14.947   1.098  0.00  0.00    -0.020 C 
BRANCH  18  19
HETATM   19  C   UNK N   1      20.484  15.321   1.434  0.00  0.00     0.068 C 
BRANCH  19  20
HETATM   20  C   UNK N   1      20.446  16.692   2.025  0.00  0.00    -0.022 A 
HETATM   21  C   UNK N   1      20.489  16.831   3.415  0.00  0.00     0.010 A 
HETATM   22  C   UNK N   1      20.457  18.101   3.997  0.00  0.00     0.001 A 
HETATM   23  C   UNK N   1      20.384  19.238   3.189  0.00  0.00     0.003 A 
HETATM   24  C   UNK N   1      20.343  19.109   1.798  0.00  0.00     0.037 A 
HETATM   25  C   UNK N   1      20.376  17.842   1.211  0.00  0.00     0.072 A 
BRANCH  25  26
HETATM   26  O   UNK N   1      20.337  17.733  -0.130  0.00  0.00    -0.360 OA
HETATM   27  H   UNK N   1      20.405  16.897  -0.547  0.00  0.00     0.217 HD
ENDBRANCH  25  26
ENDBRANCH  19  20
ENDBRANCH  18  19
ENDBRANCH  15  16
ENDBRANCH  14  15
ENDBRANCH  13  14
ENDBRANCH  10  11
ENDBRANCH   9  10
ENDBRANCH   8   9
ENDBRANCH   5   6
ENDBRANCH   4   5
ENDBRANCH   3   4
BRANCH   1  28
HETATM   28  C   UNK N   1      21.848  13.919   9.783  0.00  0.00     0.037 C 
BRANCH  28  29
HETATM   29  C   UNK N   1      20.704  14.189   8.817  0.00  0.00     0.031 C 
BRANCH  29  30
HETATM   30  C   UNK N   1      21.279  14.555   7.480  0.00  0.00    -0.024 C 
HETATM   31  C   UNK N   1      21.355  13.681   6.463  0.00  0.00    -0.087 C 
HETATM   32  C   UNK N   1      20.874  12.270   6.609  0.00  0.00     0.043 C 
BRANCH  31  33
HETATM   33  C   UNK N   1      21.865  14.125   5.127  0.00  0.00     0.037 C 
BRANCH  33  34
HETATM   34  C   UNK N   1      22.911  15.234   5.218  0.00  0.00     0.031 C 
BRANCH  34  35
HETATM   35  C   UNK N   1      23.951  15.150   4.132  0.00  0.00    -0.024 C 
HETATM   36  C   UNK N   1      24.512  16.211   3.516  0.00  0.00    -0.087 C 
HETATM   37  C   UNK N   1      24.125  17.610   3.873  0.00  0.00     0.043 C 
BRANCH  36  38
HETATM   38  C   UNK N   1      25.529  16.021   2.420  0.00  0.00     0.037 C 
BRANCH  38  39
HETATM   39  C   UNK N   1      26.868  15.446   2.890  0.00  0.00     0.031 C 
BRANCH  39  40
HETATM   40  C   UNK N   1      27.713  16.543   3.467  0.00  0.00    -0.024 C 
HETATM   41  C   UNK N   1      28.623  16.328   4.425  0.00  0.00    -0.087 C 
HETATM   42  C   UNK N   1      28.821  14.968   5.024  0.00  0.00     0.043 C 
BRANCH  41  43
HETATM   43  C   UNK N   1      29.452  17.472   4.906  0.00  0.00     0.037 C 
BRANCH  43  44
HETATM   44  C   UNK N   1      29.427  17.523   6.423  0.00  0.00     0.031 C 
BRANCH  44  45
HETATM   45  C   UNK N   1      30.672  16.892   6.956  0.00  0.00    -0.024 C 
HETATM   46  C   UNK N   1      31.249  17.292   8.095  0.00  0.00    -0.091 C 
HETATM   47  C   UNK N   1      32.492  16.616   8.556  0.00  0.00     0.042 C 
HETATM   48  C   UNK N   1      30.691  18.418   8.906  0.00  0.00     0.042 C 
ENDBRANCH  44  45
ENDBRANCH  43  44
ENDBRANCH  41  43
ENDBRANCH  39  40
ENDBRANCH  38  39
ENDBRANCH  36  38
ENDBRANCH  34  35
ENDBRANCH  33  34
ENDBRANCH  31  33
ENDBRANCH  29  30
ENDBRANCH  28  29
ENDBRANCH   1  28
TORSDOF 24
ENDMDL
MODEL 5
REMARK VINA RESULT:      -6.0      4.301      8.225
REMARK  24 active torsions:
REMARK  status: ('A' for Active; 'I' for Inactive)
REMARK    1  A    between atoms: C_4  and  C_5 
REMARK    2  A    between atoms: C_5  and  C_6 
REMARK    3  A    between atoms: C_6  and  C_7 
REMARK    4  A    between atoms: C_9  and  C_10 
REMARK    5  A    between atoms: C_10  and  C_11 
REMARK    6  A    between atoms: C_11  and  C_12 
REMARK    7  A    between atoms: C_14  and  C_15 
REMARK    8  A    between atoms: C_15  and  C_16 
REMARK    9  A    between atoms: C_16  and  C_17 
REMARK   10  A    between atoms: C_19  and  C_20 
REMARK   11  A    between atoms: C_20  and  C_21 
REMARK   12  A    between atoms: C_21  and  C_22 
REMARK   13  A    between atoms: C_24  and  C_25 
REMARK   14  A    between atoms: C_25  and  C_26 
REMARK   15  A    between atoms: C_26  and  C_27 
REMARK   16  A    between atoms: C_29  and  C_30 
REMARK   17  A    between atoms: C_30  and  C_31 
REMARK   18  A    between atoms: C_31  and  C_32 
REMARK   19  A    between atoms: C_34  and  C_35 
REMARK   20  A    between atoms: C_35  and  C_36 
REMARK   21  A    between atoms: C_36  and  C_37 
REMARK   22  A    between atoms: C_39  and  C_40 
REMARK   23  A    between atoms: C_40  and  C_41 
REMARK   24  A    between atoms: C_46  and  O_47 
ROOT
HETATM    1  C   UNK N   1      26.300  16.183   5.857  0.00  0.00    -0.087 C 
HETATM    2  C   UNK N   1      26.774  15.709   7.185  0.00  0.00     0.043 C 
HETATM    3  C   UNK N   1      27.124  16.937   5.112  0.00  0.00    -0.024 C 
ENDROOT
BRANCH   3   4
HETATM    4  C   UNK N   1      26.804  17.509   3.753  0.00  0.00     0.031 C 
BRANCH   4   5
HETATM    5  C   UNK N   1      26.773  19.037   3.669  0.00  0.00     0.037 C 
BRANCH   5   6
HETATM    6  C   UNK N   1      25.879  19.708   4.672  0.00  0.00    -0.087 C 
HETATM    7  C   UNK N   1      26.501  20.511   5.760  0.00  0.00     0.043 C 
HETATM    8  C   UNK N   1      24.552  19.577   4.666  0.00  0.00    -0.024 C 
BRANCH   8   9
HETATM    9  C   UNK N   1      23.761  18.798   3.651  0.00  0.00     0.031 C 
BRANCH   9  10
HETATM   10  C   UNK N   1      22.298  19.265   3.599  0.00  0.00     0.037 C 
BRANCH  10  11
HETATM   11  C   UNK N   1      21.351  18.258   4.192  0.00  0.00    -0.087 C 
HETATM   12  C   UNK N   1      20.114  17.921   3.425  0.00  0.00     0.043 C 
HETATM   13  C   UNK N   1      21.594  17.768   5.423  0.00  0.00    -0.024 C 
BRANCH  13  14
HETATM   14  C   UNK N   1      20.687  16.862   6.225  0.00  0.00     0.031 C 
BRANCH  14  15
HETATM   15  C   UNK N   1      20.575  17.151   7.727  0.00  0.00     0.037 C 
BRANCH  15  16
HETATM   16  C   UNK N   1      20.155  16.001   8.602  0.00  0.00    -0.087 C 
HETATM   17  C   UNK N   1      18.782  16.034   9.190  0.00  0.00     0.043 C 
HETATM   18  C   UNK N   1      20.976  14.969   8.825  0.00  0.00    -0.020 C 
BRANCH  18  19
HETATM   19  C   UNK N   1      20.615  13.788   9.667  0.00  0.00     0.068 C 
BRANCH  19  20
HETATM   20  C   UNK N   1      21.851  13.147  10.207  0.00  0.00    -0.022 A 
HETATM   21  C   UNK N   1      23.083  13.459   9.624  0.00  0.00     0.010 A 
HETATM   22  C   UNK N   1      24.258  12.878  10.109  0.00  0.00     0.001 A 
HETATM   23  C   UNK N   1      24.204  11.982  11.179  0.00  0.00     0.003 A 
HETATM   24  C   UNK N   1      22.977  11.667  11.769  0.00  0.00     0.037 A 
HETATM   25  C   UNK N   1      21.800  12.246  11.290  0.00  0.00     0.072 A 
BRANCH  25  26
HETATM   26  O   UNK N   1      20.626  11.934  11.868  0.00  0.00    -0.360 OA
HETATM   27  H   UNK N   1      20.573  11.257  12.514  0.00  0.00     0.217 HD
ENDBRANCH  25  26
ENDBRANCH  19  20
ENDBRANCH  18  19
ENDBRANCH  15  16
ENDBRANCH  14  15
ENDBRANCH  13  14
ENDBRANCH  10  11
ENDBRANCH   9  10
ENDBRANCH   8   9
ENDBRANCH   5   6
ENDBRANCH   4   5
ENDBRANCH   3   4
BRANCH   1  28
HETATM   28  C   UNK N   1      24.891  15.872   5.454  0.00  0.00     0.037 C 
BRANCH  28  29
HETATM   29  C   UNK N   1      24.058  15.277   6.579  0.00  0.00     0.031 C 
BRANCH  29  30
HETATM   30  C   UNK N   1      23.182  14.198   6.011  0.00  0.00    -0.024 C 
HETATM   31  C   UNK N   1      23.550  12.907   5.988  0.00  0.00    -0.087 C 
HETATM   32  C   UNK N   1      24.876  12.464   6.525  0.00  0.00     0.043 C 
BRANCH  31  33
HETATM   33  C   UNK N   1      22.603  11.864   5.481  0.00  0.00     0.037 C 
BRANCH  33  34
HETATM   34  C   UNK N   1      23.297  10.568   5.068  0.00  0.00     0.031 C 
BRANCH  34  35
HETATM   35  C   UNK N   1      23.689  10.550   3.615  0.00  0.00    -0.024 C 
HETATM   36  C   UNK N   1      24.886  10.147   3.142  0.00  0.00    -0.087 C 
HETATM   37  C   UNK N   1      25.965   9.672   4.063  0.00  0.00     0.043 C 
BRANCH  36  38
HETATM   38  C   UNK N   1      25.191  10.190   1.666  0.00  0.00     0.037 C 
BRANCH  38  39
HETATM   39  C   UNK N   1      26.098  11.346   1.239  0.00  0.00     0.031 C 
BRANCH  39  40
HETATM   40  C   UNK N   1      25.325  12.632   1.270  0.00  0.00    -0.024 C 
HETATM   41  C   UNK N   1      25.530  13.579   2.193  0.00  0.00    -0.087 C 
HETATM   42  C   UNK N   1      26.525  13.389   3.299  0.00  0.00     0.043 C 
BRANCH  41  43
HETATM   43  C   UNK N   1      24.746  14.847   2.117  0.00  0.00     0.037 C 
BRANCH  43  44
HETATM   44  C   UNK N   1      23.399  14.580   1.470  0.00  0.00     0.031 C 
BRANCH  44  45
HETATM   45  C   UNK N   1      22.317  14.824   2.471  0.00  0.00    -0.024 C 
HETATM   46  C   UNK N   1      21.340  13.939   2.703  0.00  0.00    -0.091 C 
HETATM   47  C   UNK N   1      20.295  14.258   3.713  0.00  0.00     0.042 C 
HETATM   48  C   UNK N   1      21.257  12.645   1.956  0.00  0.00     0.042 C 
ENDBRANCH  44  45
ENDBRANCH  43  44
ENDBRANCH  41  43
ENDBRANCH  39  40
ENDBRANCH  38  39
ENDBRANCH  36  38
ENDBRANCH  34  35
ENDBRANCH  33  34
ENDBRANCH  31  33
ENDBRANCH  29  30
ENDBRANCH  28  29
ENDBRANCH   1  28
TORSDOF 24
ENDMDL
MODEL 6
REMARK VINA RESULT:      -5.9      2.992      7.773
REMARK  24 active torsions:
REMARK  status: ('A' for Active; 'I' for Inactive)
REMARK    1  A    between atoms: C_4  and  C_5 
REMARK    2  A    between atoms: C_5  and  C_6 
REMARK    3  A    between atoms: C_6  and  C_7 
REMARK    4  A    between atoms: C_9  and  C_10 
REMARK    5  A    between atoms: C_10  and  C_11 
REMARK    6  A    between atoms: C_11  and  C_12 
REMARK    7  A    between atoms: C_14  and  C_15 
REMARK    8  A    between atoms: C_15  and  C_16 
REMARK    9  A    between atoms: C_16  and  C_17 
REMARK   10  A    between atoms: C_19  and  C_20 
REMARK   11  A    between atoms: C_20  and  C_21 
REMARK   12  A    between atoms: C_21  and  C_22 
REMARK   13  A    between atoms: C_24  and  C_25 
REMARK   14  A    between atoms: C_25  and  C_26 
REMARK   15  A    between atoms: C_26  and  C_27 
REMARK   16  A    between atoms: C_29  and  C_30 
REMARK   17  A    between atoms: C_30  and  C_31 
REMARK   18  A    between atoms: C_31  and  C_32 
REMARK   19  A    between atoms: C_34  and  C_35 
REMARK   20  A    between atoms: C_35  and  C_36 
REMARK   21  A    between atoms: C_36  and  C_37 
REMARK   22  A    between atoms: C_39  and  C_40 
REMARK   23  A    between atoms: C_40  and  C_41 
REMARK   24  A    between atoms: C_46  and  O_47 
ROOT
HETATM    1  C   UNK N   1      23.506  16.827   3.949  0.00  0.00    -0.087 C 
HETATM    2  C   UNK N   1      24.864  17.368   3.670  0.00  0.00     0.043 C 
HETATM    3  C   UNK N   1      22.440  17.496   3.483  0.00  0.00    -0.024 C 
ENDROOT
BRANCH   3   4
HETATM    4  C   UNK N   1      20.998  17.100   3.681  0.00  0.00     0.031 C 
BRANCH   4   5
HETATM    5  C   UNK N   1      20.594  15.752   3.079  0.00  0.00     0.037 C 
BRANCH   5   6
HETATM    6  C   UNK N   1      20.686  15.675   1.582  0.00  0.00    -0.087 C 
HETATM    7  C   UNK N   1      19.758  16.503   0.764  0.00  0.00     0.043 C 
HETATM    8  C   UNK N   1      21.528  14.860   0.947  0.00  0.00    -0.024 C 
BRANCH   8   9
HETATM    9  C   UNK N   1      22.525  13.950   1.611  0.00  0.00     0.031 C 
BRANCH   9  10
HETATM   10  C   UNK N   1      23.860  13.925   0.852  0.00  0.00     0.037 C 
BRANCH  10  11
HETATM   11  C   UNK N   1      24.988  13.386   1.688  0.00  0.00    -0.087 C 
HETATM   12  C   UNK N   1      24.928  11.953   2.106  0.00  0.00     0.043 C 
HETATM   13  C   UNK N   1      25.956  14.221   2.109  0.00  0.00    -0.024 C 
BRANCH  13  14
HETATM   14  C   UNK N   1      27.081  13.885   3.061  0.00  0.00     0.031 C 
BRANCH  14  15
HETATM   15  C   UNK N   1      26.810  14.102   4.555  0.00  0.00     0.037 C 
BRANCH  15  16
HETATM   16  C   UNK N   1      27.764  15.007   5.287  0.00  0.00    -0.087 C 
HETATM   17  C   UNK N   1      29.226  14.722   5.173  0.00  0.00     0.043 C 
HETATM   18  C   UNK N   1      27.319  16.050   5.996  0.00  0.00    -0.020 C 
BRANCH  18  19
HETATM   19  C   UNK N   1      28.212  16.997   6.729  0.00  0.00     0.068 C 
BRANCH  19  20
HETATM   20  C   UNK N   1      27.927  18.401   6.306  0.00  0.00    -0.022 A 
HETATM   21  C   UNK N   1      28.033  18.733   4.952  0.00  0.00     0.010 A 
HETATM   22  C   UNK N   1      27.769  20.037   4.525  0.00  0.00     0.001 A 
HETATM   23  C   UNK N   1      27.398  21.015   5.452  0.00  0.00     0.003 A 
HETATM   24  C   UNK N   1      27.287  20.690   6.806  0.00  0.00     0.037 A 
HETATM   25  C   UNK N   1      27.548  19.388   7.239  0.00  0.00     0.072 A 
BRANCH  25  26
HETATM   26  O   UNK N   1      27.435  19.090   8.547  0.00  0.00    -0.360 OA
HETATM   27  H   UNK N   1      27.072  19.706   9.151  0.00  0.00     0.217 HD
ENDBRANCH  25  26
ENDBRANCH  19  20
ENDBRANCH  18  19
ENDBRANCH  15  16
ENDBRANCH  14  15
ENDBRANCH  13  14
ENDBRANCH  10  11
ENDBRANCH   9  10
ENDBRANCH   8   9
ENDBRANCH   5   6
ENDBRANCH   4   5
ENDBRANCH   3   4
BRANCH   1  28
HETATM   28  C   UNK N   1      23.391  15.611   4.816  0.00  0.00     0.037 C 
BRANCH  28  29
HETATM   29  C   UNK N   1      23.410  15.925   6.304  0.00  0.00     0.031 C 
BRANCH  29  30
HETATM   30  C   UNK N   1      22.206  15.295   6.944  0.00  0.00    -0.024 C 
HETATM   31  C   UNK N   1      21.124  16.005   7.300  0.00  0.00    -0.087 C 
HETATM   32  C   UNK N   1      21.056  17.486   7.088  0.00  0.00     0.043 C 
BRANCH  31  33
HETATM   33  C   UNK N   1      19.921  15.311   7.861  0.00  0.00     0.037 C 
BRANCH  33  34
HETATM   34  C   UNK N   1      20.143  14.760   9.268  0.00  0.00     0.031 C 
BRANCH  34  35
HETATM   35  C   UNK N   1      21.539  14.238   9.479  0.00  0.00    -0.024 C 
HETATM   36  C   UNK N   1      21.860  13.179  10.250  0.00  0.00    -0.087 C 
HETATM   37  C   UNK N   1      20.811  12.412  10.990  0.00  0.00     0.043 C 
BRANCH  36  38
HETATM   38  C   UNK N   1      23.295  12.749  10.417  0.00  0.00     0.037 C 
BRANCH  38  39
HETATM   39  C   UNK N   1      23.698  11.540   9.569  0.00  0.00     0.031 C 
BRANCH  39  40
HETATM   40  C   UNK N   1      22.907  11.533   8.293  0.00  0.00    -0.024 C 
HETATM   41  C   UNK N   1      23.410  11.956   7.127  0.00  0.00    -0.087 C 
HETATM   42  C   UNK N   1      24.796  12.518   7.033  0.00  0.00     0.043 C 
BRANCH  41  43
HETATM   43  C   UNK N   1      22.565  11.868   5.900  0.00  0.00     0.037 C 
BRANCH  43  44
HETATM   44  C   UNK N   1      21.097  11.946   6.279  0.00  0.00     0.031 C 
BRANCH  44  45
HETATM   45  C   UNK N   1      20.335  12.579   5.161  0.00  0.00    -0.024 C 
HETATM   46  C   UNK N   1      19.436  11.905   4.434  0.00  0.00    -0.091 C 
HETATM   47  C   UNK N   1      18.721  12.605   3.333  0.00  0.00     0.042 C 
HETATM   48  C   UNK N   1      19.147  10.458   4.682  0.00  0.00     0.042 C 
ENDBRANCH  44  45
ENDBRANCH  43  44
ENDBRANCH  41  43
ENDBRANCH  39  40
ENDBRANCH  38  39
ENDBRANCH  36  38
ENDBRANCH  34  35
ENDBRANCH  33  34
ENDBRANCH  31  33
ENDBRANCH  29  30
ENDBRANCH  28  29
ENDBRANCH   1  28
TORSDOF 24
ENDMDL
MODEL 7
REMARK VINA RESULT:      -5.9      2.968      7.689
REMARK  24 active torsions:
REMARK  status: ('A' for Active; 'I' for Inactive)
REMARK    1  A    between atoms: C_4  and  C_5 
REMARK    2  A    between atoms: C_5  and  C_6 
REMARK    3  A    between atoms: C_6  and  C_7 
REMARK    4  A    between atoms: C_9  and  C_10 
REMARK    5  A    between atoms: C_10  and  C_11 
REMARK    6  A    between atoms: C_11  and  C_12 
REMARK    7  A    between atoms: C_14  and  C_15 
REMARK    8  A    between atoms: C_15  and  C_16 
REMARK    9  A    between atoms: C_16  and  C_17 
REMARK   10  A    between atoms: C_19  and  C_20 
REMARK   11  A    between atoms: C_20  and  C_21 
REMARK   12  A    between atoms: C_21  and  C_22 
REMARK   13  A    between atoms: C_24  and  C_25 
REMARK   14  A    between atoms: C_25  and  C_26 
REMARK   15  A    between atoms: C_26  and  C_27 
REMARK   16  A    between atoms: C_29  and  C_30 
REMARK   17  A    between atoms: C_30  and  C_31 
REMARK   18  A    between atoms: C_31  and  C_32 
REMARK   19  A    between atoms: C_34  and  C_35 
REMARK   20  A    between atoms: C_35  and  C_36 
REMARK   21  A    between atoms: C_36  and  C_37 
REMARK   22  A    between atoms: C_39  and  C_40 
REMARK   23  A    between atoms: C_40  and  C_41 
REMARK   24  A    between atoms: C_46  and  O_47 
ROOT
HETATM    1  C   UNK N   1      22.749  12.869   5.489  0.00  0.00    -0.087 C 
HETATM    2  C   UNK N   1      21.607  13.152   4.577  0.00  0.00     0.043 C 
HETATM    3  C   UNK N   1      22.668  11.811   6.310  0.00  0.00    -0.024 C 
ENDROOT
BRANCH   3   4
HETATM    4  C   UNK N   1      23.723  11.386   7.302  0.00  0.00     0.031 C 
BRANCH   4   5
HETATM    5  C   UNK N   1      23.298  11.413   8.772  0.00  0.00     0.037 C 
BRANCH   5   6
HETATM    6  C   UNK N   1      23.609  12.691   9.497  0.00  0.00    -0.087 C 
HETATM    7  C   UNK N   1      25.034  13.072   9.696  0.00  0.00     0.043 C 
HETATM    8  C   UNK N   1      22.668  13.479  10.018  0.00  0.00    -0.024 C 
BRANCH   8   9
HETATM    9  C   UNK N   1      21.186  13.243   9.920  0.00  0.00     0.031 C 
BRANCH   9  10
HETATM   10  C   UNK N   1      20.654  13.570   8.516  0.00  0.00     0.037 C 
BRANCH  10  11
HETATM   11  C   UNK N   1      20.573  15.050   8.262  0.00  0.00    -0.087 C 
HETATM   12  C   UNK N   1      19.562  15.839   9.028  0.00  0.00     0.043 C 
HETATM   13  C   UNK N   1      21.336  15.597   7.296  0.00  0.00    -0.024 C 
BRANCH  13  14
HETATM   14  C   UNK N   1      21.286  17.029   6.814  0.00  0.00     0.031 C 
BRANCH  14  15
HETATM   15  C   UNK N   1      21.819  17.302   5.402  0.00  0.00     0.037 C 
BRANCH  15  16
HETATM   16  C   UNK N   1      20.949  16.855   4.259  0.00  0.00    -0.087 C 
HETATM   17  C   UNK N   1      19.549  16.433   4.566  0.00  0.00     0.043 C 
HETATM   18  C   UNK N   1      21.406  16.861   3.001  0.00  0.00    -0.020 C 
BRANCH  18  19
HETATM   19  C   UNK N   1      20.589  16.448   1.820  0.00  0.00     0.068 C 
BRANCH  19  20
HETATM   20  C   UNK N   1      20.932  15.049   1.424  0.00  0.00    -0.022 A 
HETATM   21  C   UNK N   1      22.273  14.719   1.205  0.00  0.00     0.010 A 
HETATM   22  C   UNK N   1      22.624  13.417   0.836  0.00  0.00     0.001 A 
HETATM   23  C   UNK N   1      21.636  12.442   0.686  0.00  0.00     0.003 A 
HETATM   24  C   UNK N   1      20.294  12.763   0.906  0.00  0.00     0.037 A 
HETATM   25  C   UNK N   1      19.936  14.062   1.276  0.00  0.00     0.072 A 
BRANCH  25  26
HETATM   26  O   UNK N   1      18.640  14.357   1.486  0.00  0.00    -0.360 OA
HETATM   27  H   UNK N   1      18.271  15.156   1.168  0.00  0.00     0.217 HD
ENDBRANCH  25  26
ENDBRANCH  19  20
ENDBRANCH  18  19
ENDBRANCH  15  16
ENDBRANCH  14  15
ENDBRANCH  13  14
ENDBRANCH  10  11
ENDBRANCH   9  10
ENDBRANCH   8   9
ENDBRANCH   5   6
ENDBRANCH   4   5
ENDBRANCH   3   4
BRANCH   1  28
HETATM   28  C   UNK N   1      23.895  13.834   5.510  0.00  0.00     0.037 C 
BRANCH  28  29
HETATM   29  C   UNK N   1      24.519  14.062   4.141  0.00  0.00     0.031 C 
BRANCH  29  30
HETATM   30  C   UNK N   1      24.708  15.538   3.939  0.00  0.00    -0.024 C 
HETATM   31  C   UNK N   1      25.660  16.040   3.138  0.00  0.00    -0.087 C 
HETATM   32  C   UNK N   1      26.608  15.148   2.397  0.00  0.00     0.043 C 
BRANCH  31  33
HETATM   33  C   UNK N   1      25.752  17.518   2.913  0.00  0.00     0.037 C 
BRANCH  33  34
HETATM   34  C   UNK N   1      24.879  18.329   3.868  0.00  0.00     0.031 C 
BRANCH  34  35
HETATM   35  C   UNK N   1      25.620  18.780   5.099  0.00  0.00    -0.024 C 
HETATM   36  C   UNK N   1      26.551  19.755   5.127  0.00  0.00    -0.087 C 
HETATM   37  C   UNK N   1      26.940  20.492   3.885  0.00  0.00     0.043 C 
BRANCH  36  38
HETATM   38  C   UNK N   1      27.256  20.117   6.409  0.00  0.00     0.037 C 
BRANCH  38  39
HETATM   39  C   UNK N   1      27.939  18.941   7.111  0.00  0.00     0.031 C 
BRANCH  39  40
HETATM   40  C   UNK N   1      28.909  18.286   6.172  0.00  0.00    -0.024 C 
HETATM   41  C   UNK N   1      28.794  17.010   5.785  0.00  0.00    -0.087 C 
HETATM   42  C   UNK N   1      27.701  16.130   6.313  0.00  0.00     0.043 C 
BRANCH  41  43
HETATM   43  C   UNK N   1      29.779  16.457   4.810  0.00  0.00     0.037 C 
BRANCH  43  44
HETATM   44  C   UNK N   1      30.857  17.489   4.528  0.00  0.00     0.031 C 
BRANCH  44  45
HETATM   45  C   UNK N   1      32.196  16.830   4.593  0.00  0.00    -0.024 C 
HETATM   46  C   UNK N   1      32.929  16.802   5.712  0.00  0.00    -0.091 C 
HETATM   47  C   UNK N   1      34.257  16.130   5.695  0.00  0.00     0.042 C 
HETATM   48  C   UNK N   1      32.459  17.449   6.977  0.00  0.00     0.042 C 
ENDBRANCH  44  45
ENDBRANCH  43  44
ENDBRANCH  41  43
ENDBRANCH  39  40
ENDBRANCH  38  39
ENDBRANCH  36  38
ENDBRANCH  34  35
ENDBRANCH  33  34
ENDBRANCH  31  33
ENDBRANCH  29  30
ENDBRANCH  28  29
ENDBRANCH   1  28
TORSDOF 24
ENDMDL
MODEL 8
REMARK VINA RESULT:      -5.9      4.456      8.406
REMARK  24 active torsions:
REMARK  status: ('A' for Active; 'I' for Inactive)
REMARK    1  A    between atoms: C_4  and  C_5 
REMARK    2  A    between atoms: C_5  and  C_6 
REMARK    3  A    between atoms: C_6  and  C_7 
REMARK    4  A    between atoms: C_9  and  C_10 
REMARK    5  A    between atoms: C_10  and  C_11 
REMARK    6  A    between atoms: C_11  and  C_12 
REMARK    7  A    between atoms: C_14  and  C_15 
REMARK    8  A    between atoms: C_15  and  C_16 
REMARK    9  A    between atoms: C_16  and  C_17 
REMARK   10  A    between atoms: C_19  and  C_20 
REMARK   11  A    between atoms: C_20  and  C_21 
REMARK   12  A    between atoms: C_21  and  C_22 
REMARK   13  A    between atoms: C_24  and  C_25 
REMARK   14  A    between atoms: C_25  and  C_26 
REMARK   15  A    between atoms: C_26  and  C_27 
REMARK   16  A    between atoms: C_29  and  C_30 
REMARK   17  A    between atoms: C_30  and  C_31 
REMARK   18  A    between atoms: C_31  and  C_32 
REMARK   19  A    between atoms: C_34  and  C_35 
REMARK   20  A    between atoms: C_35  and  C_36 
REMARK   21  A    between atoms: C_36  and  C_37 
REMARK   22  A    between atoms: C_39  and  C_40 
REMARK   23  A    between atoms: C_40  and  C_41 
REMARK   24  A    between atoms: C_46  and  O_47 
ROOT
HETATM    1  C   UNK N   1      25.664  19.159   4.033  0.00  0.00    -0.087 C 
HETATM    2  C   UNK N   1      26.093  20.085   5.116  0.00  0.00     0.043 C 
HETATM    3  C   UNK N   1      25.902  17.846   4.179  0.00  0.00    -0.024 C 
ENDROOT
BRANCH   3   4
HETATM    4  C   UNK N   1      25.546  16.772   3.180  0.00  0.00     0.031 C 
BRANCH   4   5
HETATM    5  C   UNK N   1      26.584  15.661   3.005  0.00  0.00     0.037 C 
BRANCH   5   6
HETATM    6  C   UNK N   1      26.021  14.327   2.606  0.00  0.00    -0.087 C 
HETATM    7  C   UNK N   1      25.375  14.193   1.272  0.00  0.00     0.043 C 
HETATM    8  C   UNK N   1      26.026  13.266   3.413  0.00  0.00    -0.024 C 
BRANCH   8   9
HETATM    9  C   UNK N   1      26.623  13.226   4.792  0.00  0.00     0.031 C 
BRANCH   9  10
HETATM   10  C   UNK N   1      25.536  13.160   5.877  0.00  0.00     0.037 C 
BRANCH  10  11
HETATM   11  C   UNK N   1      24.982  14.516   6.219  0.00  0.00    -0.087 C 
HETATM   12  C   UNK N   1      25.763  15.376   7.158  0.00  0.00     0.043 C 
HETATM   13  C   UNK N   1      23.770  14.871   5.752  0.00  0.00    -0.024 C 
BRANCH  13  14
HETATM   14  C   UNK N   1      23.004  16.126   6.103  0.00  0.00     0.031 C 
BRANCH  14  15
HETATM   15  C   UNK N   1      21.516  15.958   6.432  0.00  0.00     0.037 C 
BRANCH  15  16
HETATM   16  C   UNK N   1      21.142  14.755   7.254  0.00  0.00    -0.087 C 
HETATM   17  C   UNK N   1      20.607  13.556   6.539  0.00  0.00     0.043 C 
HETATM   18  C   UNK N   1      21.307  14.747   8.581  0.00  0.00    -0.020 C 
BRANCH  18  19
HETATM   19  C   UNK N   1      20.975  13.580   9.453  0.00  0.00     0.068 C 
BRANCH  19  20
HETATM   20  C   UNK N   1      22.219  13.036  10.076  0.00  0.00    -0.022 A 
HETATM   21  C   UNK N   1      23.454  13.343   9.497  0.00  0.00     0.010 A 
HETATM   22  C   UNK N   1      24.635  12.851  10.059  0.00  0.00     0.001 A 
HETATM   23  C   UNK N   1      24.586  12.051  11.202  0.00  0.00     0.003 A 
HETATM   24  C   UNK N   1      23.355  11.742  11.788  0.00  0.00     0.037 A 
HETATM   25  C   UNK N   1      22.171  12.232  11.233  0.00  0.00     0.072 A 
BRANCH  25  26
HETATM   26  O   UNK N   1      20.994  11.927  11.809  0.00  0.00    -0.360 OA
HETATM   27  H   UNK N   1      20.901  11.923  12.741  0.00  0.00     0.217 HD
ENDBRANCH  25  26
ENDBRANCH  19  20
ENDBRANCH  18  19
ENDBRANCH  15  16
ENDBRANCH  14  15
ENDBRANCH  13  14
ENDBRANCH  10  11
ENDBRANCH   9  10
ENDBRANCH   8   9
ENDBRANCH   5   6
ENDBRANCH   4   5
ENDBRANCH   3   4
BRANCH   1  28
HETATM   28  C   UNK N   1      25.070  19.748   2.791  0.00  0.00     0.037 C 
BRANCH  28  29
HETATM   29  C   UNK N   1      23.746  20.458   3.032  0.00  0.00     0.031 C 
BRANCH  29  30
HETATM   30  C   UNK N   1      22.774  19.476   3.622  0.00  0.00    -0.024 C 
HETATM   31  C   UNK N   1      21.512  19.356   3.181  0.00  0.00    -0.087 C 
HETATM   32  C   UNK N   1      20.989  20.210   2.068  0.00  0.00     0.043 C 
BRANCH  31  33
HETATM   33  C   UNK N   1      20.612  18.305   3.754  0.00  0.00     0.037 C 
BRANCH  33  34
HETATM   34  C   UNK N   1      19.934  17.445   2.690  0.00  0.00     0.031 C 
BRANCH  34  35
HETATM   35  C   UNK N   1      19.952  15.977   3.024  0.00  0.00    -0.024 C 
HETATM   36  C   UNK N   1      21.018  15.164   2.874  0.00  0.00    -0.087 C 
HETATM   37  C   UNK N   1      22.316  15.675   2.338  0.00  0.00     0.043 C 
BRANCH  36  38
HETATM   38  C   UNK N   1      20.927  13.698   3.216  0.00  0.00     0.037 C 
BRANCH  38  39
HETATM   39  C   UNK N   1      22.045  12.838   2.620  0.00  0.00     0.031 C 
BRANCH  39  40
HETATM   40  C   UNK N   1      22.675  12.010   3.701  0.00  0.00    -0.024 C 
HETATM   41  C   UNK N   1      23.295  10.850   3.456  0.00  0.00    -0.087 C 
HETATM   42  C   UNK N   1      23.354  10.272   2.074  0.00  0.00     0.043 C 
BRANCH  41  43
HETATM   43  C   UNK N   1      23.935  10.117   4.588  0.00  0.00     0.037 C 
BRANCH  43  44
HETATM   44  C   UNK N   1      24.982   9.157   4.053  0.00  0.00     0.031 C 
BRANCH  44  45
HETATM   45  C   UNK N   1      26.306   9.484   4.663  0.00  0.00    -0.024 C 
HETATM   46  C   UNK N   1      27.371   9.822   3.927  0.00  0.00    -0.091 C 
HETATM   47  C   UNK N   1      28.658  10.129   4.610  0.00  0.00     0.042 C 
HETATM   48  C   UNK N   1      27.311   9.878   2.433  0.00  0.00     0.042 C 
ENDBRANCH  44  45
ENDBRANCH  43  44
ENDBRANCH  41  43
ENDBRANCH  39  40
ENDBRANCH  38  39
ENDBRANCH  36  38
ENDBRANCH  34  35
ENDBRANCH  33  34
ENDBRANCH  31  33
ENDBRANCH  29  30
ENDBRANCH  28  29
ENDBRANCH   1  28
TORSDOF 24
ENDMDL
MODEL 9
REMARK VINA RESULT:      -5.9      4.379      8.931
REMARK  24 active torsions:
REMARK  status: ('A' for Active; 'I' for Inactive)
REMARK    1  A    between atoms: C_4  and  C_5 
REMARK    2  A    between atoms: C_5  and  C_6 
REMARK    3  A    between atoms: C_6  and  C_7 
REMARK    4  A    between atoms: C_9  and  C_10 
REMARK    5  A    between atoms: C_10  and  C_11 
REMARK    6  A    between atoms: C_11  and  C_12 
REMARK    7  A    between atoms: C_14  and  C_15 
REMARK    8  A    between atoms: C_15  and  C_16 
REMARK    9  A    between atoms: C_16  and  C_17 
REMARK   10  A    between atoms: C_19  and  C_20 
REMARK   11  A    between atoms: C_20  and  C_21 
REMARK   12  A    between atoms: C_21  and  C_22 
REMARK   13  A    between atoms: C_24  and  C_25 
REMARK   14  A    between atoms: C_25  and  C_26 
REMARK   15  A    between atoms: C_26  and  C_27 
REMARK   16  A    between atoms: C_29  and  C_30 
REMARK   17  A    between atoms: C_30  and  C_31 
REMARK   18  A    between atoms: C_31  and  C_32 
REMARK   19  A    between atoms: C_34  and  C_35 
REMARK   20  A    between atoms: C_35  and  C_36 
REMARK   21  A    between atoms: C_36  and  C_37 
REMARK   22  A    between atoms: C_39  and  C_40 
REMARK   23  A    between atoms: C_40  and  C_41 
REMARK   24  A    between atoms: C_46  and  O_47 
ROOT
HETATM    1  C   UNK N   1      26.092  19.736   4.006  0.00  0.00    -0.087 C 
HETATM    2  C   UNK N   1      26.643  20.838   4.841  0.00  0.00     0.043 C 
HETATM    3  C   UNK N   1      26.388  18.469   4.338  0.00  0.00    -0.024 C 
ENDROOT
BRANCH   3   4
HETATM    4  C   UNK N   1      25.926  17.237   3.600  0.00  0.00     0.031 C 
BRANCH   4   5
HETATM    5  C   UNK N   1      26.984  16.150   3.399  0.00  0.00     0.037 C 
BRANCH   5   6
HETATM    6  C   UNK N   1      26.537  14.975   2.577  0.00  0.00    -0.087 C 
HETATM    7  C   UNK N   1      26.182  15.195   1.149  0.00  0.00     0.043 C 
HETATM    8  C   UNK N   1      26.393  13.749   3.080  0.00  0.00    -0.024 C 
BRANCH   8   9
HETATM    9  C   UNK N   1      26.695  13.351   4.499  0.00  0.00     0.031 C 
BRANCH   9  10
HETATM   10  C   UNK N   1      25.409  13.164   5.318  0.00  0.00     0.037 C 
BRANCH  10  11
HETATM   11  C   UNK N   1      24.813  14.472   5.760  0.00  0.00    -0.087 C 
HETATM   12  C   UNK N   1      25.510  15.231   6.842  0.00  0.00     0.043 C 
HETATM   13  C   UNK N   1      23.634  14.869   5.243  0.00  0.00    -0.024 C 
BRANCH  13  14
HETATM   14  C   UNK N   1      22.828  16.076   5.667  0.00  0.00     0.031 C 
BRANCH  14  15
HETATM   15  C   UNK N   1      21.530  15.803   6.437  0.00  0.00     0.037 C 
BRANCH  15  16
HETATM   16  C   UNK N   1      21.298  14.384   6.880  0.00  0.00    -0.087 C 
HETATM   17  C   UNK N   1      20.424  13.518   6.031  0.00  0.00     0.043 C 
HETATM   18  C   UNK N   1      21.877  13.903   7.987  0.00  0.00    -0.020 C 
BRANCH  18  19
HETATM   19  C   UNK N   1      21.704  12.500   8.471  0.00  0.00     0.068 C 
BRANCH  19  20
HETATM   20  C   UNK N   1      22.427  12.314   9.765  0.00  0.00    -0.022 A 
HETATM   21  C   UNK N   1      21.683  12.205  10.944  0.00  0.00     0.010 A 
HETATM   22  C   UNK N   1      22.330  12.027  12.170  0.00  0.00     0.001 A 
HETATM   23  C   UNK N   1      23.724  11.958  12.221  0.00  0.00     0.003 A 
HETATM   24  C   UNK N   1      24.475  12.064  11.047  0.00  0.00     0.037 A 
HETATM   25  C   UNK N   1      23.834  12.240   9.818  0.00  0.00     0.072 A 
BRANCH  25  26
HETATM   26  O   UNK N   1      24.570  12.339   8.696  0.00  0.00    -0.360 OA
HETATM   27  H   UNK N   1      24.554  11.662   8.049  0.00  0.00     0.217 HD
ENDBRANCH  25  26
ENDBRANCH  19  20
ENDBRANCH  18  19
ENDBRANCH  15  16
ENDBRANCH  14  15
ENDBRANCH  13  14
ENDBRANCH  10  11
ENDBRANCH   9  10
ENDBRANCH   8   9
ENDBRANCH   5   6
ENDBRANCH   4   5
ENDBRANCH   3   4
BRANCH   1  28
HETATM   28  C   UNK N   1      25.309  20.097   2.782  0.00  0.00     0.037 C 
BRANCH  28  29
HETATM   29  C   UNK N   1      23.944  20.692   3.091  0.00  0.00     0.031 C 
BRANCH  29  30
HETATM   30  C   UNK N   1      23.012  19.580   3.480  0.00  0.00    -0.024 C 
HETATM   31  C   UNK N   1      21.694  19.622   3.227  0.00  0.00    -0.087 C 
HETATM   32  C   UNK N   1      21.067  20.798   2.544  0.00  0.00     0.043 C 
BRANCH  31  33
HETATM   33  C   UNK N   1      20.826  18.450   3.566  0.00  0.00     0.037 C 
BRANCH  33  34
HETATM   34  C   UNK N   1      19.929  18.009   2.412  0.00  0.00     0.031 C 
BRANCH  34  35
HETATM   35  C   UNK N   1      20.527  16.891   1.600  0.00  0.00    -0.024 C 
HETATM   36  C   UNK N   1      20.417  15.579   1.892  0.00  0.00    -0.087 C 
HETATM   37  C   UNK N   1      19.666  15.113   3.099  0.00  0.00     0.043 C 
BRANCH  36  38
HETATM   38  C   UNK N   1      21.075  14.534   1.027  0.00  0.00     0.037 C 
BRANCH  38  39
HETATM   39  C   UNK N   1      22.603  14.518   1.103  0.00  0.00     0.031 C 
BRANCH  39  40
HETATM   40  C   UNK N   1      23.057  13.328   1.896  0.00  0.00    -0.024 C 
HETATM   41  C   UNK N   1      23.512  12.207   1.325  0.00  0.00    -0.087 C 
HETATM   42  C   UNK N   1      23.551  12.051  -0.166  0.00  0.00     0.043 C 
BRANCH  41  43
HETATM   43  C   UNK N   1      23.987  11.091   2.195  0.00  0.00     0.037 C 
BRANCH  43  44
HETATM   44  C   UNK N   1      22.886  10.688   3.159  0.00  0.00     0.031 C 
BRANCH  44  45
HETATM   45  C   UNK N   1      23.493  10.338   4.478  0.00  0.00    -0.024 C 
HETATM   46  C   UNK N   1      22.753  10.040   5.553  0.00  0.00    -0.091 C 
HETATM   47  C   UNK N   1      23.433   9.706   6.834  0.00  0.00     0.042 C 
HETATM   48  C   UNK N   1      21.257  10.055   5.507  0.00  0.00     0.042 C 
ENDBRANCH  44  45
ENDBRANCH  43  44
ENDBRANCH  41  43
ENDBRANCH  39  40
ENDBRANCH  38  39
ENDBRANCH  36  38
ENDBRANCH  34  35
ENDBRANCH  33  34
ENDBRANCH  31  33
ENDBRANCH  29  30
ENDBRANCH  28  29
ENDBRANCH   1  28
TORSDOF 24
ENDMDL
