MODEL 1
REMARK VINA RESULT:      -3.8      0.000      0.000
REMARK  5 active torsions:
REMARK  status: ('A' for Active; 'I' for Inactive)
REMARK    1  A    between atoms: C_2  and  C_1 
REMARK    2  A    between atoms: O_4  and  C_1 
REMARK    3  A    between atoms: C_3  and  C_2 
REMARK    4  A    between atoms: C_2  and  N_6 
REMARK    5  A    between atoms: S_7  and  C_3 
ROOT
HETATM    1  C   UNK N   1      34.105  17.214   9.043  0.00  0.00     0.182 C 
ENDROOT
BRANCH   1   2
HETATM    2  C   UNK N   1      34.660  18.263   8.112  0.00  0.00     0.163 C 
HETATM    3  O   UNK N   1      35.266  19.230   8.543  0.00  0.00    -0.648 OA
BRANCH   2   4
HETATM    4  O   UNK N   1      34.485  18.131   6.783  0.00  0.00    -0.775 OA
HETATM    5  H   UNK N   1      35.227  18.044   6.218  0.00  0.00     0.167 HD
ENDBRANCH   2   4
ENDBRANCH   1   2
BRANCH   1   6
HETATM    6  C   UNK N   1      32.920  16.263   8.835  0.00  0.00     0.106 C 
BRANCH   6   7
HETATM    7  S   UNK N   1      31.337  17.048   8.399  0.00  0.00    -0.180 SA
HETATM    8  H   UNK N   1      30.255  16.278   8.106  0.00  0.00     0.101 HD
ENDBRANCH   6   7
ENDBRANCH   1   6
BRANCH   1   9
HETATM    9  N   UNK N   1      34.783  17.078  10.320  0.00  0.00    -0.417 N 
HETATM   10  H   UNK N   1      34.381  17.498  11.159  0.00  0.00     0.150 HD
HETATM   11  H   UNK N   1      35.662  16.563  10.379  0.00  0.00     0.150 HD
ENDBRANCH   1   9
TORSDOF 5
ENDMDL
MODEL 2
REMARK VINA RESULT:      -3.7      2.202      2.528
REMARK  5 active torsions:
REMARK  status: ('A' for Active; 'I' for Inactive)
REMARK    1  A    between atoms: C_2  and  C_1 
REMARK    2  A    between atoms: O_4  and  C_1 
REMARK    3  A    between atoms: C_3  and  C_2 
REMARK    4  A    between atoms: C_2  and  N_6 
REMARK    5  A    between atoms: S_7  and  C_3 
ROOT
HETATM    1  C   UNK N   1      33.838  17.177   8.833  0.00  0.00     0.182 C 
ENDROOT
BRANCH   1   2
HETATM    2  C   UNK N   1      34.523  18.201   7.962  0.00  0.00     0.163 C 
HETATM    3  O   UNK N   1      34.426  18.159   6.747  0.00  0.00    -0.648 OA
BRANCH   2   4
HETATM    4  O   UNK N   1      35.253  19.178   8.534  0.00  0.00    -0.775 OA
HETATM    5  H   UNK N   1      34.914  20.050   8.582  0.00  0.00     0.167 HD
ENDBRANCH   2   4
ENDBRANCH   1   2
BRANCH   1   6
HETATM    6  C   UNK N   1      34.438  15.965   9.556  0.00  0.00     0.106 C 
BRANCH   6   7
HETATM    7  S   UNK N   1      35.479  16.334  11.001  0.00  0.00    -0.180 SA
HETATM    8  H   UNK N   1      34.902  16.637  12.195  0.00  0.00     0.101 HD
ENDBRANCH   6   7
ENDBRANCH   1   6
BRANCH   1   9
HETATM    9  N   UNK N   1      32.410  17.358   9.019  0.00  0.00    -0.417 N 
HETATM   10  H   UNK N   1      31.845  16.599   9.404  0.00  0.00     0.150 HD
HETATM   11  H   UNK N   1      31.970  18.242   8.765  0.00  0.00     0.150 HD
ENDBRANCH   1   9
TORSDOF 5
ENDMDL
MODEL 3
REMARK VINA RESULT:      -3.5      4.330      4.569
REMARK  5 active torsions:
REMARK  status: ('A' for Active; 'I' for Inactive)
REMARK    1  A    between atoms: C_2  and  C_1 
REMARK    2  A    between atoms: O_4  and  C_1 
REMARK    3  A    between atoms: C_3  and  C_2 
REMARK    4  A    between atoms: C_2  and  N_6 
REMARK    5  A    between atoms: S_7  and  C_3 
ROOT
HETATM    1  C   UNK N   1      34.823  15.021  11.287  0.00  0.00     0.182 C 
ENDROOT
BRANCH   1   2
HETATM    2  C   UNK N   1      35.686  16.201  10.917  0.00  0.00     0.163 C 
HETATM    3  O   UNK N   1      35.193  17.292  10.680  0.00  0.00    -0.648 OA
BRANCH   2   4
HETATM    4  O   UNK N   1      37.022  16.051  10.845  0.00  0.00    -0.775 OA
HETATM    5  H   UNK N   1      37.501  15.746  11.591  0.00  0.00     0.167 HD
ENDBRANCH   2   4
ENDBRANCH   1   2
BRANCH   1   6
HETATM    6  C   UNK N   1      35.195  13.757  12.072  0.00  0.00     0.106 C 
BRANCH   6   7
HETATM    7  S   UNK N   1      36.066  14.025  13.646  0.00  0.00    -0.180 SA
HETATM    8  H   UNK N   1      35.793  13.233  14.718  0.00  0.00     0.101 HD
ENDBRANCH   6   7
ENDBRANCH   1   6
BRANCH   1   9
HETATM    9  N   UNK N   1      33.442  15.082  10.841  0.00  0.00    -0.417 N 
HETATM   10  H   UNK N   1      33.060  15.957  10.482  0.00  0.00     0.150 HD
HETATM   11  H   UNK N   1      32.854  14.249  10.886  0.00  0.00     0.150 HD
ENDBRANCH   1   9
TORSDOF 5
ENDMDL
MODEL 4
REMARK VINA RESULT:      -3.5     14.568     14.963
REMARK  5 active torsions:
REMARK  status: ('A' for Active; 'I' for Inactive)
REMARK    1  A    between atoms: C_2  and  C_1 
REMARK    2  A    between atoms: O_4  and  C_1 
REMARK    3  A    between atoms: C_3  and  C_2 
REMARK    4  A    between atoms: C_2  and  N_6 
REMARK    5  A    between atoms: S_7  and  C_3 
ROOT
HETATM    1  C   UNK N   1      20.513  19.085   1.855  0.00  0.00     0.182 C 
ENDROOT
BRANCH   1   2
HETATM    2  C   UNK N   1      20.881  20.400   1.216  0.00  0.00     0.163 C 
HETATM    3  O   UNK N   1      21.405  21.291   1.865  0.00  0.00    -0.648 OA
BRANCH   2   4
HETATM    4  O   UNK N   1      20.628  20.598  -0.092  0.00  0.00    -0.775 OA
HETATM    5  H   UNK N   1      20.498  21.466  -0.419  0.00  0.00     0.167 HD
ENDBRANCH   2   4
ENDBRANCH   1   2
BRANCH   1   6
HETATM    6  C   UNK N   1      20.553  18.682   3.334  0.00  0.00     0.106 C 
BRANCH   6   7
HETATM    7  S   UNK N   1      22.208  18.489   4.063  0.00  0.00    -0.180 SA
HETATM    8  H   UNK N   1      23.209  17.922   3.338  0.00  0.00     0.101 HD
ENDBRANCH   6   7
ENDBRANCH   1   6
BRANCH   1   9
HETATM    9  N   UNK N   1      20.055  18.047   0.949  0.00  0.00    -0.417 N 
HETATM   10  H   UNK N   1      20.466  17.114   0.993  0.00  0.00     0.150 HD
HETATM   11  H   UNK N   1      19.323  18.251   0.269  0.00  0.00     0.150 HD
ENDBRANCH   1   9
TORSDOF 5
ENDMDL
MODEL 5
REMARK VINA RESULT:      -3.2     12.089     12.500
REMARK  5 active torsions:
REMARK  status: ('A' for Active; 'I' for Inactive)
REMARK    1  A    between atoms: C_2  and  C_1 
REMARK    2  A    between atoms: O_4  and  C_1 
REMARK    3  A    between atoms: C_3  and  C_2 
REMARK    4  A    between atoms: C_2  and  N_6 
REMARK    5  A    between atoms: S_7  and  C_3 
ROOT
HETATM    1  C   UNK N   1      43.562  22.705   3.480  0.00  0.00     0.182 C 
ENDROOT
BRANCH   1   2
HETATM    2  C   UNK N   1      44.715  21.786   3.794  0.00  0.00     0.163 C 
HETATM    3  O   UNK N   1      44.621  20.580   3.635  0.00  0.00    -0.648 OA
BRANCH   2   4
HETATM    4  O   UNK N   1      45.869  22.303   4.259  0.00  0.00    -0.775 OA
HETATM    5  H   UNK N   1      46.159  23.144   3.965  0.00  0.00     0.167 HD
ENDBRANCH   2   4
ENDBRANCH   1   2
BRANCH   1   6
HETATM    6  C   UNK N   1      42.372  22.479   2.540  0.00  0.00     0.106 C 
BRANCH   6   7
HETATM    7  S   UNK N   1      42.785  22.070   0.816  0.00  0.00    -0.180 SA
HETATM    8  H   UNK N   1      44.079  22.107   0.400  0.00  0.00     0.101 HD
ENDBRANCH   6   7
ENDBRANCH   1   6
BRANCH   1   9
HETATM    9  N   UNK N   1      43.571  23.988   4.160  0.00  0.00    -0.417 N 
HETATM   10  H   UNK N   1      44.006  24.798   3.716  0.00  0.00     0.150 HD
HETATM   11  H   UNK N   1      43.144  24.081   5.081  0.00  0.00     0.150 HD
ENDBRANCH   1   9
TORSDOF 5
ENDMDL
MODEL 6
REMARK VINA RESULT:      -3.1     11.218     11.695
REMARK  5 active torsions:
REMARK  status: ('A' for Active; 'I' for Inactive)
REMARK    1  A    between atoms: C_2  and  C_1 
REMARK    2  A    between atoms: O_4  and  C_1 
REMARK    3  A    between atoms: C_3  and  C_2 
REMARK    4  A    between atoms: C_2  and  N_6 
REMARK    5  A    between atoms: S_7  and  C_3 
ROOT
HETATM    1  C   UNK N   1      43.190  22.267   3.417  0.00  0.00     0.182 C 
ENDROOT
BRANCH   1   2
HETATM    2  C   UNK N   1      44.228  22.382   4.505  0.00  0.00     0.163 C 
HETATM    3  O   UNK N   1      43.912  22.670   5.648  0.00  0.00    -0.648 OA
BRANCH   2   4
HETATM    4  O   UNK N   1      45.524  22.162   4.213  0.00  0.00    -0.775 OA
HETATM    5  H   UNK N   1      45.943  21.375   4.499  0.00  0.00     0.167 HD
ENDBRANCH   2   4
ENDBRANCH   1   2
BRANCH   1   6
HETATM    6  C   UNK N   1      42.479  21.017   2.885  0.00  0.00     0.106 C 
BRANCH   6   7
HETATM    7  S   UNK N   1      40.783  21.266   2.273  0.00  0.00    -0.180 SA
HETATM    8  H   UNK N   1      40.327  20.536   1.220  0.00  0.00     0.101 HD
ENDBRANCH   6   7
ENDBRANCH   1   6
BRANCH   1   9
HETATM    9  N   UNK N   1      42.804  23.512   2.776  0.00  0.00    -0.417 N 
HETATM   10  H   UNK N   1      43.336  24.364   2.956  0.00  0.00     0.150 HD
HETATM   11  H   UNK N   1      42.002  23.535   2.147  0.00  0.00     0.150 HD
ENDBRANCH   1   9
TORSDOF 5
ENDMDL
MODEL 7
REMARK VINA RESULT:      -3.1      3.825      4.083
REMARK  5 active torsions:
REMARK  status: ('A' for Active; 'I' for Inactive)
REMARK    1  A    between atoms: C_2  and  C_1 
REMARK    2  A    between atoms: O_4  and  C_1 
REMARK    3  A    between atoms: C_3  and  C_2 
REMARK    4  A    between atoms: C_2  and  N_6 
REMARK    5  A    between atoms: S_7  and  C_3 
ROOT
HETATM    1  C   UNK N   1      34.852  15.071  10.296  0.00  0.00     0.182 C 
ENDROOT
BRANCH   1   2
HETATM    2  C   UNK N   1      35.772  16.242  10.534  0.00  0.00     0.163 C 
HETATM    3  O   UNK N   1      35.388  17.388  10.372  0.00  0.00    -0.648 OA
BRANCH   2   4
HETATM    4  O   UNK N   1      37.040  16.020  10.932  0.00  0.00    -0.775 OA
HETATM    5  H   UNK N   1      37.313  15.156  11.172  0.00  0.00     0.167 HD
ENDBRANCH   2   4
ENDBRANCH   1   2
BRANCH   1   6
HETATM    6  C   UNK N   1      35.107  13.785   9.501  0.00  0.00     0.106 C 
BRANCH   6   7
HETATM    7  S   UNK N   1      36.071  12.499  10.354  0.00  0.00    -0.180 SA
HETATM    8  H   UNK N   1      35.530  11.830  11.407  0.00  0.00     0.101 HD
ENDBRANCH   6   7
ENDBRANCH   1   6
BRANCH   1   9
HETATM    9  N   UNK N   1      33.536  15.167  10.901  0.00  0.00    -0.417 N 
HETATM   10  H   UNK N   1      33.054  14.322  11.211  0.00  0.00     0.150 HD
HETATM   11  H   UNK N   1      33.093  16.078  11.017  0.00  0.00     0.150 HD
ENDBRANCH   1   9
TORSDOF 5
ENDMDL
MODEL 8
REMARK VINA RESULT:      -3.1      2.013      2.185
REMARK  5 active torsions:
REMARK  status: ('A' for Active; 'I' for Inactive)
REMARK    1  A    between atoms: C_2  and  C_1 
REMARK    2  A    between atoms: O_4  and  C_1 
REMARK    3  A    between atoms: C_3  and  C_2 
REMARK    4  A    between atoms: C_2  and  N_6 
REMARK    5  A    between atoms: S_7  and  C_3 
ROOT
HETATM    1  C   UNK N   1      33.638  17.763   7.777  0.00  0.00     0.182 C 
ENDROOT
BRANCH   1   2
HETATM    2  C   UNK N   1      34.769  18.251   8.648  0.00  0.00     0.163 C 
HETATM    3  O   UNK N   1      35.336  19.305   8.411  0.00  0.00    -0.648 OA
BRANCH   2   4
HETATM    4  O   UNK N   1      35.161  17.513   9.704  0.00  0.00    -0.775 OA
HETATM    5  H   UNK N   1      34.678  16.747   9.946  0.00  0.00     0.167 HD
ENDBRANCH   2   4
ENDBRANCH   1   2
BRANCH   1   6
HETATM    6  C   UNK N   1      32.143  17.657   8.101  0.00  0.00     0.106 C 
BRANCH   6   7
HETATM    7  S   UNK N   1      31.072  17.094   6.742  0.00  0.00    -0.180 SA
HETATM    8  H   UNK N   1      31.448  17.297   5.451  0.00  0.00     0.101 HD
ENDBRANCH   6   7
ENDBRANCH   1   6
BRANCH   1   9
HETATM    9  N   UNK N   1      34.009  17.330   6.442  0.00  0.00    -0.417 N 
HETATM   10  H   UNK N   1      33.615  16.471   6.056  0.00  0.00     0.150 HD
HETATM   11  H   UNK N   1      34.663  17.884   5.889  0.00  0.00     0.150 HD
ENDBRANCH   1   9
TORSDOF 5
ENDMDL
MODEL 9
REMARK VINA RESULT:      -3.0      5.594      5.830
REMARK  5 active torsions:
REMARK  status: ('A' for Active; 'I' for Inactive)
REMARK    1  A    between atoms: C_2  and  C_1 
REMARK    2  A    between atoms: O_4  and  C_1 
REMARK    3  A    between atoms: C_3  and  C_2 
REMARK    4  A    between atoms: C_2  and  N_6 
REMARK    5  A    between atoms: S_7  and  C_3 
ROOT
HETATM    1  C   UNK N   1      36.323  14.223  12.357  0.00  0.00     0.182 C 
ENDROOT
BRANCH   1   2
HETATM    2  C   UNK N   1      35.967  15.385  11.464  0.00  0.00     0.163 C 
HETATM    3  O   UNK N   1      34.803  15.682  11.251  0.00  0.00    -0.648 OA
BRANCH   2   4
HETATM    4  O   UNK N   1      36.949  16.107  10.891  0.00  0.00    -0.775 OA
HETATM    5  H   UNK N   1      36.955  16.240   9.964  0.00  0.00     0.167 HD
ENDBRANCH   2   4
ENDBRANCH   1   2
BRANCH   1   6
HETATM    6  C   UNK N   1      35.662  13.769  13.664  0.00  0.00     0.106 C 
BRANCH   6   7
HETATM    7  S   UNK N   1      36.698  13.867  15.157  0.00  0.00    -0.180 SA
HETATM    8  H   UNK N   1      36.295  13.261  16.306  0.00  0.00     0.101 HD
ENDBRANCH   6   7
ENDBRANCH   1   6
BRANCH   1   9
HETATM    9  N   UNK N   1      37.449  13.414  11.926  0.00  0.00    -0.417 N 
HETATM   10  H   UNK N   1      37.310  12.431  11.690  0.00  0.00     0.150 HD
HETATM   11  H   UNK N   1      38.379  13.828  11.860  0.00  0.00     0.150 HD
ENDBRANCH   1   9
TORSDOF 5
ENDMDL
