REMARK  15 active torsions:
REMARK  status: ('A' for Active; 'I' for Inactive)
REMARK    1  A    between atoms: C_9  and  C_5 
REMARK    2  A    between atoms: O_30  and  C_5 
REMARK    3  A    between atoms: C_7  and  O_19 
REMARK    4  A    between atoms: C_8  and  O_20 
REMARK    5  A    between atoms: C_10  and  N_18 
REMARK    6  A    between atoms: C_11  and  O_21 
REMARK    7  A    between atoms: C_12  and  O_22 
REMARK    8  A    between atoms: O_23  and  C_13 
REMARK    9  A    between atoms: C_14  and  O_32 
REMARK   10  A    between atoms: P_34  and  O_25 
REMARK   11  A    between atoms: P_35  and  O_27 
REMARK   12  A    between atoms: P_34  and  O_30 
REMARK   13  A    between atoms: P_35  and  O_32 
REMARK   14  A    between atoms: P_34  and  O_33 
REMARK   15  A    between atoms: P_35  and  O_33 
ROOT
HETATM    1  O   UNK N   1      -0.958   7.914  -1.337  0.00  0.00    -0.631 OA
HETATM    2  P   UNK N   1      -0.291   7.414  -0.027  0.00  0.00     0.401 P 
ENDROOT
BRANCH   2   3
HETATM    3  O   UNK N   1      -0.201   5.685  -0.149  0.00  0.00    -0.307 OA
HETATM    4  H   UNK N   1      -1.013   5.158  -0.218  0.00  0.00     0.222 HD
ENDBRANCH   2   3
BRANCH   2   5
HETATM    5  O   UNK N   1       1.283   8.132   0.060  0.00  0.00    -0.294 OA
BRANCH   5   6
HETATM    6  C   UNK N   1       1.889   7.529   1.168  0.00  0.00     0.215 C 
BRANCH   6   7
HETATM    7  C   UNK N   1       3.140   6.798   0.714  0.00  0.00     0.177 C 
HETATM    8  C   UNK N   1       4.262   7.747   0.295  0.00  0.00     0.153 C 
HETATM    9  C   UNK N   1       4.918   7.018  -0.837  0.00  0.00     0.088 C 
HETATM   10  C   UNK N   1       4.059   5.776  -1.049  0.00  0.00     0.235 C 
HETATM   11  O   UNK N   1       2.834   5.986  -0.386  0.00  0.00    -0.356 OA
BRANCH   8  12
HETATM   12  O   UNK N   1       3.784   8.960  -0.209  0.00  0.00    -0.393 OA
HETATM   13  H   UNK N   1       4.347   9.668  -0.559  0.00  0.00     0.210 HD
ENDBRANCH   8  12
BRANCH  10  14
HETATM   14  N   UNK N   1       4.673   4.507  -0.585  0.00  0.00    -0.282 N 
HETATM   15  C   UNK N   1       3.915   3.380  -0.721  0.00  0.00     0.109 A 
HETATM   16  C   UNK N   1       4.396   2.136  -0.325  0.00  0.00     0.005 A 
HETATM   17  C   UNK N   1       3.540   0.927  -0.479  0.00  0.00     0.054 C 
HETATM   18  C   UNK N   1       5.679   2.049   0.210  0.00  0.00     0.151 A 
HETATM   19  N   UNK N   1       6.427   3.169   0.341  0.00  0.00    -0.288 N 
HETATM   20  C   UNK N   1       5.952   4.394  -0.042  0.00  0.00     0.330 A 
ATOM     21  HN  UNK N   1       7.366   3.098   0.734  1.00  0.00     0.172 HD
HETATM   22  O   UNK N   1       6.673   5.365   0.095  0.00  0.00    -0.246 OA
BRANCH  18  23
HETATM   23  O   UNK N   1       6.182   0.865   0.597  0.00  0.00    -0.346 OA
HETATM   24  H   UNK N   1       5.643   0.148   0.867  0.00  0.00     0.219 HD
ENDBRANCH  18  23
ENDBRANCH  10  14
ENDBRANCH   6   7
ENDBRANCH   5   6
ENDBRANCH   2   5
BRANCH   2  25
HETATM   25  O   UNK N   1      -1.267   7.920   1.324  0.00  0.00    -0.195 OA
BRANCH  25  26
HETATM   26  P   UNK N   1      -1.064   9.650   1.458  0.00  0.00     0.404 P 
HETATM   27  O   UNK N   1       0.334   9.911   2.081  0.00  0.00    -0.631 OA
BRANCH  26  28
HETATM   28  O   UNK N   1      -2.207  10.298   2.593  0.00  0.00    -0.307 OA
HETATM   29  H   UNK N   1      -2.213  11.032   3.226  0.00  0.00     0.222 HD
ENDBRANCH  26  28
BRANCH  26  30
HETATM   30  O   UNK N   1      -1.091  10.439  -0.117  0.00  0.00    -0.263 OA
BRANCH  30  31
HETATM   31  C   UNK N   1      -2.335  11.058  -0.372  0.00  0.00     0.302 C 
HETATM   32  C   UNK N   1      -3.498  10.073  -0.722  0.00  0.00     0.205 C 
HETATM   33  C   UNK N   1      -4.825  10.651  -0.212  0.00  0.00     0.182 C 
HETATM   34  C   UNK N   1      -4.892  12.148  -0.500  0.00  0.00     0.173 C 
HETATM   35  C   UNK N   1      -3.693  12.858   0.169  0.00  0.00     0.205 C 
HETATM   36  O   UNK N   1      -2.696  11.965   0.655  0.00  0.00    -0.355 OA
BRANCH  32  37
HETATM   37  O   UNK N   1      -3.349   8.808  -0.157  0.00  0.00    -0.388 OA
HETATM   38  H   UNK N   1      -4.060   8.278   0.236  0.00  0.00     0.210 HD
ENDBRANCH  32  37
BRANCH  33  39
HETATM   39  O   UNK N   1      -5.903   9.970  -0.783  0.00  0.00    -0.390 OA
HETATM   40  H   UNK N   1      -6.686  10.381  -1.180  0.00  0.00     0.210 HD
ENDBRANCH  33  39
BRANCH  34  41
HETATM   41  O   UNK N   1      -6.080  12.682   0.001  0.00  0.00    -0.391 OA
HETATM   42  H   UNK N   1      -6.171  13.583   0.349  0.00  0.00     0.210 HD
ENDBRANCH  34  41
ENDBRANCH  30  31
ENDBRANCH  26  30
ENDBRANCH  25  26
ENDBRANCH   2  25
TORSDOF 15
