MODEL 1
REMARK VINA RESULT:      -9.3      0.000      0.000
REMARK  31 active torsions:
REMARK  status: ('A' for Active; 'I' for Inactive)
REMARK    1  A    between atoms: C_27  and  C_11 
REMARK    2  A    between atoms: O_62  and  C_11 
REMARK    3  A    between atoms: C_36  and  C_12 
REMARK    4  A    between atoms: C_37  and  C_13 
REMARK    5  A    between atoms: C_38  and  C_14 
REMARK    6  A    between atoms: C_39  and  C_15 
REMARK    7  A    between atoms: C_40  and  C_16 
REMARK    8  A    between atoms: O_42  and  C_17 
REMARK    9  A    between atoms: O_43  and  C_18 
REMARK   10  A    between atoms: O_44  and  C_19 
REMARK   11  A    between atoms: O_45  and  C_20 
REMARK   12  A    between atoms: O_46  and  C_21 
REMARK   13  A    between atoms: O_47  and  C_22 
REMARK   14  A    between atoms: O_48  and  C_23 
REMARK   15  A    between atoms: O_49  and  C_24 
REMARK   16  A    between atoms: O_50  and  C_25 
REMARK   17  A    between atoms: O_51  and  C_26 
REMARK   18  A    between atoms: O_52  and  C_28 
REMARK   19  A    between atoms: O_53  and  C_29 
REMARK   20  A    between atoms: O_54  and  C_30 
REMARK   21  A    between atoms: O_55  and  C_31 
REMARK   22  A    between atoms: O_56  and  C_32 
REMARK   23  A    between atoms: C_33  and  O_64 
REMARK   24  A    between atoms: C_34  and  O_65 
REMARK   25  A    between atoms: C_35  and  O_66 
REMARK   26  A    between atoms: O_62  and  C_36 
REMARK   27  A    between atoms: O_64  and  C_37 
REMARK   28  A    between atoms: O_65  and  C_38 
REMARK   29  A    between atoms: O_66  and  C_39 
REMARK   30  A    between atoms: O_67  and  C_40 
REMARK   31  A    between atoms: C_41  and  O_67 
ROOT
HETATM    1  C   UNK N   1      25.980  13.877   5.267  0.00  0.00     0.181 C 
HETATM    2  C   UNK N   1      25.463  14.727   4.070  0.00  0.00     0.195 C 
HETATM    3  C   UNK N   1      24.103  14.168   3.560  0.00  0.00     0.198 C 
HETATM    4  C   UNK N   1      23.159  14.064   4.794  0.00  0.00     0.220 C 
HETATM    5  C   UNK N   1      23.834  13.124   5.804  0.00  0.00     0.302 C 
HETATM    6  O   UNK N   1      25.004  13.752   6.283  0.00  0.00    -0.348 OA
ENDROOT
BRANCH   1   7
HETATM    7  C   UNK N   1      27.152  14.567   5.964  0.00  0.00     0.213 C 
BRANCH   7   8
HETATM    8  O   UNK N   1      28.090  15.103   5.118  0.00  0.00    -0.315 OA
BRANCH   8   9
HETATM    9  C   UNK N   1      29.290  15.555   5.578  0.00  0.00     0.293 C 
HETATM   10  O   UNK N   1      30.304  15.213   4.990  0.00  0.00    -0.259 OA
BRANCH   9  11
HETATM   11  C   UNK N   1      29.413  16.429   6.787  0.00  0.00     0.045 A 
HETATM   12  C   UNK N   1      30.674  16.644   7.366  0.00  0.00     0.057 A 
HETATM   13  C   UNK N   1      30.803  17.415   8.527  0.00  0.00     0.102 A 
HETATM   14  C   UNK N   1      29.667  17.966   9.131  0.00  0.00     0.132 A 
HETATM   15  C   UNK N   1      28.408  17.752   8.568  0.00  0.00     0.102 A 
HETATM   16  C   UNK N   1      28.284  16.992   7.402  0.00  0.00     0.057 A 
BRANCH  13  17
HETATM   17  O   UNK N   1      32.019  17.612   9.063  0.00  0.00    -0.358 OA
HETATM   18  H   UNK N   1      32.102  18.033   9.897  0.00  0.00     0.217 HD
ENDBRANCH  13  17
BRANCH  14  19
HETATM   19  O   UNK N   1      29.786  18.696  10.257  0.00  0.00    -0.356 OA
HETATM   20  H   UNK N   1      29.440  19.565  10.300  0.00  0.00     0.218 HD
ENDBRANCH  14  19
BRANCH  15  21
HETATM   21  O   UNK N   1      27.313  18.263   9.153  0.00  0.00    -0.358 OA
HETATM   22  H   UNK N   1      26.462  17.954   8.911  0.00  0.00     0.217 HD
ENDBRANCH  15  21
ENDBRANCH   9  11
ENDBRANCH   8   9
ENDBRANCH   7   8
ENDBRANCH   1   7
BRANCH   2  23
HETATM   23  O   UNK N   1      25.291  16.043   4.485  0.00  0.00    -0.307 OA
BRANCH  23  24
HETATM   24  C   UNK N   1      25.739  17.125   3.791  0.00  0.00     0.294 C 
HETATM   25  O   UNK N   1      26.875  17.104   3.341  0.00  0.00    -0.259 OA
BRANCH  24  26
HETATM   26  C   UNK N   1      24.868  18.298   3.518  0.00  0.00     0.045 A 
HETATM   27  C   UNK N   1      23.494  18.230   3.785  0.00  0.00     0.057 A 
HETATM   28  C   UNK N   1      22.671  19.339   3.566  0.00  0.00     0.102 A 
HETATM   29  C   UNK N   1      23.222  20.537   3.090  0.00  0.00     0.132 A 
HETATM   30  C   UNK N   1      24.596  20.616   2.831  0.00  0.00     0.102 A 
HETATM   31  C   UNK N   1      25.411  19.502   3.045  0.00  0.00     0.057 A 
BRANCH  28  32
HETATM   32  O   UNK N   1      21.353  19.252   3.818  0.00  0.00    -0.358 OA
HETATM   33  H   UNK N   1      20.827  20.026   3.840  0.00  0.00     0.217 HD
ENDBRANCH  28  32
BRANCH  29  34
HETATM   34  O   UNK N   1      22.434  21.608   2.885  0.00  0.00    -0.356 OA
HETATM   35  H   UNK N   1      21.590  21.595   2.477  0.00  0.00     0.218 HD
ENDBRANCH  29  34
BRANCH  30  36
HETATM   36  O   UNK N   1      25.138  21.761   2.380  0.00  0.00    -0.358 OA
HETATM   37  H   UNK N   1      24.696  22.570   2.215  0.00  0.00     0.217 HD
ENDBRANCH  30  36
ENDBRANCH  24  26
ENDBRANCH  23  24
ENDBRANCH   2  23
BRANCH   3  38
HETATM   38  O   UNK N   1      23.599  15.012   2.574  0.00  0.00    -0.306 OA
BRANCH  38  39
HETATM   39  C   UNK N   1      23.183  14.638   1.328  0.00  0.00     0.294 C 
HETATM   40  O   UNK N   1      23.985  14.294   0.475  0.00  0.00    -0.259 OA
BRANCH  39  41
HETATM   41  C   UNK N   1      21.742  14.606   1.029  0.00  0.00     0.045 A 
HETATM   42  C   UNK N   1      21.101  13.386   0.762  0.00  0.00     0.057 A 
HETATM   43  C   UNK N   1      19.725  13.351   0.521  0.00  0.00     0.102 A 
HETATM   44  C   UNK N   1      18.986  14.542   0.512  0.00  0.00     0.132 A 
HETATM   45  C   UNK N   1      19.627  15.764   0.765  0.00  0.00     0.102 A 
HETATM   46  C   UNK N   1      20.997  15.788   1.041  0.00  0.00     0.057 A 
BRANCH  43  47
HETATM   47  O   UNK N   1      19.116  12.173   0.300  0.00  0.00    -0.358 OA
HETATM   48  H   UNK N   1      18.435  11.882   0.875  0.00  0.00     0.217 HD
ENDBRANCH  43  47
BRANCH  44  49
HETATM   49  O   UNK N   1      17.664  14.515   0.264  0.00  0.00    -0.356 OA
HETATM   50  H   UNK N   1      17.318  14.578  -0.604  0.00  0.00     0.218 HD
ENDBRANCH  44  49
BRANCH  45  51
HETATM   51  O   UNK N   1      18.934  16.913   0.745  0.00  0.00    -0.358 OA
HETATM   52  H   UNK N   1      19.262  17.698   0.352  0.00  0.00     0.217 HD
ENDBRANCH  45  51
ENDBRANCH  39  41
ENDBRANCH  38  39
ENDBRANCH   3  38
BRANCH   5  53
HETATM   53  O   UNK N   1      22.989  12.858   6.865  0.00  0.00    -0.283 OA
BRANCH  53  54
HETATM   54  C   UNK N   1      23.176  11.785   7.672  0.00  0.00     0.295 C 
HETATM   55  O   UNK N   1      23.245  10.659   7.198  0.00  0.00    -0.259 OA
BRANCH  54  56
HETATM   56  C   UNK N   1      23.115  11.966   9.129  0.00  0.00     0.045 A 
HETATM   57  C   UNK N   1      24.289  12.038   9.889  0.00  0.00     0.057 A 
HETATM   58  C   UNK N   1      24.223  12.077  11.284  0.00  0.00     0.102 A 
HETATM   59  C   UNK N   1      22.977  12.054  11.927  0.00  0.00     0.132 A 
HETATM   60  C   UNK N   1      21.801  11.996  11.167  0.00  0.00     0.102 A 
HETATM   61  C   UNK N   1      21.873  11.942   9.776  0.00  0.00     0.057 A 
BRANCH  58  62
HETATM   62  O   UNK N   1      25.357  12.121  12.003  0.00  0.00    -0.358 OA
HETATM   63  H   UNK N   1      26.051  11.504  11.879  0.00  0.00     0.217 HD
ENDBRANCH  58  62
BRANCH  59  64
HETATM   64  O   UNK N   1      22.910  12.082  13.270  0.00  0.00    -0.356 OA
HETATM   65  H   UNK N   1      23.401  12.699  13.776  0.00  0.00     0.218 HD
ENDBRANCH  59  64
BRANCH  60  66
HETATM   66  O   UNK N   1      20.600  11.976  11.770  0.00  0.00    -0.358 OA
HETATM   67  H   UNK N   1      19.854  11.633  11.317  0.00  0.00     0.217 HD
ENDBRANCH  60  66
ENDBRANCH  54  56
ENDBRANCH  53  54
ENDBRANCH   5  53
BRANCH   4  68
HETATM   68  O   UNK N   1      21.870  13.733   4.412  0.00  0.00    -0.304 OA
BRANCH  68  69
HETATM   69  C   UNK N   1      20.649  14.272   4.662  0.00  0.00     0.294 C 
HETATM   70  O   UNK N   1      19.692  14.053   3.935  0.00  0.00    -0.259 OA
BRANCH  69  71
HETATM   71  C   UNK N   1      20.530  15.184   5.813  0.00  0.00     0.045 A 
HETATM   72  C   UNK N   1      20.847  16.545   5.713  0.00  0.00     0.057 A 
HETATM   73  C   UNK N   1      20.728  17.377   6.833  0.00  0.00     0.102 A 
HETATM   74  C   UNK N   1      20.293  16.849   8.059  0.00  0.00     0.132 A 
HETATM   75  C   UNK N   1      19.974  15.490   8.158  0.00  0.00     0.102 A 
HETATM   76  C   UNK N   1      20.092  14.668   7.040  0.00  0.00     0.057 A 
BRANCH  73  77
HETATM   77  O   UNK N   1      21.034  18.682   6.729  0.00  0.00    -0.358 OA
HETATM   78  H   UNK N   1      20.643  19.357   7.247  0.00  0.00     0.217 HD
ENDBRANCH  73  77
BRANCH  74  79
HETATM   79  O   UNK N   1      20.183  17.646   9.138  0.00  0.00    -0.356 OA
HETATM   80  H   UNK N   1      20.266  18.574   9.047  0.00  0.00     0.218 HD
ENDBRANCH  74  79
BRANCH  75  81
HETATM   81  O   UNK N   1      19.557  14.969   9.325  0.00  0.00    -0.358 OA
HETATM   82  H   UNK N   1      19.311  15.459  10.086  0.00  0.00     0.217 HD
ENDBRANCH  75  81
ENDBRANCH  69  71
ENDBRANCH  68  69
ENDBRANCH   4  68
TORSDOF 31
ENDMDL
MODEL 2
REMARK VINA RESULT:      -9.2      1.992      8.328
REMARK  31 active torsions:
REMARK  status: ('A' for Active; 'I' for Inactive)
REMARK    1  A    between atoms: C_27  and  C_11 
REMARK    2  A    between atoms: O_62  and  C_11 
REMARK    3  A    between atoms: C_36  and  C_12 
REMARK    4  A    between atoms: C_37  and  C_13 
REMARK    5  A    between atoms: C_38  and  C_14 
REMARK    6  A    between atoms: C_39  and  C_15 
REMARK    7  A    between atoms: C_40  and  C_16 
REMARK    8  A    between atoms: O_42  and  C_17 
REMARK    9  A    between atoms: O_43  and  C_18 
REMARK   10  A    between atoms: O_44  and  C_19 
REMARK   11  A    between atoms: O_45  and  C_20 
REMARK   12  A    between atoms: O_46  and  C_21 
REMARK   13  A    between atoms: O_47  and  C_22 
REMARK   14  A    between atoms: O_48  and  C_23 
REMARK   15  A    between atoms: O_49  and  C_24 
REMARK   16  A    between atoms: O_50  and  C_25 
REMARK   17  A    between atoms: O_51  and  C_26 
REMARK   18  A    between atoms: O_52  and  C_28 
REMARK   19  A    between atoms: O_53  and  C_29 
REMARK   20  A    between atoms: O_54  and  C_30 
REMARK   21  A    between atoms: O_55  and  C_31 
REMARK   22  A    between atoms: O_56  and  C_32 
REMARK   23  A    between atoms: C_33  and  O_64 
REMARK   24  A    between atoms: C_34  and  O_65 
REMARK   25  A    between atoms: C_35  and  O_66 
REMARK   26  A    between atoms: O_62  and  C_36 
REMARK   27  A    between atoms: O_64  and  C_37 
REMARK   28  A    between atoms: O_65  and  C_38 
REMARK   29  A    between atoms: O_66  and  C_39 
REMARK   30  A    between atoms: O_67  and  C_40 
REMARK   31  A    between atoms: C_41  and  O_67 
ROOT
HETATM    1  C   UNK N   1      23.809  16.839   4.482  0.00  0.00     0.181 C 
HETATM    2  C   UNK N   1      23.439  15.476   3.828  0.00  0.00     0.195 C 
HETATM    3  C   UNK N   1      24.379  15.185   2.622  0.00  0.00     0.198 C 
HETATM    4  C   UNK N   1      25.842  15.333   3.134  0.00  0.00     0.220 C 
HETATM    5  C   UNK N   1      25.996  16.768   3.660  0.00  0.00     0.302 C 
HETATM    6  O   UNK N   1      25.184  16.911   4.806  0.00  0.00    -0.348 OA
ENDROOT
BRANCH   1   7
HETATM    7  C   UNK N   1      23.103  17.012   5.827  0.00  0.00     0.213 C 
BRANCH   7   8
HETATM    8  O   UNK N   1      21.999  17.827   5.797  0.00  0.00    -0.315 OA
BRANCH   8   9
HETATM    9  C   UNK N   1      20.995  17.634   4.897  0.00  0.00     0.293 C 
HETATM   10  O   UNK N   1      20.170  16.763   5.126  0.00  0.00    -0.259 OA
BRANCH   9  11
HETATM   11  C   UNK N   1      20.880  18.427   3.633  0.00  0.00     0.045 A 
HETATM   12  C   UNK N   1      20.525  17.784   2.436  0.00  0.00     0.057 A 
HETATM   13  C   UNK N   1      20.465  18.498   1.235  0.00  0.00     0.102 A 
HETATM   14  C   UNK N   1      20.773  19.863   1.215  0.00  0.00     0.132 A 
HETATM   15  C   UNK N   1      21.134  20.511   2.398  0.00  0.00     0.102 A 
HETATM   16  C   UNK N   1      21.182  19.797   3.598  0.00  0.00     0.057 A 
BRANCH  13  17
HETATM   17  O   UNK N   1      20.121  17.865   0.101  0.00  0.00    -0.358 OA
HETATM   18  H   UNK N   1      20.398  16.982  -0.048  0.00  0.00     0.217 HD
ENDBRANCH  13  17
BRANCH  14  19
HETATM   19  O   UNK N   1      20.730  20.551   0.058  0.00  0.00    -0.356 OA
HETATM   20  H   UNK N   1      21.177  20.233  -0.702  0.00  0.00     0.218 HD
ENDBRANCH  14  19
BRANCH  15  21
HETATM   21  O   UNK N   1      21.449  21.816   2.383  0.00  0.00    -0.358 OA
HETATM   22  H   UNK N   1      21.997  22.177   3.052  0.00  0.00     0.217 HD
ENDBRANCH  15  21
ENDBRANCH   9  11
ENDBRANCH   8   9
ENDBRANCH   7   8
ENDBRANCH   1   7
BRANCH   2  23
HETATM   23  O   UNK N   1      23.579  14.464   4.773  0.00  0.00    -0.307 OA
BRANCH  23  24
HETATM   24  C   UNK N   1      22.538  13.903   5.447  0.00  0.00     0.294 C 
HETATM   25  O   UNK N   1      21.531  13.600   4.824  0.00  0.00    -0.259 OA
BRANCH  24  26
HETATM   26  C   UNK N   1      22.614  13.602   6.900  0.00  0.00     0.045 A 
HETATM   27  C   UNK N   1      23.859  13.567   7.545  0.00  0.00     0.057 A 
HETATM   28  C   UNK N   1      23.940  13.319   8.918  0.00  0.00     0.102 A 
HETATM   29  C   UNK N   1      22.771  13.118   9.666  0.00  0.00     0.132 A 
HETATM   30  C   UNK N   1      21.524  13.163   9.030  0.00  0.00     0.102 A 
HETATM   31  C   UNK N   1      21.450  13.403   7.656  0.00  0.00     0.057 A 
BRANCH  28  32
HETATM   32  O   UNK N   1      25.143  13.278   9.518  0.00  0.00    -0.358 OA
HETATM   33  H   UNK N   1      25.885  13.682   9.113  0.00  0.00     0.217 HD
ENDBRANCH  28  32
BRANCH  29  34
HETATM   34  O   UNK N   1      22.846  12.887  10.989  0.00  0.00    -0.356 OA
HETATM   35  H   UNK N   1      22.963  13.539  11.651  0.00  0.00     0.218 HD
ENDBRANCH  29  34
BRANCH  30  36
HETATM   36  O   UNK N   1      20.395  12.978   9.735  0.00  0.00    -0.358 OA
HETATM   37  H   UNK N   1      19.555  13.361   9.571  0.00  0.00     0.217 HD
ENDBRANCH  30  36
ENDBRANCH  24  26
ENDBRANCH  23  24
ENDBRANCH   2  23
BRANCH   3  38
HETATM   38  O   UNK N   1      24.115  13.910   2.129  0.00  0.00    -0.306 OA
BRANCH  38  39
HETATM   39  C   UNK N   1      23.371  13.610   1.023  0.00  0.00     0.294 C 
HETATM   40  O   UNK N   1      23.897  13.466  -0.068  0.00  0.00    -0.259 OA
BRANCH  39  41
HETATM   41  C   UNK N   1      21.919  13.413   1.165  0.00  0.00     0.045 A 
HETATM   42  C   UNK N   1      21.413  12.186   1.621  0.00  0.00     0.057 A 
HETATM   43  C   UNK N   1      20.036  12.013   1.795  0.00  0.00     0.102 A 
HETATM   44  C   UNK N   1      19.155  13.057   1.483  0.00  0.00     0.132 A 
HETATM   45  C   UNK N   1      19.659  14.279   1.013  0.00  0.00     0.102 A 
HETATM   46  C   UNK N   1      21.037  14.458   0.875  0.00  0.00     0.057 A 
BRANCH  43  47
HETATM   47  O   UNK N   1      19.566  10.845   2.266  0.00  0.00    -0.358 OA
HETATM   48  H   UNK N   1      19.344  10.759   3.173  0.00  0.00     0.217 HD
ENDBRANCH  43  47
BRANCH  44  49
HETATM   49  O   UNK N   1      17.829  12.889   1.633  0.00  0.00    -0.356 OA
HETATM   50  H   UNK N   1      17.406  12.971   2.465  0.00  0.00     0.218 HD
ENDBRANCH  44  49
BRANCH  45  51
HETATM   51  O   UNK N   1      18.824  15.281   0.695  0.00  0.00    -0.358 OA
HETATM   52  H   UNK N   1      18.971  15.854  -0.032  0.00  0.00     0.217 HD
ENDBRANCH  45  51
ENDBRANCH  39  41
ENDBRANCH  38  39
ENDBRANCH   3  38
BRANCH   5  53
HETATM   53  O   UNK N   1      27.311  17.029   3.994  0.00  0.00    -0.283 OA
BRANCH  53  54
HETATM   54  C   UNK N   1      27.664  18.146   4.677  0.00  0.00     0.295 C 
HETATM   55  O   UNK N   1      27.550  19.249   4.160  0.00  0.00    -0.259 OA
BRANCH  54  56
HETATM   56  C   UNK N   1      28.350  18.007   5.969  0.00  0.00     0.045 A 
HETATM   57  C   UNK N   1      29.677  17.561   6.027  0.00  0.00     0.057 A 
HETATM   58  C   UNK N   1      30.279  17.306   7.262  0.00  0.00     0.102 A 
HETATM   59  C   UNK N   1      29.558  17.506   8.448  0.00  0.00     0.132 A 
HETATM   60  C   UNK N   1      28.235  17.966   8.391  0.00  0.00     0.102 A 
HETATM   61  C   UNK N   1      27.635  18.205   7.156  0.00  0.00     0.057 A 
BRANCH  58  62
HETATM   62  O   UNK N   1      31.544  16.855   7.304  0.00  0.00    -0.358 OA
HETATM   63  H   UNK N   1      32.237  17.266   6.826  0.00  0.00     0.217 HD
ENDBRANCH  58  62
BRANCH  59  64
HETATM   64  O   UNK N   1      30.132  17.252   9.638  0.00  0.00    -0.356 OA
HETATM   65  H   UNK N   1      30.499  17.935  10.165  0.00  0.00     0.218 HD
ENDBRANCH  59  64
BRANCH  60  66
HETATM   66  O   UNK N   1      27.534  18.164   9.520  0.00  0.00    -0.358 OA
HETATM   67  H   UNK N   1      27.942  18.569  10.260  0.00  0.00     0.217 HD
ENDBRANCH  60  66
ENDBRANCH  54  56
ENDBRANCH  53  54
ENDBRANCH   5  53
BRANCH   4  68
HETATM   68  O   UNK N   1      26.753  14.930   2.173  0.00  0.00    -0.304 OA
BRANCH  68  69
HETATM   69  C   UNK N   1      27.805  14.071   2.178  0.00  0.00     0.294 C 
HETATM   70  O   UNK N   1      27.719  12.952   1.696  0.00  0.00    -0.259 OA
BRANCH  69  71
HETATM   71  C   UNK N   1      29.043  14.515   2.840  0.00  0.00     0.045 A 
HETATM   72  C   UNK N   1      29.754  15.639   2.400  0.00  0.00     0.057 A 
HETATM   73  C   UNK N   1      30.933  16.024   3.053  0.00  0.00     0.102 A 
HETATM   74  C   UNK N   1      31.404  15.283   4.148  0.00  0.00     0.132 A 
HETATM   75  C   UNK N   1      30.692  14.161   4.589  0.00  0.00     0.102 A 
HETATM   76  C   UNK N   1      29.520  13.786   3.938  0.00  0.00     0.057 A 
BRANCH  73  77
HETATM   77  O   UNK N   1      31.609  17.103   2.625  0.00  0.00    -0.358 OA
HETATM   78  H   UNK N   1      31.514  17.962   2.987  0.00  0.00     0.217 HD
ENDBRANCH  73  77
BRANCH  74  79
HETATM   79  O   UNK N   1      32.538  15.647   4.773  0.00  0.00    -0.356 OA
HETATM   80  H   UNK N   1      33.269  15.062   4.800  0.00  0.00     0.218 HD
ENDBRANCH  74  79
BRANCH  75  81
HETATM   81  O   UNK N   1      31.131  13.441   5.636  0.00  0.00    -0.358 OA
HETATM   82  H   UNK N   1      31.867  13.654   6.177  0.00  0.00     0.217 HD
ENDBRANCH  75  81
ENDBRANCH  69  71
ENDBRANCH  68  69
ENDBRANCH   4  68
TORSDOF 31
ENDMDL
MODEL 3
REMARK VINA RESULT:      -9.2      2.382      7.002
REMARK  31 active torsions:
REMARK  status: ('A' for Active; 'I' for Inactive)
REMARK    1  A    between atoms: C_27  and  C_11 
REMARK    2  A    between atoms: O_62  and  C_11 
REMARK    3  A    between atoms: C_36  and  C_12 
REMARK    4  A    between atoms: C_37  and  C_13 
REMARK    5  A    between atoms: C_38  and  C_14 
REMARK    6  A    between atoms: C_39  and  C_15 
REMARK    7  A    between atoms: C_40  and  C_16 
REMARK    8  A    between atoms: O_42  and  C_17 
REMARK    9  A    between atoms: O_43  and  C_18 
REMARK   10  A    between atoms: O_44  and  C_19 
REMARK   11  A    between atoms: O_45  and  C_20 
REMARK   12  A    between atoms: O_46  and  C_21 
REMARK   13  A    between atoms: O_47  and  C_22 
REMARK   14  A    between atoms: O_48  and  C_23 
REMARK   15  A    between atoms: O_49  and  C_24 
REMARK   16  A    between atoms: O_50  and  C_25 
REMARK   17  A    between atoms: O_51  and  C_26 
REMARK   18  A    between atoms: O_52  and  C_28 
REMARK   19  A    between atoms: O_53  and  C_29 
REMARK   20  A    between atoms: O_54  and  C_30 
REMARK   21  A    between atoms: O_55  and  C_31 
REMARK   22  A    between atoms: O_56  and  C_32 
REMARK   23  A    between atoms: C_33  and  O_64 
REMARK   24  A    between atoms: C_34  and  O_65 
REMARK   25  A    between atoms: C_35  and  O_66 
REMARK   26  A    between atoms: O_62  and  C_36 
REMARK   27  A    between atoms: O_64  and  C_37 
REMARK   28  A    between atoms: O_65  and  C_38 
REMARK   29  A    between atoms: O_66  and  C_39 
REMARK   30  A    between atoms: O_67  and  C_40 
REMARK   31  A    between atoms: C_41  and  O_67 
ROOT
HETATM    1  C   UNK N   1      23.890  13.296   3.362  0.00  0.00     0.181 C 
HETATM    2  C   UNK N   1      23.881  14.812   3.714  0.00  0.00     0.195 C 
HETATM    3  C   UNK N   1      23.133  15.050   5.058  0.00  0.00     0.198 C 
HETATM    4  C   UNK N   1      23.773  14.099   6.112  0.00  0.00     0.220 C 
HETATM    5  C   UNK N   1      23.598  12.664   5.594  0.00  0.00     0.302 C 
HETATM    6  O   UNK N   1      24.384  12.512   4.431  0.00  0.00    -0.348 OA
ENDROOT
BRANCH   1   7
HETATM    7  C   UNK N   1      24.853  13.005   2.213  0.00  0.00     0.213 C 
BRANCH   7   8
HETATM    8  O   UNK N   1      24.417  13.415   0.978  0.00  0.00    -0.315 OA
BRANCH   8   9
HETATM    9  C   UNK N   1      23.428  12.754   0.316  0.00  0.00     0.293 C 
HETATM   10  O   UNK N   1      23.737  12.024  -0.612  0.00  0.00    -0.259 OA
BRANCH   9  11
HETATM   11  C   UNK N   1      21.980  12.910   0.664  0.00  0.00     0.045 A 
HETATM   12  C   UNK N   1      21.413  14.193   0.727  0.00  0.00     0.057 A 
HETATM   13  C   UNK N   1      20.075  14.363   1.103  0.00  0.00     0.102 A 
HETATM   14  C   UNK N   1      19.294  13.249   1.434  0.00  0.00     0.132 A 
HETATM   15  C   UNK N   1      19.851  11.970   1.381  0.00  0.00     0.102 A 
HETATM   16  C   UNK N   1      21.183  11.803   0.995  0.00  0.00     0.057 A 
BRANCH  13  17
HETATM   17  O   UNK N   1      19.550  15.598   1.154  0.00  0.00    -0.358 OA
HETATM   18  H   UNK N   1      19.144  15.968   0.395  0.00  0.00     0.217 HD
ENDBRANCH  13  17
BRANCH  14  19
HETATM   19  O   UNK N   1      18.011  13.410   1.810  0.00  0.00    -0.356 OA
HETATM   20  H   UNK N   1      17.324  13.399   1.174  0.00  0.00     0.218 HD
ENDBRANCH  14  19
BRANCH  15  21
HETATM   21  O   UNK N   1      19.113  10.900   1.716  0.00  0.00    -0.358 OA
HETATM   22  H   UNK N   1      18.441  10.592   1.140  0.00  0.00     0.217 HD
ENDBRANCH  15  21
ENDBRANCH   9  11
ENDBRANCH   8   9
ENDBRANCH   7   8
ENDBRANCH   1   7
BRANCH   2  23
HETATM   23  O   UNK N   1      25.193  15.261   3.833  0.00  0.00    -0.307 OA
BRANCH  23  24
HETATM   24  C   UNK N   1      25.721  16.272   3.091  0.00  0.00     0.294 C 
HETATM   25  O   UNK N   1      25.944  16.076   1.906  0.00  0.00    -0.259 OA
BRANCH  24  26
HETATM   26  C   UNK N   1      25.980  17.617   3.669  0.00  0.00     0.045 A 
HETATM   27  C   UNK N   1      26.478  17.737   4.974  0.00  0.00     0.057 A 
HETATM   28  C   UNK N   1      26.758  18.995   5.515  0.00  0.00     0.102 A 
HETATM   29  C   UNK N   1      26.556  20.150   4.746  0.00  0.00     0.132 A 
HETATM   30  C   UNK N   1      26.068  20.038   3.438  0.00  0.00     0.102 A 
HETATM   31  C   UNK N   1      25.783  18.778   2.906  0.00  0.00     0.057 A 
BRANCH  28  32
HETATM   32  O   UNK N   1      27.225  19.092   6.771  0.00  0.00    -0.358 OA
HETATM   33  H   UNK N   1      26.896  18.524   7.440  0.00  0.00     0.217 HD
ENDBRANCH  28  32
BRANCH  29  34
HETATM   34  O   UNK N   1      26.831  21.362   5.261  0.00  0.00    -0.356 OA
HETATM   35  H   UNK N   1      27.456  21.971   4.919  0.00  0.00     0.218 HD
ENDBRANCH  29  34
BRANCH  30  36
HETATM   36  O   UNK N   1      25.875  21.136   2.687  0.00  0.00    -0.358 OA
HETATM   37  H   UNK N   1      26.411  21.443   1.983  0.00  0.00     0.217 HD
ENDBRANCH  30  36
ENDBRANCH  24  26
ENDBRANCH  23  24
ENDBRANCH   2  23
BRANCH   3  38
HETATM   38  O   UNK N   1      23.244  16.391   5.416  0.00  0.00    -0.306 OA
BRANCH  38  39
HETATM   39  C   UNK N   1      22.209  17.252   5.644  0.00  0.00     0.294 C 
HETATM   40  O   UNK N   1      21.713  17.360   6.754  0.00  0.00    -0.259 OA
BRANCH  39  41
HETATM   41  C   UNK N   1      21.718  18.097   4.542  0.00  0.00     0.045 A 
HETATM   42  C   UNK N   1      22.468  19.202   4.109  0.00  0.00     0.057 A 
HETATM   43  C   UNK N   1      22.022  19.978   3.035  0.00  0.00     0.102 A 
HETATM   44  C   UNK N   1      20.807  19.672   2.407  0.00  0.00     0.132 A 
HETATM   45  C   UNK N   1      20.050  18.576   2.849  0.00  0.00     0.102 A 
HETATM   46  C   UNK N   1      20.517  17.783   3.899  0.00  0.00     0.057 A 
BRANCH  43  47
HETATM   47  O   UNK N   1      22.766  21.013   2.607  0.00  0.00    -0.358 OA
HETATM   48  H   UNK N   1      23.152  20.991   1.753  0.00  0.00     0.217 HD
ENDBRANCH  43  47
BRANCH  44  49
HETATM   49  O   UNK N   1      20.367  20.426   1.385  0.00  0.00    -0.356 OA
HETATM   50  H   UNK N   1      19.838  21.188   1.517  0.00  0.00     0.218 HD
ENDBRANCH  44  49
BRANCH  45  51
HETATM   51  O   UNK N   1      18.877  18.282   2.266  0.00  0.00    -0.358 OA
HETATM   52  H   UNK N   1      18.160  18.885   2.234  0.00  0.00     0.217 HD
ENDBRANCH  45  51
ENDBRANCH  39  41
ENDBRANCH  38  39
ENDBRANCH   3  38
BRANCH   5  53
HETATM   53  O   UNK N   1      24.005  11.747   6.544  0.00  0.00    -0.283 OA
BRANCH  53  54
HETATM   54  C   UNK N   1      23.217  10.707   6.913  0.00  0.00     0.295 C 
HETATM   55  O   UNK N   1      23.439  10.102   7.953  0.00  0.00    -0.259 OA
BRANCH  54  56
HETATM   56  C   UNK N   1      22.212  10.201   5.969  0.00  0.00     0.045 A 
HETATM   57  C   UNK N   1      20.978  10.848   5.825  0.00  0.00     0.057 A 
HETATM   58  C   UNK N   1      19.978  10.288   5.026  0.00  0.00     0.102 A 
HETATM   59  C   UNK N   1      20.213   9.078   4.356  0.00  0.00     0.132 A 
HETATM   60  C   UNK N   1      21.452   8.437   4.487  0.00  0.00     0.102 A 
HETATM   61  C   UNK N   1      22.440   8.993   5.298  0.00  0.00     0.057 A 
BRANCH  58  62
HETATM   62  O   UNK N   1      18.790  10.906   4.916  0.00  0.00    -0.358 OA
HETATM   63  H   UNK N   1      18.571  11.439   4.178  0.00  0.00     0.217 HD
ENDBRANCH  58  62
BRANCH  59  64
HETATM   64  O   UNK N   1      19.249   8.531   3.594  0.00  0.00    -0.356 OA
HETATM   65  H   UNK N   1      18.981   7.639   3.701  0.00  0.00     0.218 HD
ENDBRANCH  59  64
BRANCH  60  66
HETATM   66  O   UNK N   1      21.691   7.279   3.849  0.00  0.00    -0.358 OA
HETATM   67  H   UNK N   1      20.985   6.692   3.663  0.00  0.00     0.217 HD
ENDBRANCH  60  66
ENDBRANCH  54  56
ENDBRANCH  53  54
ENDBRANCH   5  53
BRANCH   4  68
HETATM   68  O   UNK N   1      23.285  14.357   7.381  0.00  0.00    -0.304 OA
BRANCH  68  69
HETATM   69  C   UNK N   1      22.147  14.012   8.038  0.00  0.00     0.294 C 
HETATM   70  O   UNK N   1      21.043  14.311   7.607  0.00  0.00    -0.259 OA
BRANCH  69  71
HETATM   71  C   UNK N   1      22.289  13.312   9.326  0.00  0.00     0.045 A 
HETATM   72  C   UNK N   1      21.177  12.866  10.052  0.00  0.00     0.057 A 
HETATM   73  C   UNK N   1      21.355  12.211  11.277  0.00  0.00     0.102 A 
HETATM   74  C   UNK N   1      22.649  12.003  11.782  0.00  0.00     0.132 A 
HETATM   75  C   UNK N   1      23.760  12.447  11.056  0.00  0.00     0.102 A 
HETATM   76  C   UNK N   1      23.576  13.094   9.836  0.00  0.00     0.057 A 
BRANCH  73  77
HETATM   77  O   UNK N   1      20.283  11.785  11.966  0.00  0.00    -0.358 OA
HETATM   78  H   UNK N   1      19.831  10.983  11.795  0.00  0.00     0.217 HD
ENDBRANCH  73  77
BRANCH  74  79
HETATM   79  O   UNK N   1      22.822  11.379  12.961  0.00  0.00    -0.356 OA
HETATM   80  H   UNK N   1      22.153  10.815  13.297  0.00  0.00     0.218 HD
ENDBRANCH  74  79
BRANCH  75  81
HETATM   81  O   UNK N   1      25.004  12.255  11.526  0.00  0.00    -0.358 OA
HETATM   82  H   UNK N   1      25.332  12.565  12.348  0.00  0.00     0.217 HD
ENDBRANCH  75  81
ENDBRANCH  69  71
ENDBRANCH  68  69
ENDBRANCH   4  68
TORSDOF 31
ENDMDL
MODEL 4
REMARK VINA RESULT:      -9.2      3.099      6.524
REMARK  31 active torsions:
REMARK  status: ('A' for Active; 'I' for Inactive)
REMARK    1  A    between atoms: C_27  and  C_11 
REMARK    2  A    between atoms: O_62  and  C_11 
REMARK    3  A    between atoms: C_36  and  C_12 
REMARK    4  A    between atoms: C_37  and  C_13 
REMARK    5  A    between atoms: C_38  and  C_14 
REMARK    6  A    between atoms: C_39  and  C_15 
REMARK    7  A    between atoms: C_40  and  C_16 
REMARK    8  A    between atoms: O_42  and  C_17 
REMARK    9  A    between atoms: O_43  and  C_18 
REMARK   10  A    between atoms: O_44  and  C_19 
REMARK   11  A    between atoms: O_45  and  C_20 
REMARK   12  A    between atoms: O_46  and  C_21 
REMARK   13  A    between atoms: O_47  and  C_22 
REMARK   14  A    between atoms: O_48  and  C_23 
REMARK   15  A    between atoms: O_49  and  C_24 
REMARK   16  A    between atoms: O_50  and  C_25 
REMARK   17  A    between atoms: O_51  and  C_26 
REMARK   18  A    between atoms: O_52  and  C_28 
REMARK   19  A    between atoms: O_53  and  C_29 
REMARK   20  A    between atoms: O_54  and  C_30 
REMARK   21  A    between atoms: O_55  and  C_31 
REMARK   22  A    between atoms: O_56  and  C_32 
REMARK   23  A    between atoms: C_33  and  O_64 
REMARK   24  A    between atoms: C_34  and  O_65 
REMARK   25  A    between atoms: C_35  and  O_66 
REMARK   26  A    between atoms: O_62  and  C_36 
REMARK   27  A    between atoms: O_64  and  C_37 
REMARK   28  A    between atoms: O_65  and  C_38 
REMARK   29  A    between atoms: O_66  and  C_39 
REMARK   30  A    between atoms: O_67  and  C_40 
REMARK   31  A    between atoms: C_41  and  O_67 
ROOT
HETATM    1  C   UNK N   1      24.976  15.506   4.039  0.00  0.00     0.181 C 
HETATM    2  C   UNK N   1      24.459  14.421   3.051  0.00  0.00     0.195 C 
HETATM    3  C   UNK N   1      24.366  13.042   3.767  0.00  0.00     0.198 C 
HETATM    4  C   UNK N   1      23.528  13.253   5.063  0.00  0.00     0.220 C 
HETATM    5  C   UNK N   1      24.263  14.302   5.912  0.00  0.00     0.302 C 
HETATM    6  O   UNK N   1      24.215  15.537   5.231  0.00  0.00    -0.348 OA
ENDROOT
BRANCH   1   7
HETATM    7  C   UNK N   1      24.805  16.907   3.454  0.00  0.00     0.213 C 
BRANCH   7   8
HETATM    8  O   UNK N   1      24.237  17.821   4.306  0.00  0.00    -0.315 OA
BRANCH   8   9
HETATM    9  C   UNK N   1      23.617  18.941   3.840  0.00  0.00     0.293 C 
HETATM   10  O   UNK N   1      24.267  19.971   3.755  0.00  0.00    -0.259 OA
BRANCH   9  11
HETATM   11  C   UNK N   1      22.171  18.961   3.456  0.00  0.00     0.045 A 
HETATM   12  C   UNK N   1      21.309  17.960   3.932  0.00  0.00     0.057 A 
HETATM   13  C   UNK N   1      19.965  17.932   3.541  0.00  0.00     0.102 A 
HETATM   14  C   UNK N   1      19.473  18.898   2.656  0.00  0.00     0.132 A 
HETATM   15  C   UNK N   1      20.323  19.894   2.171  0.00  0.00     0.102 A 
HETATM   16  C   UNK N   1      21.661  19.925   2.572  0.00  0.00     0.057 A 
BRANCH  13  17
HETATM   17  O   UNK N   1      19.156  16.968   4.010  0.00  0.00    -0.358 OA
HETATM   18  H   UNK N   1      18.743  16.371   3.417  0.00  0.00     0.217 HD
ENDBRANCH  13  17
BRANCH  14  19
HETATM   19  O   UNK N   1      18.184  18.866   2.266  0.00  0.00    -0.356 OA
HETATM   20  H   UNK N   1      17.558  18.351   2.735  0.00  0.00     0.218 HD
ENDBRANCH  14  19
BRANCH  15  21
HETATM   21  O   UNK N   1      19.862  20.812   1.308  0.00  0.00    -0.358 OA
HETATM   22  H   UNK N   1      20.030  20.723   0.390  0.00  0.00     0.217 HD
ENDBRANCH  15  21
ENDBRANCH   9  11
ENDBRANCH   8   9
ENDBRANCH   7   8
ENDBRANCH   1   7
BRANCH   2  23
HETATM   23  O   UNK N   1      23.197  14.785   2.592  0.00  0.00    -0.307 OA
BRANCH  23  24
HETATM   24  C   UNK N   1      22.769  14.597   1.314  0.00  0.00     0.294 C 
HETATM   25  O   UNK N   1      23.601  14.425   0.436  0.00  0.00    -0.259 OA
BRANCH  24  26
HETATM   26  C   UNK N   1      21.325  14.538   0.970  0.00  0.00     0.045 A 
HETATM   27  C   UNK N   1      20.599  15.723   0.783  0.00  0.00     0.057 A 
HETATM   28  C   UNK N   1      19.248  15.680   0.425  0.00  0.00     0.102 A 
HETATM   29  C   UNK N   1      18.612  14.445   0.235  0.00  0.00     0.132 A 
HETATM   30  C   UNK N   1      19.333  13.257   0.411  0.00  0.00     0.102 A 
HETATM   31  C   UNK N   1      20.680  13.307   0.776  0.00  0.00     0.057 A 
BRANCH  28  32
HETATM   32  O   UNK N   1      18.565  16.826   0.260  0.00  0.00    -0.358 OA
HETATM   33  H   UNK N   1      18.840  17.606   0.702  0.00  0.00     0.217 HD
ENDBRANCH  28  32
BRANCH  29  34
HETATM   34  O   UNK N   1      17.314  14.401  -0.116  0.00  0.00    -0.356 OA
HETATM   35  H   UNK N   1      16.587  14.438   0.475  0.00  0.00     0.218 HD
ENDBRANCH  29  34
BRANCH  30  36
HETATM   36  O   UNK N   1      18.737  12.067   0.227  0.00  0.00    -0.358 OA
HETATM   37  H   UNK N   1      17.892  11.908  -0.146  0.00  0.00     0.217 HD
ENDBRANCH  30  36
ENDBRANCH  24  26
ENDBRANCH  23  24
ENDBRANCH   2  23
BRANCH   3  38
HETATM   38  O   UNK N   1      23.786  12.114   2.906  0.00  0.00    -0.306 OA
BRANCH  38  39
HETATM   39  C   UNK N   1      24.422  11.431   1.909  0.00  0.00     0.294 C 
HETATM   40  O   UNK N   1      25.640  11.420   1.832  0.00  0.00    -0.259 OA
BRANCH  39  41
HETATM   41  C   UNK N   1      23.624  10.658   0.942  0.00  0.00     0.045 A 
HETATM   42  C   UNK N   1      23.994  10.619  -0.411  0.00  0.00     0.057 A 
HETATM   43  C   UNK N   1      23.261   9.852  -1.321  0.00  0.00     0.102 A 
HETATM   44  C   UNK N   1      22.132   9.143  -0.887  0.00  0.00     0.132 A 
HETATM   45  C   UNK N   1      21.752   9.193   0.463  0.00  0.00     0.102 A 
HETATM   46  C   UNK N   1      22.510   9.933   1.374  0.00  0.00     0.057 A 
BRANCH  43  47
HETATM   47  O   UNK N   1      23.645   9.795  -2.608  0.00  0.00    -0.358 OA
HETATM   48  H   UNK N   1      24.251   9.136  -2.887  0.00  0.00     0.217 HD
ENDBRANCH  43  47
BRANCH  44  49
HETATM   49  O   UNK N   1      21.413   8.417  -1.762  0.00  0.00    -0.356 OA
HETATM   50  H   UNK N   1      20.808   8.810  -2.359  0.00  0.00     0.218 HD
ENDBRANCH  44  49
BRANCH  45  51
HETATM   51  O   UNK N   1      20.664   8.531   0.888  0.00  0.00    -0.358 OA
HETATM   52  H   UNK N   1      20.069   8.885   1.519  0.00  0.00     0.217 HD
ENDBRANCH  45  51
ENDBRANCH  39  41
ENDBRANCH  38  39
ENDBRANCH   3  38
BRANCH   5  53
HETATM   53  O   UNK N   1      23.665  14.436   7.150  0.00  0.00    -0.283 OA
BRANCH  53  54
HETATM   54  C   UNK N   1      24.088  13.728   8.226  0.00  0.00     0.295 C 
HETATM   55  O   UNK N   1      25.266  13.417   8.337  0.00  0.00    -0.259 OA
BRANCH  54  56
HETATM   56  C   UNK N   1      23.093  13.185   9.161  0.00  0.00     0.045 A 
HETATM   57  C   UNK N   1      21.754  13.590   9.092  0.00  0.00     0.057 A 
HETATM   58  C   UNK N   1      20.842  13.172  10.064  0.00  0.00     0.102 A 
HETATM   59  C   UNK N   1      21.265  12.337  11.109  0.00  0.00     0.132 A 
HETATM   60  C   UNK N   1      22.601  11.919  11.170  0.00  0.00     0.102 A 
HETATM   61  C   UNK N   1      23.510  12.351  10.206  0.00  0.00     0.057 A 
BRANCH  58  62
HETATM   62  O   UNK N   1      19.565  13.588  10.002  0.00  0.00    -0.358 OA
HETATM   63  H   UNK N   1      18.951  13.418  10.689  0.00  0.00     0.217 HD
ENDBRANCH  58  62
BRANCH  59  64
HETATM   64  O   UNK N   1      20.391  11.941  12.052  0.00  0.00    -0.356 OA
HETATM   65  H   UNK N   1      20.482  11.120  12.496  0.00  0.00     0.218 HD
ENDBRANCH  59  64
BRANCH  60  66
HETATM   66  O   UNK N   1      23.019  11.116  12.163  0.00  0.00    -0.358 OA
HETATM   67  H   UNK N   1      22.539  11.076  12.967  0.00  0.00     0.217 HD
ENDBRANCH  60  66
ENDBRANCH  54  56
ENDBRANCH  53  54
ENDBRANCH   5  53
BRANCH   4  68
HETATM   68  O   UNK N   1      23.250  12.047   5.682  0.00  0.00    -0.304 OA
BRANCH  68  69
HETATM   69  C   UNK N   1      22.103  11.441   6.085  0.00  0.00     0.294 C 
HETATM   70  O   UNK N   1      22.072  10.720   7.070  0.00  0.00    -0.259 OA
BRANCH  69  71
HETATM   71  C   UNK N   1      20.901  11.637   5.254  0.00  0.00     0.045 A 
HETATM   72  C   UNK N   1      20.513  10.703   4.285  0.00  0.00     0.057 A 
HETATM   73  C   UNK N   1      19.369  10.931   3.510  0.00  0.00     0.102 A 
HETATM   74  C   UNK N   1      18.609  12.096   3.702  0.00  0.00     0.132 A 
HETATM   75  C   UNK N   1      18.996  13.027   4.673  0.00  0.00     0.102 A 
HETATM   76  C   UNK N   1      20.133  12.794   5.442  0.00  0.00     0.057 A 
BRANCH  73  77
HETATM   77  O   UNK N   1      19.003  10.030   2.583  0.00  0.00    -0.358 OA
HETATM   78  H   UNK N   1      18.824  10.239   1.687  0.00  0.00     0.217 HD
ENDBRANCH  73  77
BRANCH  74  79
HETATM   79  O   UNK N   1      17.513  12.319   2.956  0.00  0.00    -0.356 OA
HETATM   80  H   UNK N   1      17.111  11.613   2.489  0.00  0.00     0.218 HD
ENDBRANCH  74  79
BRANCH  75  81
HETATM   81  O   UNK N   1      18.280  14.148   4.868  0.00  0.00    -0.358 OA
HETATM   82  H   UNK N   1      18.512  15.005   4.567  0.00  0.00     0.217 HD
ENDBRANCH  75  81
ENDBRANCH  69  71
ENDBRANCH  68  69
ENDBRANCH   4  68
TORSDOF 31
ENDMDL
MODEL 5
REMARK VINA RESULT:      -9.1      1.993      8.325
REMARK  31 active torsions:
REMARK  status: ('A' for Active; 'I' for Inactive)
REMARK    1  A    between atoms: C_27  and  C_11 
REMARK    2  A    between atoms: O_62  and  C_11 
REMARK    3  A    between atoms: C_36  and  C_12 
REMARK    4  A    between atoms: C_37  and  C_13 
REMARK    5  A    between atoms: C_38  and  C_14 
REMARK    6  A    between atoms: C_39  and  C_15 
REMARK    7  A    between atoms: C_40  and  C_16 
REMARK    8  A    between atoms: O_42  and  C_17 
REMARK    9  A    between atoms: O_43  and  C_18 
REMARK   10  A    between atoms: O_44  and  C_19 
REMARK   11  A    between atoms: O_45  and  C_20 
REMARK   12  A    between atoms: O_46  and  C_21 
REMARK   13  A    between atoms: O_47  and  C_22 
REMARK   14  A    between atoms: O_48  and  C_23 
REMARK   15  A    between atoms: O_49  and  C_24 
REMARK   16  A    between atoms: O_50  and  C_25 
REMARK   17  A    between atoms: O_51  and  C_26 
REMARK   18  A    between atoms: O_52  and  C_28 
REMARK   19  A    between atoms: O_53  and  C_29 
REMARK   20  A    between atoms: O_54  and  C_30 
REMARK   21  A    between atoms: O_55  and  C_31 
REMARK   22  A    between atoms: O_56  and  C_32 
REMARK   23  A    between atoms: C_33  and  O_64 
REMARK   24  A    between atoms: C_34  and  O_65 
REMARK   25  A    between atoms: C_35  and  O_66 
REMARK   26  A    between atoms: O_62  and  C_36 
REMARK   27  A    between atoms: O_64  and  C_37 
REMARK   28  A    between atoms: O_65  and  C_38 
REMARK   29  A    between atoms: O_66  and  C_39 
REMARK   30  A    between atoms: O_67  and  C_40 
REMARK   31  A    between atoms: C_41  and  O_67 
ROOT
HETATM    1  C   UNK N   1      23.806  16.967   4.519  0.00  0.00     0.181 C 
HETATM    2  C   UNK N   1      23.455  15.574   3.917  0.00  0.00     0.195 C 
HETATM    3  C   UNK N   1      24.376  15.266   2.701  0.00  0.00     0.198 C 
HETATM    4  C   UNK N   1      25.846  15.464   3.177  0.00  0.00     0.220 C 
HETATM    5  C   UNK N   1      25.976  16.919   3.653  0.00  0.00     0.302 C 
HETATM    6  O   UNK N   1      25.185  17.080   4.811  0.00  0.00    -0.348 OA
ENDROOT
BRANCH   1   7
HETATM    7  C   UNK N   1      23.124  17.167   5.871  0.00  0.00     0.213 C 
BRANCH   7   8
HETATM    8  O   UNK N   1      21.955  17.884   5.826  0.00  0.00    -0.315 OA
BRANCH   8   9
HETATM    9  C   UNK N   1      21.009  17.645   4.875  0.00  0.00     0.293 C 
HETATM   10  O   UNK N   1      20.176  16.778   5.090  0.00  0.00    -0.259 OA
BRANCH   9  11
HETATM   11  C   UNK N   1      20.968  18.384   3.574  0.00  0.00     0.045 A 
HETATM   12  C   UNK N   1      21.211  19.767   3.550  0.00  0.00     0.057 A 
HETATM   13  C   UNK N   1      21.126  20.484   2.352  0.00  0.00     0.102 A 
HETATM   14  C   UNK N   1      20.780  19.827   1.165  0.00  0.00     0.132 A 
HETATM   15  C   UNK N   1      20.529  18.453   1.180  0.00  0.00     0.102 A 
HETATM   16  C   UNK N   1      20.626  17.738   2.376  0.00  0.00     0.057 A 
BRANCH  13  17
HETATM   17  O   UNK N   1      21.365  21.806   2.348  0.00  0.00    -0.358 OA
HETATM   18  H   UNK N   1      21.147  22.321   1.596  0.00  0.00     0.217 HD
ENDBRANCH  13  17
BRANCH  14  19
HETATM   19  O   UNK N   1      20.682  20.517   0.012  0.00  0.00    -0.356 OA
HETATM   20  H   UNK N   1      21.400  20.545  -0.588  0.00  0.00     0.218 HD
ENDBRANCH  14  19
BRANCH  15  21
HETATM   21  O   UNK N   1      20.179  17.821   0.049  0.00  0.00    -0.358 OA
HETATM   22  H   UNK N   1      19.577  17.103   0.077  0.00  0.00     0.217 HD
ENDBRANCH  15  21
ENDBRANCH   9  11
ENDBRANCH   8   9
ENDBRANCH   7   8
ENDBRANCH   1   7
BRANCH   2  23
HETATM   23  O   UNK N   1      23.638  14.597   4.890  0.00  0.00    -0.307 OA
BRANCH  23  24
HETATM   24  C   UNK N   1      22.619  13.976   5.546  0.00  0.00     0.294 C 
HETATM   25  O   UNK N   1      21.656  13.591   4.900  0.00  0.00    -0.259 OA
BRANCH  24  26
HETATM   26  C   UNK N   1      22.674  13.707   7.006  0.00  0.00     0.045 A 
HETATM   27  C   UNK N   1      21.489  13.490   7.724  0.00  0.00     0.057 A 
HETATM   28  C   UNK N   1      21.530  13.201   9.091  0.00  0.00     0.102 A 
HETATM   29  C   UNK N   1      22.763  13.110   9.753  0.00  0.00     0.132 A 
HETATM   30  C   UNK N   1      23.951  13.315   9.039  0.00  0.00     0.102 A 
HETATM   31  C   UNK N   1      23.903  13.611   7.675  0.00  0.00     0.057 A 
BRANCH  28  32
HETATM   32  O   UNK N   1      20.383  13.007   9.766  0.00  0.00    -0.358 OA
HETATM   33  H   UNK N   1      20.045  13.681  10.322  0.00  0.00     0.217 HD
ENDBRANCH  28  32
BRANCH  29  34
HETATM   34  O   UNK N   1      22.806  12.825  11.066  0.00  0.00    -0.356 OA
HETATM   35  H   UNK N   1      23.096  12.016  11.440  0.00  0.00     0.218 HD
ENDBRANCH  29  34
BRANCH  30  36
HETATM   36  O   UNK N   1      25.140  13.226   9.659  0.00  0.00    -0.358 OA
HETATM   37  H   UNK N   1      25.536  13.863  10.220  0.00  0.00     0.217 HD
ENDBRANCH  30  36
ENDBRANCH  24  26
ENDBRANCH  23  24
ENDBRANCH   2  23
BRANCH   3  38
HETATM   38  O   UNK N   1      24.132  13.969   2.256  0.00  0.00    -0.306 OA
BRANCH  38  39
HETATM   39  C   UNK N   1      23.407  13.619   1.153  0.00  0.00     0.294 C 
HETATM   40  O   UNK N   1      23.950  13.425   0.078  0.00  0.00    -0.259 OA
BRANCH  39  41
HETATM   41  C   UNK N   1      21.952  13.426   1.280  0.00  0.00     0.045 A 
HETATM   42  C   UNK N   1      21.068  14.459   0.933  0.00  0.00     0.057 A 
HETATM   43  C   UNK N   1      19.686  14.260   1.014  0.00  0.00     0.102 A 
HETATM   44  C   UNK N   1      19.181  13.037   1.474  0.00  0.00     0.132 A 
HETATM   45  C   UNK N   1      20.064  12.008   1.835  0.00  0.00     0.102 A 
HETATM   46  C   UNK N   1      21.443  12.200   1.719  0.00  0.00     0.057 A 
BRANCH  43  47
HETATM   47  O   UNK N   1      18.849  15.245   0.646  0.00  0.00    -0.358 OA
HETATM   48  H   UNK N   1      18.134  15.062   0.068  0.00  0.00     0.217 HD
ENDBRANCH  43  47
BRANCH  44  49
HETATM   49  O   UNK N   1      17.853  12.847   1.570  0.00  0.00    -0.356 OA
HETATM   50  H   UNK N   1      17.407  12.185   1.080  0.00  0.00     0.218 HD
ENDBRANCH  44  49
BRANCH  45  51
HETATM   51  O   UNK N   1      19.594  10.837   2.292  0.00  0.00    -0.358 OA
HETATM   52  H   UNK N   1      19.107  10.761   3.090  0.00  0.00     0.217 HD
ENDBRANCH  45  51
ENDBRANCH  39  41
ENDBRANCH  38  39
ENDBRANCH   3  38
BRANCH   5  53
HETATM   53  O   UNK N   1      27.292  17.220   3.951  0.00  0.00    -0.283 OA
BRANCH  53  54
HETATM   54  C   UNK N   1      27.621  18.291   4.714  0.00  0.00     0.295 C 
HETATM   55  O   UNK N   1      27.495  19.426   4.275  0.00  0.00    -0.259 OA
BRANCH  54  56
HETATM   56  C   UNK N   1      28.299  18.071   5.999  0.00  0.00     0.045 A 
HETATM   57  C   UNK N   1      29.586  17.520   6.043  0.00  0.00     0.057 A 
HETATM   58  C   UNK N   1      30.170  17.192   7.268  0.00  0.00     0.102 A 
HETATM   59  C   UNK N   1      29.470  17.424   8.462  0.00  0.00     0.132 A 
HETATM   60  C   UNK N   1      28.188  17.989   8.421  0.00  0.00     0.102 A 
HETATM   61  C   UNK N   1      27.605  18.300   7.194  0.00  0.00     0.057 A 
BRANCH  58  62
HETATM   62  O   UNK N   1      31.395  16.641   7.296  0.00  0.00    -0.358 OA
HETATM   63  H   UNK N   1      32.039  16.887   7.930  0.00  0.00     0.217 HD
ENDBRANCH  58  62
BRANCH  59  64
HETATM   64  O   UNK N   1      30.026  17.100   9.644  0.00  0.00    -0.356 OA
HETATM   65  H   UNK N   1      30.733  16.487   9.706  0.00  0.00     0.218 HD
ENDBRANCH  59  64
BRANCH  60  66
HETATM   66  O   UNK N   1      27.508  18.219   9.556  0.00  0.00    -0.358 OA
HETATM   67  H   UNK N   1      26.873  18.908   9.591  0.00  0.00     0.217 HD
ENDBRANCH  60  66
ENDBRANCH  54  56
ENDBRANCH  53  54
ENDBRANCH   5  53
BRANCH   4  68
HETATM   68  O   UNK N   1      26.746  15.051   2.210  0.00  0.00    -0.304 OA
BRANCH  68  69
HETATM   69  C   UNK N   1      27.804  14.199   2.215  0.00  0.00     0.294 C 
HETATM   70  O   UNK N   1      27.720  13.071   1.751  0.00  0.00    -0.259 OA
BRANCH  69  71
HETATM   71  C   UNK N   1      29.047  14.661   2.856  0.00  0.00     0.045 A 
HETATM   72  C   UNK N   1      29.792  15.729   2.339  0.00  0.00     0.057 A 
HETATM   73  C   UNK N   1      30.974  16.132   2.973  0.00  0.00     0.102 A 
HETATM   74  C   UNK N   1      31.415  15.467   4.128  0.00  0.00     0.132 A 
HETATM   75  C   UNK N   1      30.669  14.402   4.646  0.00  0.00     0.102 A 
HETATM   76  C   UNK N   1      29.493  14.007   4.012  0.00  0.00     0.057 A 
BRANCH  73  77
HETATM   77  O   UNK N   1      31.682  17.158   2.471  0.00  0.00    -0.358 OA
HETATM   78  H   UNK N   1      32.109  17.809   2.992  0.00  0.00     0.217 HD
ENDBRANCH  73  77
BRANCH  74  79
HETATM   79  O   UNK N   1      32.552  15.850   4.736  0.00  0.00    -0.356 OA
HETATM   80  H   UNK N   1      33.340  15.951   4.239  0.00  0.00     0.218 HD
ENDBRANCH  74  79
BRANCH  75  81
HETATM   81  O   UNK N   1      31.079  13.754   5.750  0.00  0.00    -0.358 OA
HETATM   82  H   UNK N   1      30.533  13.491   6.465  0.00  0.00     0.217 HD
ENDBRANCH  75  81
ENDBRANCH  69  71
ENDBRANCH  68  69
ENDBRANCH   4  68
TORSDOF 31
ENDMDL
MODEL 6
REMARK VINA RESULT:      -9.1      1.658      8.992
REMARK  31 active torsions:
REMARK  status: ('A' for Active; 'I' for Inactive)
REMARK    1  A    between atoms: C_27  and  C_11 
REMARK    2  A    between atoms: O_62  and  C_11 
REMARK    3  A    between atoms: C_36  and  C_12 
REMARK    4  A    between atoms: C_37  and  C_13 
REMARK    5  A    between atoms: C_38  and  C_14 
REMARK    6  A    between atoms: C_39  and  C_15 
REMARK    7  A    between atoms: C_40  and  C_16 
REMARK    8  A    between atoms: O_42  and  C_17 
REMARK    9  A    between atoms: O_43  and  C_18 
REMARK   10  A    between atoms: O_44  and  C_19 
REMARK   11  A    between atoms: O_45  and  C_20 
REMARK   12  A    between atoms: O_46  and  C_21 
REMARK   13  A    between atoms: O_47  and  C_22 
REMARK   14  A    between atoms: O_48  and  C_23 
REMARK   15  A    between atoms: O_49  and  C_24 
REMARK   16  A    between atoms: O_50  and  C_25 
REMARK   17  A    between atoms: O_51  and  C_26 
REMARK   18  A    between atoms: O_52  and  C_28 
REMARK   19  A    between atoms: O_53  and  C_29 
REMARK   20  A    between atoms: O_54  and  C_30 
REMARK   21  A    between atoms: O_55  and  C_31 
REMARK   22  A    between atoms: O_56  and  C_32 
REMARK   23  A    between atoms: C_33  and  O_64 
REMARK   24  A    between atoms: C_34  and  O_65 
REMARK   25  A    between atoms: C_35  and  O_66 
REMARK   26  A    between atoms: O_62  and  C_36 
REMARK   27  A    between atoms: O_64  and  C_37 
REMARK   28  A    between atoms: O_65  and  C_38 
REMARK   29  A    between atoms: O_66  and  C_39 
REMARK   30  A    between atoms: O_67  and  C_40 
REMARK   31  A    between atoms: C_41  and  O_67 
ROOT
HETATM    1  C   UNK N   1      24.792  12.111   4.202  0.00  0.00     0.181 C 
HETATM    2  C   UNK N   1      24.055  12.645   5.465  0.00  0.00     0.195 C 
HETATM    3  C   UNK N   1      25.080  13.234   6.477  0.00  0.00     0.198 C 
HETATM    4  C   UNK N   1      25.953  14.262   5.699  0.00  0.00     0.220 C 
HETATM    5  C   UNK N   1      26.638  13.501   4.554  0.00  0.00     0.302 C 
HETATM    6  O   UNK N   1      25.645  13.088   3.639  0.00  0.00    -0.348 OA
ENDROOT
BRANCH   1   7
HETATM    7  C   UNK N   1      23.802  11.795   3.082  0.00  0.00     0.213 C 
BRANCH   7   8
HETATM    8  O   UNK N   1      23.596  12.818   2.191  0.00  0.00    -0.315 OA
BRANCH   8   9
HETATM    9  C   UNK N   1      22.447  12.910   1.464  0.00  0.00     0.293 C 
HETATM   10  O   UNK N   1      22.146  11.979   0.735  0.00  0.00    -0.259 OA
BRANCH   9  11
HETATM   11  C   UNK N   1      21.560  14.114   1.507  0.00  0.00     0.045 A 
HETATM   12  C   UNK N   1      20.376  14.135   0.752  0.00  0.00     0.057 A 
HETATM   13  C   UNK N   1      19.560  15.272   0.737  0.00  0.00     0.102 A 
HETATM   14  C   UNK N   1      19.928  16.408   1.467  0.00  0.00     0.132 A 
HETATM   15  C   UNK N   1      21.107  16.400   2.216  0.00  0.00     0.102 A 
HETATM   16  C   UNK N   1      21.914  15.260   2.237  0.00  0.00     0.057 A 
BRANCH  13  17
HETATM   17  O   UNK N   1      18.430  15.271   0.011  0.00  0.00    -0.358 OA
HETATM   18  H   UNK N   1      17.605  15.439   0.424  0.00  0.00     0.217 HD
ENDBRANCH  13  17
BRANCH  14  19
HETATM   19  O   UNK N   1      19.154  17.509   1.444  0.00  0.00    -0.356 OA
HETATM   20  H   UNK N   1      18.231  17.439   1.300  0.00  0.00     0.218 HD
ENDBRANCH  14  19
BRANCH  15  21
HETATM   21  O   UNK N   1      21.476  17.493   2.903  0.00  0.00    -0.358 OA
HETATM   22  H   UNK N   1      20.842  17.975   3.397  0.00  0.00     0.217 HD
ENDBRANCH  15  21
ENDBRANCH   9  11
ENDBRANCH   8   9
ENDBRANCH   7   8
ENDBRANCH   1   7
BRANCH   2  23
HETATM   23  O   UNK N   1      23.161  13.640   5.085  0.00  0.00    -0.307 OA
BRANCH  23  24
HETATM   24  C   UNK N   1      21.935  13.817   5.648  0.00  0.00     0.294 C 
HETATM   25  O   UNK N   1      21.199  12.849   5.768  0.00  0.00    -0.259 OA
BRANCH  24  26
HETATM   26  C   UNK N   1      21.493  15.137   6.169  0.00  0.00     0.045 A 
HETATM   27  C   UNK N   1      20.322  15.233   6.934  0.00  0.00     0.057 A 
HETATM   28  C   UNK N   1      19.914  16.463   7.458  0.00  0.00     0.102 A 
HETATM   29  C   UNK N   1      20.687  17.612   7.234  0.00  0.00     0.132 A 
HETATM   30  C   UNK N   1      21.863  17.521   6.479  0.00  0.00     0.102 A 
HETATM   31  C   UNK N   1      22.260  16.290   5.951  0.00  0.00     0.057 A 
BRANCH  28  32
HETATM   32  O   UNK N   1      18.783  16.539   8.181  0.00  0.00    -0.358 OA
HETATM   33  H   UNK N   1      18.220  15.793   8.251  0.00  0.00     0.217 HD
ENDBRANCH  28  32
BRANCH  29  34
HETATM   34  O   UNK N   1      20.302  18.795   7.743  0.00  0.00    -0.356 OA
HETATM   35  H   UNK N   1      19.871  19.480   7.269  0.00  0.00     0.218 HD
ENDBRANCH  29  34
BRANCH  30  36
HETATM   36  O   UNK N   1      22.616  18.613   6.261  0.00  0.00    -0.358 OA
HETATM   37  H   UNK N   1      22.931  19.222   6.900  0.00  0.00     0.217 HD
ENDBRANCH  30  36
ENDBRANCH  24  26
ENDBRANCH  23  24
ENDBRANCH   2  23
BRANCH   3  38
HETATM   38  O   UNK N   1      24.394  13.816   7.540  0.00  0.00    -0.306 OA
BRANCH  38  39
HETATM   39  C   UNK N   1      24.591  13.556   8.867  0.00  0.00     0.294 C 
HETATM   40  O   UNK N   1      25.688  13.705   9.380  0.00  0.00    -0.259 OA
BRANCH  39  41
HETATM   41  C   UNK N   1      23.449  13.135   9.695  0.00  0.00     0.045 A 
HETATM   42  C   UNK N   1      22.147  13.541   9.363  0.00  0.00     0.057 A 
HETATM   43  C   UNK N   1      21.058  13.107  10.126  0.00  0.00     0.102 A 
HETATM   44  C   UNK N   1      21.269  12.289  11.244  0.00  0.00     0.132 A 
HETATM   45  C   UNK N   1      22.571  11.894  11.585  0.00  0.00     0.102 A 
HETATM   46  C   UNK N   1      23.652  12.302  10.799  0.00  0.00     0.057 A 
BRANCH  43  47
HETATM   47  O   UNK N   1      19.812  13.474   9.778  0.00  0.00    -0.358 OA
HETATM   48  H   UNK N   1      19.568  14.378   9.795  0.00  0.00     0.217 HD
ENDBRANCH  43  47
BRANCH  44  49
HETATM   49  O   UNK N   1      20.226  11.883  11.990  0.00  0.00    -0.356 OA
HETATM   50  H   UNK N   1      20.159  11.009  12.321  0.00  0.00     0.218 HD
ENDBRANCH  44  49
BRANCH  45  51
HETATM   51  O   UNK N   1      22.789  11.124  12.663  0.00  0.00    -0.358 OA
HETATM   52  H   UNK N   1      23.592  11.139  13.144  0.00  0.00     0.217 HD
ENDBRANCH  45  51
ENDBRANCH  39  41
ENDBRANCH  38  39
ENDBRANCH   3  38
BRANCH   5  53
HETATM   53  O   UNK N   1      27.551  14.310   3.906  0.00  0.00    -0.283 OA
BRANCH  53  54
HETATM   54  C   UNK N   1      27.168  15.196   2.954  0.00  0.00     0.295 C 
HETATM   55  O   UNK N   1      27.270  14.913   1.768  0.00  0.00    -0.259 OA
BRANCH  54  56
HETATM   56  C   UNK N   1      26.799  16.561   3.354  0.00  0.00     0.045 A 
HETATM   57  C   UNK N   1      25.458  16.967   3.354  0.00  0.00     0.057 A 
HETATM   58  C   UNK N   1      25.127  18.301   3.606  0.00  0.00     0.102 A 
HETATM   59  C   UNK N   1      26.139  19.236   3.872  0.00  0.00     0.132 A 
HETATM   60  C   UNK N   1      27.479  18.828   3.887  0.00  0.00     0.102 A 
HETATM   61  C   UNK N   1      27.805  17.499   3.620  0.00  0.00     0.057 A 
BRANCH  58  62
HETATM   62  O   UNK N   1      23.839  18.683   3.578  0.00  0.00    -0.358 OA
HETATM   63  H   UNK N   1      23.542  19.398   3.050  0.00  0.00     0.217 HD
ENDBRANCH  58  62
BRANCH  59  64
HETATM   64  O   UNK N   1      25.824  20.522   4.107  0.00  0.00    -0.356 OA
HETATM   65  H   UNK N   1      26.339  21.227   3.765  0.00  0.00     0.218 HD
ENDBRANCH  59  64
BRANCH  60  66
HETATM   66  O   UNK N   1      28.458  19.712   4.143  0.00  0.00    -0.358 OA
HETATM   67  H   UNK N   1      28.596  20.438   3.567  0.00  0.00     0.217 HD
ENDBRANCH  60  66
ENDBRANCH  54  56
ENDBRANCH  53  54
ENDBRANCH   5  53
BRANCH   4  68
HETATM   68  O   UNK N   1      26.786  14.962   6.556  0.00  0.00    -0.304 OA
BRANCH  68  69
HETATM   69  C   UNK N   1      26.932  16.279   6.855  0.00  0.00     0.294 C 
HETATM   70  O   UNK N   1      26.030  17.081   6.671  0.00  0.00    -0.259 OA
BRANCH  69  71
HETATM   71  C   UNK N   1      28.245  16.721   7.357  0.00  0.00     0.045 A 
HETATM   72  C   UNK N   1      29.428  16.474   6.648  0.00  0.00     0.057 A 
HETATM   73  C   UNK N   1      30.658  16.904   7.164  0.00  0.00     0.102 A 
HETATM   74  C   UNK N   1      30.707  17.582   8.392  0.00  0.00     0.132 A 
HETATM   75  C   UNK N   1      29.524  17.831   9.098  0.00  0.00     0.102 A 
HETATM   76  C   UNK N   1      28.305  17.403   8.579  0.00  0.00     0.057 A 
BRANCH  73  77
HETATM   77  O   UNK N   1      31.788  16.664   6.478  0.00  0.00    -0.358 OA
HETATM   78  H   UNK N   1      32.645  16.674   6.855  0.00  0.00     0.217 HD
ENDBRANCH  73  77
BRANCH  74  79
HETATM   79  O   UNK N   1      31.887  17.992   8.891  0.00  0.00    -0.356 OA
HETATM   80  H   UNK N   1      32.650  17.457   8.793  0.00  0.00     0.218 HD
ENDBRANCH  74  79
BRANCH  75  81
HETATM   81  O   UNK N   1      29.556  18.478  10.276  0.00  0.00    -0.358 OA
HETATM   82  H   UNK N   1      29.511  19.407  10.392  0.00  0.00     0.217 HD
ENDBRANCH  75  81
ENDBRANCH  69  71
ENDBRANCH  68  69
ENDBRANCH   4  68
TORSDOF 31
ENDMDL
MODEL 7
REMARK VINA RESULT:      -9.0      2.393      6.909
REMARK  31 active torsions:
REMARK  status: ('A' for Active; 'I' for Inactive)
REMARK    1  A    between atoms: C_27  and  C_11 
REMARK    2  A    between atoms: O_62  and  C_11 
REMARK    3  A    between atoms: C_36  and  C_12 
REMARK    4  A    between atoms: C_37  and  C_13 
REMARK    5  A    between atoms: C_38  and  C_14 
REMARK    6  A    between atoms: C_39  and  C_15 
REMARK    7  A    between atoms: C_40  and  C_16 
REMARK    8  A    between atoms: O_42  and  C_17 
REMARK    9  A    between atoms: O_43  and  C_18 
REMARK   10  A    between atoms: O_44  and  C_19 
REMARK   11  A    between atoms: O_45  and  C_20 
REMARK   12  A    between atoms: O_46  and  C_21 
REMARK   13  A    between atoms: O_47  and  C_22 
REMARK   14  A    between atoms: O_48  and  C_23 
REMARK   15  A    between atoms: O_49  and  C_24 
REMARK   16  A    between atoms: O_50  and  C_25 
REMARK   17  A    between atoms: O_51  and  C_26 
REMARK   18  A    between atoms: O_52  and  C_28 
REMARK   19  A    between atoms: O_53  and  C_29 
REMARK   20  A    between atoms: O_54  and  C_30 
REMARK   21  A    between atoms: O_55  and  C_31 
REMARK   22  A    between atoms: O_56  and  C_32 
REMARK   23  A    between atoms: C_33  and  O_64 
REMARK   24  A    between atoms: C_34  and  O_65 
REMARK   25  A    between atoms: C_35  and  O_66 
REMARK   26  A    between atoms: O_62  and  C_36 
REMARK   27  A    between atoms: O_64  and  C_37 
REMARK   28  A    between atoms: O_65  and  C_38 
REMARK   29  A    between atoms: O_66  and  C_39 
REMARK   30  A    between atoms: O_67  and  C_40 
REMARK   31  A    between atoms: C_41  and  O_67 
ROOT
HETATM    1  C   UNK N   1      23.782  13.253   3.332  0.00  0.00     0.181 C 
HETATM    2  C   UNK N   1      23.817  14.761   3.713  0.00  0.00     0.195 C 
HETATM    3  C   UNK N   1      23.095  14.990   5.073  0.00  0.00     0.198 C 
HETATM    4  C   UNK N   1      23.726  14.002   6.098  0.00  0.00     0.220 C 
HETATM    5  C   UNK N   1      23.507  12.582   5.554  0.00  0.00     0.302 C 
HETATM    6  O   UNK N   1      24.272  12.435   4.377  0.00  0.00    -0.348 OA
ENDROOT
BRANCH   1   7
HETATM    7  C   UNK N   1      24.722  12.961   2.163  0.00  0.00     0.213 C 
BRANCH   7   8
HETATM    8  O   UNK N   1      24.138  12.310   1.105  0.00  0.00    -0.315 OA
BRANCH   8   9
HETATM    9  C   UNK N   1      23.229  12.928   0.300  0.00  0.00     0.293 C 
HETATM   10  O   UNK N   1      23.636  13.522  -0.686  0.00  0.00    -0.259 OA
BRANCH   9  11
HETATM   11  C   UNK N   1      21.762  12.928   0.593  0.00  0.00     0.045 A 
HETATM   12  C   UNK N   1      21.104  14.140   0.858  0.00  0.00     0.057 A 
HETATM   13  C   UNK N   1      19.744  14.156   1.187  0.00  0.00     0.102 A 
HETATM   14  C   UNK N   1      19.029  12.955   1.268  0.00  0.00     0.132 A 
HETATM   15  C   UNK N   1      19.675  11.744   1.013  0.00  0.00     0.102 A 
HETATM   16  C   UNK N   1      21.030  11.733   0.675  0.00  0.00     0.057 A 
BRANCH  13  17
HETATM   17  O   UNK N   1      19.132  15.326   1.434  0.00  0.00    -0.358 OA
HETATM   18  H   UNK N   1      18.605  15.429   2.203  0.00  0.00     0.217 HD
ENDBRANCH  13  17
BRANCH  14  19
HETATM   19  O   UNK N   1      17.723  12.965   1.598  0.00  0.00    -0.356 OA
HETATM   20  H   UNK N   1      17.310  12.193   1.930  0.00  0.00     0.218 HD
ENDBRANCH  14  19
BRANCH  15  21
HETATM   21  O   UNK N   1      19.000  10.588   1.108  0.00  0.00    -0.358 OA
HETATM   22  H   UNK N   1      18.135  10.516   0.752  0.00  0.00     0.217 HD
ENDBRANCH  15  21
ENDBRANCH   9  11
ENDBRANCH   8   9
ENDBRANCH   7   8
ENDBRANCH   1   7
BRANCH   2  23
HETATM   23  O   UNK N   1      25.141  15.174   3.822  0.00  0.00    -0.307 OA
BRANCH  23  24
HETATM   24  C   UNK N   1      25.689  16.175   3.080  0.00  0.00     0.294 C 
HETATM   25  O   UNK N   1      25.929  15.966   1.900  0.00  0.00    -0.259 OA
BRANCH  24  26
HETATM   26  C   UNK N   1      25.949  17.523   3.649  0.00  0.00     0.045 A 
HETATM   27  C   UNK N   1      26.457  17.650   4.949  0.00  0.00     0.057 A 
HETATM   28  C   UNK N   1      26.739  18.911   5.483  0.00  0.00     0.102 A 
HETATM   29  C   UNK N   1      26.528  20.062   4.710  0.00  0.00     0.132 A 
HETATM   30  C   UNK N   1      26.030  19.943   3.406  0.00  0.00     0.102 A 
HETATM   31  C   UNK N   1      25.744  18.680   2.882  0.00  0.00     0.057 A 
BRANCH  28  32
HETATM   32  O   UNK N   1      27.215  19.015   6.735  0.00  0.00    -0.358 OA
HETATM   33  H   UNK N   1      27.272  18.255   7.281  0.00  0.00     0.217 HD
ENDBRANCH  28  32
BRANCH  29  34
HETATM   34  O   UNK N   1      26.804  21.277   5.217  0.00  0.00    -0.356 OA
HETATM   35  H   UNK N   1      26.172  21.932   5.442  0.00  0.00     0.218 HD
ENDBRANCH  29  34
BRANCH  30  36
HETATM   36  O   UNK N   1      25.828  21.037   2.653  0.00  0.00    -0.358 OA
HETATM   37  H   UNK N   1      25.259  21.757   2.840  0.00  0.00     0.217 HD
ENDBRANCH  30  36
ENDBRANCH  24  26
ENDBRANCH  23  24
ENDBRANCH   2  23
BRANCH   3  38
HETATM   38  O   UNK N   1      23.245  16.320   5.457  0.00  0.00    -0.306 OA
BRANCH  38  39
HETATM   39  C   UNK N   1      22.236  17.219   5.660  0.00  0.00     0.294 C 
HETATM   40  O   UNK N   1      21.760  17.389   6.771  0.00  0.00    -0.259 OA
BRANCH  39  41
HETATM   41  C   UNK N   1      21.753  18.027   4.529  0.00  0.00     0.045 A 
HETATM   42  C   UNK N   1      20.557  17.688   3.876  0.00  0.00     0.057 A 
HETATM   43  C   UNK N   1      20.076  18.480   2.829  0.00  0.00     0.102 A 
HETATM   44  C   UNK N   1      20.807  19.599   2.406  0.00  0.00     0.132 A 
HETATM   45  C   UNK N   1      22.010  19.931   3.048  0.00  0.00     0.102 A 
HETATM   46  C   UNK N   1      22.467  19.156   4.117  0.00  0.00     0.057 A 
BRANCH  43  47
HETATM   47  O   UNK N   1      18.912  18.165   2.235  0.00  0.00    -0.358 OA
HETATM   48  H   UNK N   1      18.545  17.310   2.347  0.00  0.00     0.217 HD
ENDBRANCH  43  47
BRANCH  44  49
HETATM   49  O   UNK N   1      20.357  20.354   1.389  0.00  0.00    -0.356 OA
HETATM   50  H   UNK N   1      19.751  21.057   1.518  0.00  0.00     0.218 HD
ENDBRANCH  44  49
BRANCH  45  51
HETATM   51  O   UNK N   1      22.727  20.991   2.643  0.00  0.00    -0.358 OA
HETATM   52  H   UNK N   1      22.935  21.149   1.743  0.00  0.00     0.217 HD
ENDBRANCH  45  51
ENDBRANCH  39  41
ENDBRANCH  38  39
ENDBRANCH   3  38
BRANCH   5  53
HETATM   53  O   UNK N   1      23.904  11.636   6.480  0.00  0.00    -0.283 OA
BRANCH  53  54
HETATM   54  C   UNK N   1      23.198  10.497   6.681  0.00  0.00     0.295 C 
HETATM   55  O   UNK N   1      22.019  10.548   7.004  0.00  0.00    -0.259 OA
BRANCH  54  56
HETATM   56  C   UNK N   1      23.905   9.209   6.684  0.00  0.00     0.045 A 
HETATM   57  C   UNK N   1      24.992   8.989   5.829  0.00  0.00     0.057 A 
HETATM   58  C   UNK N   1      25.574   7.722   5.742  0.00  0.00     0.102 A 
HETATM   59  C   UNK N   1      25.076   6.667   6.521  0.00  0.00     0.132 A 
HETATM   60  C   UNK N   1      23.998   6.889   7.388  0.00  0.00     0.102 A 
HETATM   61  C   UNK N   1      23.412   8.152   7.459  0.00  0.00     0.057 A 
BRANCH  58  62
HETATM   62  O   UNK N   1      26.601   7.518   4.899  0.00  0.00    -0.358 OA
HETATM   63  H   UNK N   1      27.010   8.219   4.431  0.00  0.00     0.217 HD
ENDBRANCH  58  62
BRANCH  59  64
HETATM   64  O   UNK N   1      25.629   5.444   6.433  0.00  0.00    -0.356 OA
HETATM   65  H   UNK N   1      25.131   4.665   6.589  0.00  0.00     0.218 HD
ENDBRANCH  59  64
BRANCH  60  66
HETATM   66  O   UNK N   1      23.513   5.889   8.142  0.00  0.00    -0.358 OA
HETATM   67  H   UNK N   1      24.077   5.432   8.735  0.00  0.00     0.217 HD
ENDBRANCH  60  66
ENDBRANCH  54  56
ENDBRANCH  53  54
ENDBRANCH   5  53
BRANCH   4  68
HETATM   68  O   UNK N   1      23.263  14.246   7.380  0.00  0.00    -0.304 OA
BRANCH  68  69
HETATM   69  C   UNK N   1      22.149  13.874   8.063  0.00  0.00     0.294 C 
HETATM   70  O   UNK N   1      21.029  14.114   7.640  0.00  0.00    -0.259 OA
BRANCH  69  71
HETATM   71  C   UNK N   1      22.339  13.218   9.369  0.00  0.00     0.045 A 
HETATM   72  C   UNK N   1      23.614  12.993   9.904  0.00  0.00     0.057 A 
HETATM   73  C   UNK N   1      23.752  12.359  11.145  0.00  0.00     0.102 A 
HETATM   74  C   UNK N   1      22.613  11.946  11.855  0.00  0.00     0.132 A 
HETATM   75  C   UNK N   1      21.339  12.174  11.321  0.00  0.00     0.102 A 
HETATM   76  C   UNK N   1      21.209  12.807  10.087  0.00  0.00     0.057 A 
BRANCH  73  77
HETATM   77  O   UNK N   1      24.978  12.147  11.652  0.00  0.00    -0.358 OA
HETATM   78  H   UNK N   1      25.708  11.837  11.153  0.00  0.00     0.217 HD
ENDBRANCH  73  77
BRANCH  74  79
HETATM   79  O   UNK N   1      22.743  11.332  13.045  0.00  0.00    -0.356 OA
HETATM   80  H   UNK N   1      22.378  10.480  13.176  0.00  0.00     0.218 HD
ENDBRANCH  74  79
BRANCH  75  81
HETATM   81  O   UNK N   1      20.239  11.783  11.987  0.00  0.00    -0.358 OA
HETATM   82  H   UNK N   1      19.447  12.277  12.073  0.00  0.00     0.217 HD
ENDBRANCH  75  81
ENDBRANCH  69  71
ENDBRANCH  68  69
ENDBRANCH   4  68
TORSDOF 31
ENDMDL
MODEL 8
REMARK VINA RESULT:      -9.0      2.475      5.946
REMARK  31 active torsions:
REMARK  status: ('A' for Active; 'I' for Inactive)
REMARK    1  A    between atoms: C_27  and  C_11 
REMARK    2  A    between atoms: O_62  and  C_11 
REMARK    3  A    between atoms: C_36  and  C_12 
REMARK    4  A    between atoms: C_37  and  C_13 
REMARK    5  A    between atoms: C_38  and  C_14 
REMARK    6  A    between atoms: C_39  and  C_15 
REMARK    7  A    between atoms: C_40  and  C_16 
REMARK    8  A    between atoms: O_42  and  C_17 
REMARK    9  A    between atoms: O_43  and  C_18 
REMARK   10  A    between atoms: O_44  and  C_19 
REMARK   11  A    between atoms: O_45  and  C_20 
REMARK   12  A    between atoms: O_46  and  C_21 
REMARK   13  A    between atoms: O_47  and  C_22 
REMARK   14  A    between atoms: O_48  and  C_23 
REMARK   15  A    between atoms: O_49  and  C_24 
REMARK   16  A    between atoms: O_50  and  C_25 
REMARK   17  A    between atoms: O_51  and  C_26 
REMARK   18  A    between atoms: O_52  and  C_28 
REMARK   19  A    between atoms: O_53  and  C_29 
REMARK   20  A    between atoms: O_54  and  C_30 
REMARK   21  A    between atoms: O_55  and  C_31 
REMARK   22  A    between atoms: O_56  and  C_32 
REMARK   23  A    between atoms: C_33  and  O_64 
REMARK   24  A    between atoms: C_34  and  O_65 
REMARK   25  A    between atoms: C_35  and  O_66 
REMARK   26  A    between atoms: O_62  and  C_36 
REMARK   27  A    between atoms: O_64  and  C_37 
REMARK   28  A    between atoms: O_65  and  C_38 
REMARK   29  A    between atoms: O_66  and  C_39 
REMARK   30  A    between atoms: O_67  and  C_40 
REMARK   31  A    between atoms: C_41  and  O_67 
ROOT
HETATM    1  C   UNK N   1      24.118  11.807   4.798  0.00  0.00     0.181 C 
HETATM    2  C   UNK N   1      24.175  12.895   3.686  0.00  0.00     0.195 C 
HETATM    3  C   UNK N   1      22.776  13.553   3.505  0.00  0.00     0.198 C 
HETATM    4  C   UNK N   1      22.307  14.026   4.911  0.00  0.00     0.220 C 
HETATM    5  C   UNK N   1      22.253  12.784   5.814  0.00  0.00     0.302 C 
HETATM    6  O   UNK N   1      23.571  12.313   6.000  0.00  0.00    -0.348 OA
ENDROOT
BRANCH   1   7
HETATM    7  C   UNK N   1      25.522  11.353   5.194  0.00  0.00     0.213 C 
BRANCH   7   8
HETATM    8  O   UNK N   1      25.787  10.027   4.958  0.00  0.00    -0.315 OA
BRANCH   8   9
HETATM    9  C   UNK N   1      24.961   9.262   4.191  0.00  0.00     0.293 C 
HETATM   10  O   UNK N   1      25.177   9.197   2.991  0.00  0.00    -0.259 OA
BRANCH   9  11
HETATM   11  C   UNK N   1      23.790   8.521   4.758  0.00  0.00     0.045 A 
HETATM   12  C   UNK N   1      22.516   8.698   4.196  0.00  0.00     0.057 A 
HETATM   13  C   UNK N   1      21.400   8.056   4.744  0.00  0.00     0.102 A 
HETATM   14  C   UNK N   1      21.545   7.241   5.873  0.00  0.00     0.132 A 
HETATM   15  C   UNK N   1      22.807   7.064   6.444  0.00  0.00     0.102 A 
HETATM   16  C   UNK N   1      23.921   7.698   5.886  0.00  0.00     0.057 A 
BRANCH  13  17
HETATM   17  O   UNK N   1      20.190   8.236   4.190  0.00  0.00    -0.358 OA
HETATM   18  H   UNK N   1      19.477   8.554   4.710  0.00  0.00     0.217 HD
ENDBRANCH  13  17
BRANCH  14  19
HETATM   19  O   UNK N   1      20.471   6.633   6.413  0.00  0.00    -0.356 OA
HETATM   20  H   UNK N   1      19.868   7.116   6.942  0.00  0.00     0.218 HD
ENDBRANCH  14  19
BRANCH  15  21
HETATM   21  O   UNK N   1      22.950   6.298   7.537  0.00  0.00    -0.358 OA
HETATM   22  H   UNK N   1      22.526   6.535   8.338  0.00  0.00     0.217 HD
ENDBRANCH  15  21
ENDBRANCH   9  11
ENDBRANCH   8   9
ENDBRANCH   7   8
ENDBRANCH   1   7
BRANCH   2  23
HETATM   23  O   UNK N   1      25.098  13.871   4.048  0.00  0.00    -0.307 OA
BRANCH  23  24
HETATM   24  C   UNK N   1      25.942  14.482   3.173  0.00  0.00     0.294 C 
HETATM   25  O   UNK N   1      26.204  13.919   2.121  0.00  0.00    -0.259 OA
BRANCH  24  26
HETATM   26  C   UNK N   1      26.506  15.831   3.437  0.00  0.00     0.045 A 
HETATM   27  C   UNK N   1      27.895  16.015   3.486  0.00  0.00     0.057 A 
HETATM   28  C   UNK N   1      28.437  17.286   3.699  0.00  0.00     0.102 A 
HETATM   29  C   UNK N   1      27.590  18.393   3.851  0.00  0.00     0.132 A 
HETATM   30  C   UNK N   1      26.201  18.219   3.793  0.00  0.00     0.102 A 
HETATM   31  C   UNK N   1      25.666  16.945   3.588  0.00  0.00     0.057 A 
BRANCH  28  32
HETATM   32  O   UNK N   1      29.771  17.441   3.754  0.00  0.00    -0.358 OA
HETATM   33  H   UNK N   1      30.205  17.489   4.582  0.00  0.00     0.217 HD
ENDBRANCH  28  32
BRANCH  29  34
HETATM   34  O   UNK N   1      28.108  19.618   4.049  0.00  0.00    -0.356 OA
HETATM   35  H   UNK N   1      29.016  19.843   3.988  0.00  0.00     0.218 HD
ENDBRANCH  29  34
BRANCH  30  36
HETATM   36  O   UNK N   1      25.378  19.272   3.931  0.00  0.00    -0.358 OA
HETATM   37  H   UNK N   1      24.781  19.437   4.635  0.00  0.00     0.217 HD
ENDBRANCH  30  36
ENDBRANCH  24  26
ENDBRANCH  23  24
ENDBRANCH   2  23
BRANCH   3  38
HETATM   38  O   UNK N   1      22.876  14.604   2.596  0.00  0.00    -0.306 OA
BRANCH  38  39
HETATM   39  C   UNK N   1      22.545  14.560   1.272  0.00  0.00     0.294 C 
HETATM   40  O   UNK N   1      23.405  14.500   0.410  0.00  0.00    -0.259 OA
BRANCH  39  41
HETATM   41  C   UNK N   1      21.124  14.535   0.887  0.00  0.00     0.045 A 
HETATM   42  C   UNK N   1      20.446  13.312   0.759  0.00  0.00     0.057 A 
HETATM   43  C   UNK N   1      19.086  13.291   0.434  0.00  0.00     0.102 A 
HETATM   44  C   UNK N   1      18.403  14.493   0.204  0.00  0.00     0.132 A 
HETATM   45  C   UNK N   1      19.083  15.715   0.318  0.00  0.00     0.102 A 
HETATM   46  C   UNK N   1      20.433  15.732   0.677  0.00  0.00     0.057 A 
BRANCH  43  47
HETATM   47  O   UNK N   1      18.440  12.115   0.348  0.00  0.00    -0.358 OA
HETATM   48  H   UNK N   1      17.522  12.071   0.530  0.00  0.00     0.217 HD
ENDBRANCH  43  47
BRANCH  44  49
HETATM   49  O   UNK N   1      17.099  14.477  -0.125  0.00  0.00    -0.356 OA
HETATM   50  H   UNK N   1      16.585  15.259  -0.169  0.00  0.00     0.218 HD
ENDBRANCH  44  49
BRANCH  45  51
HETATM   51  O   UNK N   1      18.444  16.873   0.085  0.00  0.00    -0.358 OA
HETATM   52  H   UNK N   1      18.845  17.709   0.217  0.00  0.00     0.217 HD
ENDBRANCH  45  51
ENDBRANCH  39  41
ENDBRANCH  38  39
ENDBRANCH   3  38
BRANCH   5  53
HETATM   53  O   UNK N   1      21.699  13.094   7.041  0.00  0.00    -0.283 OA
BRANCH  53  54
HETATM   54  C   UNK N   1      22.431  13.663   8.029  0.00  0.00     0.295 C 
HETATM   55  O   UNK N   1      23.123  14.646   7.799  0.00  0.00    -0.259 OA
BRANCH  54  56
HETATM   56  C   UNK N   1      22.527  12.986   9.330  0.00  0.00     0.045 A 
HETATM   57  C   UNK N   1      21.370  12.620  10.031  0.00  0.00     0.057 A 
HETATM   58  C   UNK N   1      21.466  12.098  11.323  0.00  0.00     0.102 A 
HETATM   59  C   UNK N   1      22.725  11.929  11.919  0.00  0.00     0.132 A 
HETATM   60  C   UNK N   1      23.883  12.280  11.213  0.00  0.00     0.102 A 
HETATM   61  C   UNK N   1      23.780  12.815   9.930  0.00  0.00     0.057 A 
BRANCH  58  62
HETATM   62  O   UNK N   1      20.348  11.775  11.994  0.00  0.00    -0.358 OA
HETATM   63  H   UNK N   1      19.588  11.434  11.564  0.00  0.00     0.217 HD
ENDBRANCH  58  62
BRANCH  59  64
HETATM   64  O   UNK N   1      22.820  11.435  13.166  0.00  0.00    -0.356 OA
HETATM   65  H   UNK N   1      22.372  11.830  13.889  0.00  0.00     0.218 HD
ENDBRANCH  59  64
BRANCH  60  66
HETATM   66  O   UNK N   1      25.095  12.121  11.770  0.00  0.00    -0.358 OA
HETATM   67  H   UNK N   1      25.467  11.263  11.847  0.00  0.00     0.217 HD
ENDBRANCH  60  66
ENDBRANCH  54  56
ENDBRANCH  53  54
ENDBRANCH   5  53
BRANCH   4  68
HETATM   68  O   UNK N   1      21.145  14.774   4.826  0.00  0.00    -0.304 OA
BRANCH  68  69
HETATM   69  C   UNK N   1      20.756  15.967   5.347  0.00  0.00     0.294 C 
HETATM   70  O   UNK N   1      20.401  16.072   6.511  0.00  0.00    -0.259 OA
BRANCH  69  71
HETATM   71  C   UNK N   1      20.719  17.126   4.438  0.00  0.00     0.045 A 
HETATM   72  C   UNK N   1      21.836  17.948   4.243  0.00  0.00     0.057 A 
HETATM   73  C   UNK N   1      21.758  19.046   3.377  0.00  0.00     0.102 A 
HETATM   74  C   UNK N   1      20.558  19.326   2.704  0.00  0.00     0.132 A 
HETATM   75  C   UNK N   1      19.442  18.503   2.897  0.00  0.00     0.102 A 
HETATM   76  C   UNK N   1      19.528  17.411   3.757  0.00  0.00     0.057 A 
BRANCH  73  77
HETATM   77  O   UNK N   1      22.834  19.829   3.195  0.00  0.00    -0.358 OA
HETATM   78  H   UNK N   1      23.719  19.542   3.308  0.00  0.00     0.217 HD
ENDBRANCH  73  77
BRANCH  74  79
HETATM   79  O   UNK N   1      20.478  20.383   1.875  0.00  0.00    -0.356 OA
HETATM   80  H   UNK N   1      20.543  21.253   2.216  0.00  0.00     0.218 HD
ENDBRANCH  74  79
BRANCH  75  81
HETATM   81  O   UNK N   1      18.287  18.759   2.260  0.00  0.00    -0.358 OA
HETATM   82  H   UNK N   1      18.184  19.322   1.517  0.00  0.00     0.217 HD
ENDBRANCH  75  81
ENDBRANCH  69  71
ENDBRANCH  68  69
ENDBRANCH   4  68
TORSDOF 31
ENDMDL
MODEL 9
REMARK VINA RESULT:      -8.9      2.029      4.023
REMARK  31 active torsions:
REMARK  status: ('A' for Active; 'I' for Inactive)
REMARK    1  A    between atoms: C_27  and  C_11 
REMARK    2  A    between atoms: O_62  and  C_11 
REMARK    3  A    between atoms: C_36  and  C_12 
REMARK    4  A    between atoms: C_37  and  C_13 
REMARK    5  A    between atoms: C_38  and  C_14 
REMARK    6  A    between atoms: C_39  and  C_15 
REMARK    7  A    between atoms: C_40  and  C_16 
REMARK    8  A    between atoms: O_42  and  C_17 
REMARK    9  A    between atoms: O_43  and  C_18 
REMARK   10  A    between atoms: O_44  and  C_19 
REMARK   11  A    between atoms: O_45  and  C_20 
REMARK   12  A    between atoms: O_46  and  C_21 
REMARK   13  A    between atoms: O_47  and  C_22 
REMARK   14  A    between atoms: O_48  and  C_23 
REMARK   15  A    between atoms: O_49  and  C_24 
REMARK   16  A    between atoms: O_50  and  C_25 
REMARK   17  A    between atoms: O_51  and  C_26 
REMARK   18  A    between atoms: O_52  and  C_28 
REMARK   19  A    between atoms: O_53  and  C_29 
REMARK   20  A    between atoms: O_54  and  C_30 
REMARK   21  A    between atoms: O_55  and  C_31 
REMARK   22  A    between atoms: O_56  and  C_32 
REMARK   23  A    between atoms: C_33  and  O_64 
REMARK   24  A    between atoms: C_34  and  O_65 
REMARK   25  A    between atoms: C_35  and  O_66 
REMARK   26  A    between atoms: O_62  and  C_36 
REMARK   27  A    between atoms: O_64  and  C_37 
REMARK   28  A    between atoms: O_65  and  C_38 
REMARK   29  A    between atoms: O_66  and  C_39 
REMARK   30  A    between atoms: O_67  and  C_40 
REMARK   31  A    between atoms: C_41  and  O_67 
ROOT
HETATM    1  C   UNK N   1      24.751  16.546   4.594  0.00  0.00     0.181 C 
HETATM    2  C   UNK N   1      23.424  16.283   3.825  0.00  0.00     0.195 C 
HETATM    3  C   UNK N   1      23.319  14.782   3.429  0.00  0.00     0.198 C 
HETATM    4  C   UNK N   1      23.545  13.949   4.725  0.00  0.00     0.220 C 
HETATM    5  C   UNK N   1      24.937  14.314   5.262  0.00  0.00     0.302 C 
HETATM    6  O   UNK N   1      24.911  15.660   5.685  0.00  0.00    -0.348 OA
ENDROOT
BRANCH   1   7
HETATM    7  C   UNK N   1      24.747  17.931   5.239  0.00  0.00     0.213 C 
BRANCH   7   8
HETATM    8  O   UNK N   1      25.774  18.752   4.846  0.00  0.00    -0.315 OA
BRANCH   8   9
HETATM    9  C   UNK N   1      26.579  19.371   5.754  0.00  0.00     0.293 C 
HETATM   10  O   UNK N   1      26.373  20.547   6.006  0.00  0.00    -0.259 OA
BRANCH   9  11
HETATM   11  C   UNK N   1      27.717  18.673   6.431  0.00  0.00     0.045 A 
HETATM   12  C   UNK N   1      28.054  19.009   7.752  0.00  0.00     0.057 A 
HETATM   13  C   UNK N   1      29.147  18.406   8.384  0.00  0.00     0.102 A 
HETATM   14  C   UNK N   1      29.926  17.469   7.694  0.00  0.00     0.132 A 
HETATM   15  C   UNK N   1      29.603  17.133   6.378  0.00  0.00     0.102 A 
HETATM   16  C   UNK N   1      28.504  17.729   5.754  0.00  0.00     0.057 A 
BRANCH  13  17
HETATM   17  O   UNK N   1      29.452  18.739   9.649  0.00  0.00    -0.358 OA
HETATM   18  H   UNK N   1      28.945  18.397  10.360  0.00  0.00     0.217 HD
ENDBRANCH  13  17
BRANCH  14  19
HETATM   19  O   UNK N   1      30.988  16.898   8.293  0.00  0.00    -0.356 OA
HETATM   20  H   UNK N   1      31.382  17.296   9.044  0.00  0.00     0.218 HD
ENDBRANCH  14  19
BRANCH  15  21
HETATM   21  O   UNK N   1      30.357  16.250   5.704  0.00  0.00    -0.358 OA
HETATM   22  H   UNK N   1      30.253  16.151   4.778  0.00  0.00     0.217 HD
ENDBRANCH  15  21
ENDBRANCH   9  11
ENDBRANCH   8   9
ENDBRANCH   7   8
ENDBRANCH   1   7
BRANCH   2  23
HETATM   23  O   UNK N   1      22.349  16.618   4.643  0.00  0.00    -0.307 OA
BRANCH  23  24
HETATM   24  C   UNK N   1      21.137  17.026   4.177  0.00  0.00     0.294 C 
HETATM   25  O   UNK N   1      20.127  16.568   4.690  0.00  0.00    -0.259 OA
BRANCH  24  26
HETATM   26  C   UNK N   1      21.011  18.049   3.106  0.00  0.00     0.045 A 
HETATM   27  C   UNK N   1      21.315  19.390   3.378  0.00  0.00     0.057 A 
HETATM   28  C   UNK N   1      21.234  20.355   2.369  0.00  0.00     0.102 A 
HETATM   29  C   UNK N   1      20.860  19.983   1.070  0.00  0.00     0.132 A 
HETATM   30  C   UNK N   1      20.564  18.643   0.789  0.00  0.00     0.102 A 
HETATM   31  C   UNK N   1      20.640  17.685   1.803  0.00  0.00     0.057 A 
BRANCH  28  32
HETATM   32  O   UNK N   1      21.519  21.639   2.650  0.00  0.00    -0.358 OA
HETATM   33  H   UNK N   1      20.860  22.298   2.558  0.00  0.00     0.217 HD
ENDBRANCH  28  32
BRANCH  29  34
HETATM   34  O   UNK N   1      20.788  20.907   0.096  0.00  0.00    -0.356 OA
HETATM   35  H   UNK N   1      19.998  21.230  -0.293  0.00  0.00     0.218 HD
ENDBRANCH  29  34
BRANCH  30  36
HETATM   36  O   UNK N   1      20.211  18.270  -0.453  0.00  0.00    -0.358 OA
HETATM   37  H   UNK N   1      19.679  17.538  -0.695  0.00  0.00     0.217 HD
ENDBRANCH  30  36
ENDBRANCH  24  26
ENDBRANCH  23  24
ENDBRANCH   2  23
BRANCH   3  38
HETATM   38  O   UNK N   1      22.073  14.542   2.854  0.00  0.00    -0.306 OA
BRANCH  38  39
HETATM   39  C   UNK N   1      21.811  14.421   1.519  0.00  0.00     0.294 C 
HETATM   40  O   UNK N   1      22.606  14.818   0.684  0.00  0.00    -0.259 OA
BRANCH  39  41
HETATM   41  C   UNK N   1      20.570  13.756   1.087  0.00  0.00     0.045 A 
HETATM   42  C   UNK N   1      19.419  14.512   0.816  0.00  0.00     0.057 A 
HETATM   43  C   UNK N   1      18.254  13.884   0.365  0.00  0.00     0.102 A 
HETATM   44  C   UNK N   1      18.223  12.491   0.214  0.00  0.00     0.132 A 
HETATM   45  C   UNK N   1      19.369  11.733   0.498  0.00  0.00     0.102 A 
HETATM   46  C   UNK N   1      20.541  12.369   0.914  0.00  0.00     0.057 A 
BRANCH  43  47
HETATM   47  O   UNK N   1      17.168  14.622   0.076  0.00  0.00    -0.358 OA
HETATM   48  H   UNK N   1      16.556  14.323  -0.567  0.00  0.00     0.217 HD
ENDBRANCH  43  47
BRANCH  44  49
HETATM   49  O   UNK N   1      17.100  11.881  -0.203  0.00  0.00    -0.356 OA
HETATM   50  H   UNK N   1      16.259  12.290  -0.146  0.00  0.00     0.218 HD
ENDBRANCH  44  49
BRANCH  45  51
HETATM   51  O   UNK N   1      19.349  10.396   0.372  0.00  0.00    -0.358 OA
HETATM   52  H   UNK N   1      20.102   9.898   0.123  0.00  0.00     0.217 HD
ENDBRANCH  45  51
ENDBRANCH  39  41
ENDBRANCH  38  39
ENDBRANCH   3  38
BRANCH   5  53
HETATM   53  O   UNK N   1      25.277  13.505   6.329  0.00  0.00    -0.283 OA
BRANCH  53  54
HETATM   54  C   UNK N   1      25.251  13.961   7.605  0.00  0.00     0.295 C 
HETATM   55  O   UNK N   1      26.077  14.778   7.988  0.00  0.00    -0.259 OA
BRANCH  54  56
HETATM   56  C   UNK N   1      24.337  13.333   8.570  0.00  0.00     0.045 A 
HETATM   57  C   UNK N   1      22.966  13.242   8.299  0.00  0.00     0.057 A 
HETATM   58  C   UNK N   1      22.087  12.765   9.275  0.00  0.00     0.102 A 
HETATM   59  C   UNK N   1      22.578  12.367  10.527  0.00  0.00     0.132 A 
HETATM   60  C   UNK N   1      23.951  12.445  10.794  0.00  0.00     0.102 A 
HETATM   61  C   UNK N   1      24.822  12.935   9.822  0.00  0.00     0.057 A 
BRANCH  58  62
HETATM   62  O   UNK N   1      20.770  12.706   9.011  0.00  0.00    -0.358 OA
HETATM   63  H   UNK N   1      20.291  11.901   9.042  0.00  0.00     0.217 HD
ENDBRANCH  58  62
BRANCH  59  64
HETATM   64  O   UNK N   1      21.732  11.917  11.471  0.00  0.00    -0.356 OA
HETATM   65  H   UNK N   1      22.036  11.636  12.313  0.00  0.00     0.218 HD
ENDBRANCH  59  64
BRANCH  60  66
HETATM   66  O   UNK N   1      24.436  12.064  11.988  0.00  0.00    -0.358 OA
HETATM   67  H   UNK N   1      24.950  11.283  12.058  0.00  0.00     0.217 HD
ENDBRANCH  60  66
ENDBRANCH  54  56
ENDBRANCH  53  54
ENDBRANCH   5  53
BRANCH   4  68
HETATM   68  O   UNK N   1      23.305  12.603   4.504  0.00  0.00    -0.304 OA
BRANCH  68  69
HETATM   69  C   UNK N   1      22.487  11.688   5.086  0.00  0.00     0.294 C 
HETATM   70  O   UNK N   1      22.919  10.839   5.851  0.00  0.00    -0.259 OA
BRANCH  69  71
HETATM   71  C   UNK N   1      21.062  11.715   4.714  0.00  0.00     0.045 A 
HETATM   72  C   UNK N   1      20.422  10.600   4.157  0.00  0.00     0.057 A 
HETATM   73  C   UNK N   1      19.067  10.669   3.809  0.00  0.00     0.102 A 
HETATM   74  C   UNK N   1      18.347  11.856   4.018  0.00  0.00     0.132 A 
HETATM   75  C   UNK N   1      18.986  12.969   4.577  0.00  0.00     0.102 A 
HETATM   76  C   UNK N   1      20.333  12.893   4.923  0.00  0.00     0.057 A 
BRANCH  73  77
HETATM   77  O   UNK N   1      18.461   9.595   3.276  0.00  0.00    -0.358 OA
HETATM   78  H   UNK N   1      17.550   9.400   3.376  0.00  0.00     0.217 HD
ENDBRANCH  73  77
BRANCH  74  79
HETATM   79  O   UNK N   1      17.047  11.926   3.680  0.00  0.00    -0.356 OA
HETATM   80  H   UNK N   1      16.791  12.340   2.880  0.00  0.00     0.218 HD
ENDBRANCH  74  79
BRANCH  75  81
HETATM   81  O   UNK N   1      18.310  14.112   4.782  0.00  0.00    -0.358 OA
HETATM   82  H   UNK N   1      17.858  14.606   4.125  0.00  0.00     0.217 HD
ENDBRANCH  75  81
ENDBRANCH  69  71
ENDBRANCH  68  69
ENDBRANCH   4  68
TORSDOF 31
ENDMDL
