MODEL 1
REMARK VINA RESULT:      -3.7      0.000      0.000
REMARK  4 active torsions:
REMARK  status: ('A' for Active; 'I' for Inactive)
REMARK    1  A    between atoms: N_1  and  C_2 
REMARK    2  A    between atoms: C_2  and  C_3 
REMARK    3  A    between atoms: C_3  and  C_4 
REMARK    4  A    between atoms: C_4  and  O_5 
ROOT
HETATM    1  C   UNK N   1      33.650  17.354   8.829  0.00  0.00     0.129 C 
ENDROOT
BRANCH   1   2
HETATM    2  C   UNK N   1      34.473  16.376   9.647  0.00  0.00     0.121 C 
BRANCH   2   3
HETATM    3  N   UNK N   1      35.131  17.097  10.719  0.00  0.00    -0.430 N 
HETATM    4  H   UNK N   1      34.575  17.604  11.409  0.00  0.00     0.149 HD
HETATM    5  H   UNK N   1      36.149  17.097  10.785  0.00  0.00     0.149 HD
ENDBRANCH   2   3
ENDBRANCH   1   2
BRANCH   1   6
HETATM    6  C   UNK N   1      34.490  18.232   7.953  0.00  0.00     0.140 C 
HETATM    7  O   UNK N   1      34.494  18.094   6.738  0.00  0.00    -0.650 OA
BRANCH   6   8
HETATM    8  O   UNK N   1      35.250  19.186   8.516  0.00  0.00    -0.776 OA
HETATM    9  H   UNK N   1      35.881  18.957   9.171  0.00  0.00     0.167 HD
ENDBRANCH   6   8
ENDBRANCH   1   6
TORSDOF 4
ENDMDL
MODEL 2
REMARK VINA RESULT:      -3.5     15.371     15.702
REMARK  4 active torsions:
REMARK  status: ('A' for Active; 'I' for Inactive)
REMARK    1  A    between atoms: N_1  and  C_2 
REMARK    2  A    between atoms: C_2  and  C_3 
REMARK    3  A    between atoms: C_3  and  C_4 
REMARK    4  A    between atoms: C_4  and  O_5 
ROOT
HETATM    1  C   UNK N   1      20.729  19.783   1.686  0.00  0.00     0.129 C 
ENDROOT
BRANCH   1   2
HETATM    2  C   UNK N   1      20.179  18.440   2.129  0.00  0.00     0.121 C 
BRANCH   2   3
HETATM    3  N   UNK N   1      18.751  18.565   2.345  0.00  0.00    -0.430 N 
HETATM    4  H   UNK N   1      18.124  17.814   2.058  0.00  0.00     0.149 HD
HETATM    5  H   UNK N   1      18.373  19.405   2.785  0.00  0.00     0.149 HD
ENDBRANCH   2   3
ENDBRANCH   1   2
BRANCH   1   6
HETATM    6  C   UNK N   1      20.959  20.724   2.827  0.00  0.00     0.140 C 
HETATM    7  O   UNK N   1      20.296  20.647   3.853  0.00  0.00    -0.650 OA
BRANCH   6   8
HETATM    8  O   UNK N   1      21.910  21.667   2.720  0.00  0.00    -0.776 OA
HETATM    9  H   UNK N   1      21.777  22.513   3.101  0.00  0.00     0.167 HD
ENDBRANCH   6   8
ENDBRANCH   1   6
TORSDOF 4
ENDMDL
MODEL 3
REMARK VINA RESULT:      -3.5     15.923     16.192
REMARK  4 active torsions:
REMARK  status: ('A' for Active; 'I' for Inactive)
REMARK    1  A    between atoms: N_1  and  C_2 
REMARK    2  A    between atoms: C_2  and  C_3 
REMARK    3  A    between atoms: C_3  and  C_4 
REMARK    4  A    between atoms: C_4  and  O_5 
ROOT
HETATM    1  C   UNK N   1      20.921  19.792   2.492  0.00  0.00     0.129 C 
ENDROOT
BRANCH   1   2
HETATM    2  C   UNK N   1      20.105  18.521   2.641  0.00  0.00     0.121 C 
BRANCH   2   3
HETATM    3  N   UNK N   1      18.723  18.807   2.307  0.00  0.00    -0.430 N 
HETATM    4  H   UNK N   1      18.084  19.145   3.026  0.00  0.00     0.149 HD
HETATM    5  H   UNK N   1      18.391  18.670   1.352  0.00  0.00     0.149 HD
ENDBRANCH   2   3
ENDBRANCH   1   2
BRANCH   1   6
HETATM    6  C   UNK N   1      20.734  20.450   1.160  0.00  0.00     0.140 C 
HETATM    7  O   UNK N   1      20.729  21.668   1.052  0.00  0.00    -0.650 OA
BRANCH   6   8
HETATM    8  O   UNK N   1      20.570  19.685   0.067  0.00  0.00    -0.776 OA
HETATM    9  H   UNK N   1      20.840  20.002  -0.772  0.00  0.00     0.167 HD
ENDBRANCH   6   8
ENDBRANCH   1   6
TORSDOF 4
ENDMDL
MODEL 4
REMARK VINA RESULT:      -3.4     13.246     13.602
REMARK  4 active torsions:
REMARK  status: ('A' for Active; 'I' for Inactive)
REMARK    1  A    between atoms: N_1  and  C_2 
REMARK    2  A    between atoms: C_2  and  C_3 
REMARK    3  A    between atoms: C_3  and  C_4 
REMARK    4  A    between atoms: C_4  and  O_5 
ROOT
HETATM    1  C   UNK N   1      22.849  11.613  10.770  0.00  0.00     0.129 C 
ENDROOT
BRANCH   1   2
HETATM    2  C   UNK N   1      21.550  12.397  10.744  0.00  0.00     0.121 C 
BRANCH   2   3
HETATM    3  N   UNK N   1      20.672  11.887  11.778  0.00  0.00    -0.430 N 
HETATM    4  H   UNK N   1      21.004  11.168  12.421  0.00  0.00     0.149 HD
HETATM    5  H   UNK N   1      19.721  12.246  11.863  0.00  0.00     0.149 HD
ENDBRANCH   2   3
ENDBRANCH   1   2
BRANCH   1   6
HETATM    6  C   UNK N   1      23.730  11.981  11.923  0.00  0.00     0.140 C 
HETATM    7  O   UNK N   1      23.309  11.959  13.071  0.00  0.00    -0.650 OA
BRANCH   6   8
HETATM    8  O   UNK N   1      25.003  12.342  11.688  0.00  0.00    -0.776 OA
HETATM    9  H   UNK N   1      25.487  11.930  11.000  0.00  0.00     0.167 HD
ENDBRANCH   6   8
ENDBRANCH   1   6
TORSDOF 4
ENDMDL
MODEL 5
REMARK VINA RESULT:      -3.2     14.986     15.407
REMARK  4 active torsions:
REMARK  status: ('A' for Active; 'I' for Inactive)
REMARK    1  A    between atoms: N_1  and  C_2 
REMARK    2  A    between atoms: C_2  and  C_3 
REMARK    3  A    between atoms: C_3  and  C_4 
REMARK    4  A    between atoms: C_4  and  O_5 
ROOT
HETATM    1  C   UNK N   1      20.347  19.870   2.258  0.00  0.00     0.129 C 
ENDROOT
BRANCH   1   2
HETATM    2  C   UNK N   1      21.446  19.755   3.299  0.00  0.00     0.121 C 
BRANCH   2   3
HETATM    3  N   UNK N   1      22.652  20.370   2.780  0.00  0.00    -0.430 N 
HETATM    4  H   UNK N   1      23.545  20.216   3.248  0.00  0.00     0.149 HD
HETATM    5  H   UNK N   1      22.607  20.957   1.947  0.00  0.00     0.149 HD
ENDBRANCH   2   3
ENDBRANCH   1   2
BRANCH   1   6
HETATM    6  C   UNK N   1      20.705  20.792   1.134  0.00  0.00     0.140 C 
HETATM    7  O   UNK N   1      20.986  20.357   0.026  0.00  0.00    -0.650 OA
BRANCH   6   8
HETATM    8  O   UNK N   1      20.716  22.118   1.350  0.00  0.00    -0.776 OA
HETATM    9  H   UNK N   1      20.745  22.450   2.226  0.00  0.00     0.167 HD
ENDBRANCH   6   8
ENDBRANCH   1   6
TORSDOF 4
ENDMDL
MODEL 6
REMARK VINA RESULT:      -3.1      3.464      3.990
REMARK  4 active torsions:
REMARK  status: ('A' for Active; 'I' for Inactive)
REMARK    1  A    between atoms: N_1  and  C_2 
REMARK    2  A    between atoms: C_2  and  C_3 
REMARK    3  A    between atoms: C_3  and  C_4 
REMARK    4  A    between atoms: C_4  and  O_5 
ROOT
HETATM    1  C   UNK N   1      35.024  14.830  11.333  0.00  0.00     0.129 C 
ENDROOT
BRANCH   1   2
HETATM    2  C   UNK N   1      35.520  14.144  12.592  0.00  0.00     0.121 C 
BRANCH   2   3
HETATM    3  N   UNK N   1      36.405  15.046  13.301  0.00  0.00    -0.430 N 
HETATM    4  H   UNK N   1      36.077  15.533  14.136  0.00  0.00     0.149 HD
HETATM    5  H   UNK N   1      37.357  15.195  12.967  0.00  0.00     0.149 HD
ENDBRANCH   2   3
ENDBRANCH   1   2
BRANCH   1   6
HETATM    6  C   UNK N   1      35.805  16.061  10.994  0.00  0.00     0.140 C 
HETATM    7  O   UNK N   1      35.266  17.158  10.941  0.00  0.00    -0.650 OA
BRANCH   6   8
HETATM    8  O   UNK N   1      37.122  15.955  10.744  0.00  0.00    -0.776 OA
HETATM    9  H   UNK N   1      37.739  16.407  11.283  0.00  0.00     0.167 HD
ENDBRANCH   6   8
ENDBRANCH   1   6
TORSDOF 4
ENDMDL
MODEL 7
REMARK VINA RESULT:      -3.1      5.831      6.196
REMARK  4 active torsions:
REMARK  status: ('A' for Active; 'I' for Inactive)
REMARK    1  A    between atoms: N_1  and  C_2 
REMARK    2  A    between atoms: C_2  and  C_3 
REMARK    3  A    between atoms: C_3  and  C_4 
REMARK    4  A    between atoms: C_4  and  O_5 
ROOT
HETATM    1  C   UNK N   1      29.586  18.505   9.690  0.00  0.00     0.129 C 
ENDROOT
BRANCH   1   2
HETATM    2  C   UNK N   1      30.641  17.954   8.748  0.00  0.00     0.121 C 
BRANCH   2   3
HETATM    3  N   UNK N   1      29.994  17.489   7.537  0.00  0.00    -0.430 N 
HETATM    4  H   UNK N   1      30.526  17.419   6.670  0.00  0.00     0.149 HD
HETATM    5  H   UNK N   1      29.007  17.232   7.552  0.00  0.00     0.149 HD
ENDBRANCH   2   3
ENDBRANCH   1   2
BRANCH   1   6
HETATM    6  C   UNK N   1      28.192  18.154   9.271  0.00  0.00     0.140 C 
HETATM    7  O   UNK N   1      27.698  17.073   9.561  0.00  0.00    -0.650 OA
BRANCH   6   8
HETATM    8  O   UNK N   1      27.475  19.044   8.566  0.00  0.00    -0.776 OA
HETATM    9  H   UNK N   1      26.660  19.362   8.902  0.00  0.00     0.167 HD
ENDBRANCH   6   8
ENDBRANCH   1   6
TORSDOF 4
ENDMDL
MODEL 8
REMARK VINA RESULT:      -3.0     18.199     18.702
REMARK  4 active torsions:
REMARK  status: ('A' for Active; 'I' for Inactive)
REMARK    1  A    between atoms: N_1  and  C_2 
REMARK    2  A    between atoms: C_2  and  C_3 
REMARK    3  A    between atoms: C_3  and  C_4 
REMARK    4  A    between atoms: C_4  and  O_5 
ROOT
HETATM    1  C   UNK N   1      49.735  19.823  21.041  0.00  0.00     0.129 C 
ENDROOT
BRANCH   1   2
HETATM    2  C   UNK N   1      49.804  21.284  20.637  0.00  0.00     0.121 C 
BRANCH   2   3
HETATM    3  N   UNK N   1      48.757  21.555  19.670  0.00  0.00    -0.430 N 
HETATM    4  H   UNK N   1      48.484  20.837  19.000  0.00  0.00     0.149 HD
HETATM    5  H   UNK N   1      48.295  22.464  19.660  0.00  0.00     0.149 HD
ENDBRANCH   2   3
ENDBRANCH   1   2
BRANCH   1   6
HETATM    6  C   UNK N   1      48.641  19.077  20.342  0.00  0.00     0.140 C 
HETATM    7  O   UNK N   1      48.858  18.458  19.309  0.00  0.00    -0.650 OA
BRANCH   6   8
HETATM    8  O   UNK N   1      47.402  19.089  20.861  0.00  0.00    -0.776 OA
HETATM    9  H   UNK N   1      46.698  18.671  20.405  0.00  0.00     0.167 HD
ENDBRANCH   6   8
ENDBRANCH   1   6
TORSDOF 4
ENDMDL
MODEL 9
REMARK VINA RESULT:      -3.0     12.583     13.192
REMARK  4 active torsions:
REMARK  status: ('A' for Active; 'I' for Inactive)
REMARK    1  A    between atoms: N_1  and  C_2 
REMARK    2  A    between atoms: C_2  and  C_3 
REMARK    3  A    between atoms: C_3  and  C_4 
REMARK    4  A    between atoms: C_4  and  O_5 
ROOT
HETATM    1  C   UNK N   1      30.586  21.775  -3.837  0.00  0.00     0.129 C 
ENDROOT
BRANCH   1   2
HETATM    2  C   UNK N   1      31.513  21.031  -4.780  0.00  0.00     0.121 C 
BRANCH   2   3
HETATM    3  N   UNK N   1      31.730  19.692  -4.269  0.00  0.00    -0.430 N 
HETATM    4  H   UNK N   1      31.337  18.889  -4.760  0.00  0.00     0.149 HD
HETATM    5  H   UNK N   1      32.275  19.553  -3.418  0.00  0.00     0.149 HD
ENDBRANCH   2   3
ENDBRANCH   1   2
BRANCH   1   6
HETATM    6  C   UNK N   1      31.231  22.105  -2.527  0.00  0.00     0.140 C 
HETATM    7  O   UNK N   1      30.757  22.955  -1.785  0.00  0.00    -0.650 OA
BRANCH   6   8
HETATM    8  O   UNK N   1      32.349  21.454  -2.163  0.00  0.00    -0.776 OA
HETATM    9  H   UNK N   1      33.180  21.728  -2.498  0.00  0.00     0.167 HD
ENDBRANCH   6   8
ENDBRANCH   1   6
TORSDOF 4
ENDMDL
