MODEL 1
REMARK VINA RESULT:      -5.6      0.000      0.000
REMARK  24 active torsions:
REMARK  status: ('A' for Active; 'I' for Inactive)
REMARK    1  A    between atoms: C_2  and  C_1 
REMARK    2  A    between atoms: C_6  and  C_1 
REMARK    3  A    between atoms: C_7  and  C_2 
REMARK    4  A    between atoms: C_8  and  C_3 
REMARK    5  A    between atoms: C_9  and  C_3 
REMARK    6  A    between atoms: C_5  and  C_4 
REMARK    7  A    between atoms: C_12  and  C_4 
REMARK    8  A    between atoms: C_14  and  C_5 
REMARK    9  A    between atoms: N_18  and  C_6 
REMARK   10  A    between atoms: N_20  and  C_7 
REMARK   11  A    between atoms: N_20  and  C_8 
REMARK   12  A    between atoms: N_21  and  C_9 
REMARK   13  A    between atoms: C_15  and  C_10 
REMARK   14  A    between atoms: N_23  and  C_10 
REMARK   15  A    between atoms: C_13  and  C_11 
REMARK   16  A    between atoms: S_32  and  C_11 
REMARK   17  A    between atoms: C_17  and  C_12 
REMARK   18  A    between atoms: C_12  and  N_19 
REMARK   19  A    between atoms: C_16  and  C_13 
REMARK   20  A    between atoms: C_13  and  N_25 
REMARK   21  A    between atoms: C_14  and  O_27 
REMARK   22  A    between atoms: O_28  and  C_15 
REMARK   23  A    between atoms: O_29  and  C_16 
REMARK   24  A    between atoms: O_31  and  C_17 
ROOT
HETATM    1  C   UNK N   1      34.765  15.462  10.924  0.00  0.00     0.135 C 
HETATM    2  N   UNK N   1      35.867  15.584  11.593  0.00  0.00    -0.365 N 
ATOM      3  HN  UNK N   1      36.654  16.046  11.136  1.00  0.00     0.161 HD
ENDROOT
BRANCH   1   4
HETATM    4  C   UNK N   1      34.729  15.903   9.483  0.00  0.00     0.166 C 
BRANCH   4   5
HETATM    5  C   UNK N   1      34.782  14.646   8.618  0.00  0.00     0.104 C 
BRANCH   5   6
HETATM    6  S   UNK N   1      36.474  13.996   8.458  0.00  0.00    -0.180 SA
HETATM    7  H   UNK N   1      37.544  14.804   8.235  0.00  0.00     0.101 HD
ENDBRANCH   5   6
ENDBRANCH   4   5
BRANCH   4   8
HETATM    8  N   UNK N   1      33.525  16.653   9.165  0.00  0.00    -0.362 N 
HETATM    9  C   UNK N   1      33.493  17.603   8.291  0.00  0.00     0.111 C 
ATOM     10  HN  UNK N   1      32.663  16.417   9.655  1.00  0.00     0.162 HD
BRANCH   9  11
HETATM   11  C   UNK N   1      32.183  18.248   7.965  0.00  0.00     0.086 C 
BRANCH  11  12
HETATM   12  C   UNK N   1      30.994  17.421   8.436  0.00  0.00     0.043 C 
BRANCH  12  13
HETATM   13  C   UNK N   1      29.692  18.214   8.307  0.00  0.00     0.173 C 
BRANCH  13  14
HETATM   14  C   UNK N   1      28.729  17.782   9.381  0.00  0.00     0.163 C 
HETATM   15  O   UNK N   1      29.081  17.013  10.262  0.00  0.00    -0.648 OA
BRANCH  14  16
HETATM   16  O   UNK N   1      27.463  18.238   9.366  0.00  0.00    -0.775 OA
HETATM   17  H   UNK N   1      27.279  19.138   9.554  0.00  0.00     0.167 HD
ENDBRANCH  14  16
ENDBRANCH  13  14
BRANCH  13  18
HETATM   18  N   UNK N   1      29.112  18.001   6.988  0.00  0.00    -0.418 N 
HETATM   19  H   UNK N   1      28.441  17.248   6.835  0.00  0.00     0.150 HD
HETATM   20  H   UNK N   1      29.378  18.609   6.212  0.00  0.00     0.150 HD
ENDBRANCH  13  18
ENDBRANCH  12  13
ENDBRANCH  11  12
ENDBRANCH   9  11
BRANCH   9  21
HETATM   21  O   UNK N   1      34.606  17.962   7.615  0.00  0.00    -0.350 OA
HETATM   22  H   UNK N   1      35.516  18.109   7.782  0.00  0.00     0.219 HD
ENDBRANCH   9  21
ENDBRANCH   4   8
ENDBRANCH   1   4
BRANCH   1  23
HETATM   23  O   UNK N   1      33.669  14.914  11.492  0.00  0.00    -0.348 OA
HETATM   24  H   UNK N   1      32.742  15.051  11.503  0.00  0.00     0.219 HD
ENDBRANCH   1  23
BRANCH   2  25
HETATM   25  C   UNK N   1      36.056  15.104  12.948  0.00  0.00     0.205 C 
BRANCH  25  26
HETATM   26  C   UNK N   1      36.056  13.608  13.100  0.00  0.00     0.129 C 
HETATM   27  N   UNK N   1      37.187  12.992  13.096  0.00  0.00    -0.373 N 
ATOM     28  HN  UNK N   1      38.042  13.547  13.069  1.00  0.00     0.161 HD
BRANCH  27  29
HETATM   29  C   UNK N   1      37.303  11.551  13.125  0.00  0.00     0.123 C 
BRANCH  29  30
HETATM   30  C   UNK N   1      37.763  11.034  14.479  0.00  0.00     0.039 C 
BRANCH  30  31
HETATM   31  C   UNK N   1      36.707  10.100  15.053  0.00  0.00     0.115 C 
BRANCH  31  32
HETATM   32  N   UNK N   1      35.469  10.827  15.285  0.00  0.00    -0.421 N 
HETATM   33  H   UNK N   1      35.016  11.467  14.634  0.00  0.00     0.153 HD
BRANCH  32  34
HETATM   34  C   UNK N   1      34.998  10.474  16.610  0.00  0.00     0.113 C 
BRANCH  34  35
HETATM   35  C   UNK N   1      35.450  11.544  17.581  0.00  0.00     0.021 C 
BRANCH  35  36
HETATM   36  C   UNK N   1      35.274  12.916  16.971  0.00  0.00     0.021 C 
BRANCH  36  37
HETATM   37  C   UNK N   1      35.205  13.935  18.089  0.00  0.00     0.111 C 
BRANCH  37  38
HETATM   38  N   UNK N   1      35.248  13.257  19.370  0.00  0.00    -0.430 N 
HETATM   39  H   UNK N   1      35.754  12.377  19.466  0.00  0.00     0.149 HD
HETATM   40  H   UNK N   1      34.772  13.662  20.177  0.00  0.00     0.149 HD
ENDBRANCH  37  38
ENDBRANCH  36  37
ENDBRANCH  35  36
ENDBRANCH  34  35
ENDBRANCH  32  34
ENDBRANCH  31  32
ENDBRANCH  30  31
ENDBRANCH  29  30
ENDBRANCH  27  29
BRANCH  26  41
HETATM   41  O   UNK N   1      34.894  12.921  13.191  0.00  0.00    -0.348 OA
HETATM   42  H   UNK N   1      34.589  12.481  13.960  0.00  0.00     0.219 HD
ENDBRANCH  26  41
ENDBRANCH  25  26
ENDBRANCH   2  25
TORSDOF 24
ENDMDL
MODEL 2
REMARK VINA RESULT:      -5.6      2.379      4.099
REMARK  24 active torsions:
REMARK  status: ('A' for Active; 'I' for Inactive)
REMARK    1  A    between atoms: C_2  and  C_1 
REMARK    2  A    between atoms: C_6  and  C_1 
REMARK    3  A    between atoms: C_7  and  C_2 
REMARK    4  A    between atoms: C_8  and  C_3 
REMARK    5  A    between atoms: C_9  and  C_3 
REMARK    6  A    between atoms: C_5  and  C_4 
REMARK    7  A    between atoms: C_12  and  C_4 
REMARK    8  A    between atoms: C_14  and  C_5 
REMARK    9  A    between atoms: N_18  and  C_6 
REMARK   10  A    between atoms: N_20  and  C_7 
REMARK   11  A    between atoms: N_20  and  C_8 
REMARK   12  A    between atoms: N_21  and  C_9 
REMARK   13  A    between atoms: C_15  and  C_10 
REMARK   14  A    between atoms: N_23  and  C_10 
REMARK   15  A    between atoms: C_13  and  C_11 
REMARK   16  A    between atoms: S_32  and  C_11 
REMARK   17  A    between atoms: C_17  and  C_12 
REMARK   18  A    between atoms: C_12  and  N_19 
REMARK   19  A    between atoms: C_16  and  C_13 
REMARK   20  A    between atoms: C_13  and  N_25 
REMARK   21  A    between atoms: C_14  and  O_27 
REMARK   22  A    between atoms: O_28  and  C_15 
REMARK   23  A    between atoms: O_29  and  C_16 
REMARK   24  A    between atoms: O_31  and  C_17 
ROOT
HETATM    1  C   UNK N   1      33.001  17.182   6.464  0.00  0.00     0.135 C 
HETATM    2  N   UNK N   1      32.829  16.829   7.698  0.00  0.00    -0.365 N 
ATOM      3  HN  UNK N   1      31.930  16.423   7.957  1.00  0.00     0.161 HD
ENDROOT
BRANCH   1   4
HETATM    4  C   UNK N   1      31.843  17.081   5.504  0.00  0.00     0.166 C 
BRANCH   4   5
HETATM    5  C   UNK N   1      31.883  15.686   4.884  0.00  0.00     0.104 C 
BRANCH   5   6
HETATM    6  S   UNK N   1      32.273  15.740   3.107  0.00  0.00    -0.180 SA
HETATM    7  H   UNK N   1      31.469  16.365   2.206  0.00  0.00     0.101 HD
ENDBRANCH   5   6
ENDBRANCH   4   5
BRANCH   4   8
HETATM    8  N   UNK N   1      30.561  17.274   6.163  0.00  0.00    -0.362 N 
HETATM    9  C   UNK N   1      29.549  17.838   5.593  0.00  0.00     0.111 C 
ATOM     10  HN  UNK N   1      30.456  16.948   7.124  1.00  0.00     0.162 HD
BRANCH   9  11
HETATM   11  C   UNK N   1      28.245  17.901   6.321  0.00  0.00     0.086 C 
BRANCH  11  12
HETATM   12  C   UNK N   1      28.268  18.902   7.469  0.00  0.00     0.043 C 
BRANCH  12  13
HETATM   13  C   UNK N   1      28.093  18.195   8.815  0.00  0.00     0.173 C 
BRANCH  13  14
HETATM   14  C   UNK N   1      29.438  18.007   9.464  0.00  0.00     0.163 C 
HETATM   15  O   UNK N   1      30.219  17.164   9.050  0.00  0.00    -0.648 OA
BRANCH  14  16
HETATM   16  O   UNK N   1      29.782  18.768  10.520  0.00  0.00    -0.775 OA
HETATM   17  H   UNK N   1      30.249  19.571  10.396  0.00  0.00     0.167 HD
ENDBRANCH  14  16
ENDBRANCH  13  14
BRANCH  13  18
HETATM   18  N   UNK N   1      27.439  16.908   8.616  0.00  0.00    -0.418 N 
HETATM   19  H   UNK N   1      27.888  16.183   8.058  0.00  0.00     0.150 HD
HETATM   20  H   UNK N   1      26.526  16.733   9.038  0.00  0.00     0.150 HD
ENDBRANCH  13  18
ENDBRANCH  12  13
ENDBRANCH  11  12
ENDBRANCH   9  11
BRANCH   9  21
HETATM   21  O   UNK N   1      29.633  18.293   4.323  0.00  0.00    -0.350 OA
HETATM   22  H   UNK N   1      29.504  17.977   3.450  0.00  0.00     0.219 HD
ENDBRANCH   9  21
ENDBRANCH   4   8
ENDBRANCH   1   4
BRANCH   1  23
HETATM   23  O   UNK N   1      34.188  17.669   6.044  0.00  0.00    -0.348 OA
HETATM   24  H   UNK N   1      34.811  17.509   5.362  0.00  0.00     0.219 HD
ENDBRANCH   1  23
BRANCH   2  25
HETATM   25  C   UNK N   1      33.831  16.976   8.736  0.00  0.00     0.205 C 
BRANCH  25  26
HETATM   26  C   UNK N   1      33.712  16.006   9.879  0.00  0.00     0.129 C 
HETATM   27  N   UNK N   1      34.727  15.847  10.655  0.00  0.00    -0.373 N 
ATOM     28  HN  UNK N   1      35.543  16.442  10.514  1.00  0.00     0.161 HD
BRANCH  27  29
HETATM   29  C   UNK N   1      34.765  14.866  11.717  0.00  0.00     0.123 C 
BRANCH  29  30
HETATM   30  C   UNK N   1      36.185  14.541  12.154  0.00  0.00     0.039 C 
BRANCH  30  31
HETATM   31  C   UNK N   1      36.201  14.235  13.645  0.00  0.00     0.115 C 
BRANCH  31  32
HETATM   32  N   UNK N   1      37.155  13.174  13.928  0.00  0.00    -0.421 N 
HETATM   33  H   UNK N   1      37.920  12.875  13.324  0.00  0.00     0.153 HD
BRANCH  32  34
HETATM   34  C   UNK N   1      36.819  12.619  15.224  0.00  0.00     0.113 C 
BRANCH  34  35
HETATM   35  C   UNK N   1      35.392  13.004  15.555  0.00  0.00     0.021 C 
BRANCH  35  36
HETATM   36  C   UNK N   1      35.066  12.634  16.984  0.00  0.00     0.021 C 
BRANCH  36  37
HETATM   37  C   UNK N   1      35.225  13.865  17.851  0.00  0.00     0.111 C 
BRANCH  37  38
HETATM   38  N   UNK N   1      35.192  13.484  19.250  0.00  0.00    -0.430 N 
HETATM   39  H   UNK N   1      35.238  12.500  19.512  0.00  0.00     0.149 HD
HETATM   40  H   UNK N   1      35.122  14.202  19.972  0.00  0.00     0.149 HD
ENDBRANCH  37  38
ENDBRANCH  36  37
ENDBRANCH  35  36
ENDBRANCH  34  35
ENDBRANCH  32  34
ENDBRANCH  31  32
ENDBRANCH  30  31
ENDBRANCH  29  30
ENDBRANCH  27  29
BRANCH  26  41
HETATM   41  O   UNK N   1      32.584  15.282  10.058  0.00  0.00    -0.348 OA
HETATM   42  H   UNK N   1      32.273  14.967  10.884  0.00  0.00     0.219 HD
ENDBRANCH  26  41
ENDBRANCH  25  26
ENDBRANCH   2  25
TORSDOF 24
ENDMDL
MODEL 3
REMARK VINA RESULT:      -5.5      5.944     11.221
REMARK  24 active torsions:
REMARK  status: ('A' for Active; 'I' for Inactive)
REMARK    1  A    between atoms: C_2  and  C_1 
REMARK    2  A    between atoms: C_6  and  C_1 
REMARK    3  A    between atoms: C_7  and  C_2 
REMARK    4  A    between atoms: C_8  and  C_3 
REMARK    5  A    between atoms: C_9  and  C_3 
REMARK    6  A    between atoms: C_5  and  C_4 
REMARK    7  A    between atoms: C_12  and  C_4 
REMARK    8  A    between atoms: C_14  and  C_5 
REMARK    9  A    between atoms: N_18  and  C_6 
REMARK   10  A    between atoms: N_20  and  C_7 
REMARK   11  A    between atoms: N_20  and  C_8 
REMARK   12  A    between atoms: N_21  and  C_9 
REMARK   13  A    between atoms: C_15  and  C_10 
REMARK   14  A    between atoms: N_23  and  C_10 
REMARK   15  A    between atoms: C_13  and  C_11 
REMARK   16  A    between atoms: S_32  and  C_11 
REMARK   17  A    between atoms: C_17  and  C_12 
REMARK   18  A    between atoms: C_12  and  N_19 
REMARK   19  A    between atoms: C_16  and  C_13 
REMARK   20  A    between atoms: C_13  and  N_25 
REMARK   21  A    between atoms: C_14  and  O_27 
REMARK   22  A    between atoms: O_28  and  C_15 
REMARK   23  A    between atoms: O_29  and  C_16 
REMARK   24  A    between atoms: O_31  and  C_17 
ROOT
HETATM    1  C   UNK N   1      31.506  17.081   9.081  0.00  0.00     0.135 C 
HETATM    2  N   UNK N   1      30.983  18.260   8.967  0.00  0.00    -0.365 N 
ATOM      3  HN  UNK N   1      31.462  18.940   8.376  1.00  0.00     0.161 HD
ENDROOT
BRANCH   1   4
HETATM    4  C   UNK N   1      32.838  16.804   8.433  0.00  0.00     0.166 C 
BRANCH   4   5
HETATM    5  C   UNK N   1      33.448  15.596   9.139  0.00  0.00     0.104 C 
BRANCH   5   6
HETATM    6  S   UNK N   1      33.204  14.058   8.196  0.00  0.00    -0.180 SA
HETATM    7  H   UNK N   1      33.529  13.954   6.880  0.00  0.00     0.101 HD
ENDBRANCH   5   6
ENDBRANCH   4   5
BRANCH   4   8
HETATM    8  N   UNK N   1      32.713  16.517   7.013  0.00  0.00    -0.362 N 
HETATM    9  C   UNK N   1      33.488  17.028   6.116  0.00  0.00     0.111 C 
ATOM     10  HN  UNK N   1      31.977  15.879   6.711  1.00  0.00     0.162 HD
BRANCH   9  11
HETATM   11  C   UNK N   1      33.340  16.593   4.693  0.00  0.00     0.086 C 
BRANCH  11  12
HETATM   12  C   UNK N   1      32.392  17.489   3.906  0.00  0.00     0.043 C 
BRANCH  12  13
HETATM   13  C   UNK N   1      31.022  16.827   3.746  0.00  0.00     0.173 C 
BRANCH  13  14
HETATM   14  C   UNK N   1      30.056  17.419   4.738  0.00  0.00     0.163 C 
HETATM   15  O   UNK N   1      29.900  16.910   5.837  0.00  0.00    -0.648 OA
BRANCH  14  16
HETATM   16  O   UNK N   1      29.348  18.515   4.407  0.00  0.00    -0.775 OA
HETATM   17  H   UNK N   1      29.005  19.078   5.073  0.00  0.00     0.167 HD
ENDBRANCH  14  16
ENDBRANCH  13  14
BRANCH  13  18
HETATM   18  N   UNK N   1      31.141  15.389   3.947  0.00  0.00    -0.418 N 
HETATM   19  H   UNK N   1      31.397  14.779   3.170  0.00  0.00     0.150 HD
HETATM   20  H   UNK N   1      30.967  14.989   4.870  0.00  0.00     0.150 HD
ENDBRANCH  13  18
ENDBRANCH  12  13
ENDBRANCH  11  12
ENDBRANCH   9  11
BRANCH   9  21
HETATM   21  O   UNK N   1      34.477  17.883   6.459  0.00  0.00    -0.350 OA
HETATM   22  H   UNK N   1      35.376  17.853   6.720  0.00  0.00     0.219 HD
ENDBRANCH   9  21
ENDBRANCH   4   8
ENDBRANCH   1   4
BRANCH   1  23
HETATM   23  O   UNK N   1      30.888  16.118   9.799  0.00  0.00    -0.348 OA
HETATM   24  H   UNK N   1      30.886  15.791  10.677  0.00  0.00     0.219 HD
ENDBRANCH   1  23
BRANCH   2  25
HETATM   25  C   UNK N   1      29.761  18.678   9.627  0.00  0.00     0.205 C 
BRANCH  25  26
HETATM   26  C   UNK N   1      28.518  18.584   8.785  0.00  0.00     0.129 C 
HETATM   27  N   UNK N   1      28.537  19.099   7.605  0.00  0.00    -0.373 N 
ATOM     28  HN  UNK N   1      29.416  19.480   7.256  1.00  0.00     0.161 HD
BRANCH  27  29
HETATM   29  C   UNK N   1      27.372  19.164   6.751  0.00  0.00     0.123 C 
BRANCH  29  30
HETATM   30  C   UNK N   1      26.862  20.585   6.574  0.00  0.00     0.039 C 
BRANCH  30  31
HETATM   31  C   UNK N   1      26.881  20.953   5.097  0.00  0.00     0.115 C 
BRANCH  31  32
HETATM   32  N   UNK N   1      26.706  19.762   4.282  0.00  0.00    -0.421 N 
HETATM   33  H   UNK N   1      27.080  18.835   4.482  0.00  0.00     0.153 HD
BRANCH  32  34
HETATM   34  C   UNK N   1      25.901  20.134   3.134  0.00  0.00     0.113 C 
BRANCH  34  35
HETATM   35  C   UNK N   1      24.478  20.356   3.597  0.00  0.00     0.021 C 
BRANCH  35  36
HETATM   36  C   UNK N   1      23.799  19.033   3.867  0.00  0.00     0.021 C 
BRANCH  36  37
HETATM   37  C   UNK N   1      22.338  19.153   3.489  0.00  0.00     0.111 C 
BRANCH  37  38
HETATM   38  N   UNK N   1      21.512  18.955   4.665  0.00  0.00    -0.430 N 
HETATM   39  H   UNK N   1      20.630  19.457   4.760  0.00  0.00     0.149 HD
HETATM   40  H   UNK N   1      21.814  18.310   5.397  0.00  0.00     0.149 HD
ENDBRANCH  37  38
ENDBRANCH  36  37
ENDBRANCH  35  36
ENDBRANCH  34  35
ENDBRANCH  32  34
ENDBRANCH  31  32
ENDBRANCH  30  31
ENDBRANCH  29  30
ENDBRANCH  27  29
BRANCH  26  41
HETATM   41  O   UNK N   1      27.393  18.015   9.274  0.00  0.00    -0.348 OA
HETATM   42  H   UNK N   1      26.648  18.485   9.592  0.00  0.00     0.219 HD
ENDBRANCH  26  41
ENDBRANCH  25  26
ENDBRANCH   2  25
TORSDOF 24
ENDMDL
MODEL 4
REMARK VINA RESULT:      -5.5     10.900     15.133
REMARK  24 active torsions:
REMARK  status: ('A' for Active; 'I' for Inactive)
REMARK    1  A    between atoms: C_2  and  C_1 
REMARK    2  A    between atoms: C_6  and  C_1 
REMARK    3  A    between atoms: C_7  and  C_2 
REMARK    4  A    between atoms: C_8  and  C_3 
REMARK    5  A    between atoms: C_9  and  C_3 
REMARK    6  A    between atoms: C_5  and  C_4 
REMARK    7  A    between atoms: C_12  and  C_4 
REMARK    8  A    between atoms: C_14  and  C_5 
REMARK    9  A    between atoms: N_18  and  C_6 
REMARK   10  A    between atoms: N_20  and  C_7 
REMARK   11  A    between atoms: N_20  and  C_8 
REMARK   12  A    between atoms: N_21  and  C_9 
REMARK   13  A    between atoms: C_15  and  C_10 
REMARK   14  A    between atoms: N_23  and  C_10 
REMARK   15  A    between atoms: C_13  and  C_11 
REMARK   16  A    between atoms: S_32  and  C_11 
REMARK   17  A    between atoms: C_17  and  C_12 
REMARK   18  A    between atoms: C_12  and  N_19 
REMARK   19  A    between atoms: C_16  and  C_13 
REMARK   20  A    between atoms: C_13  and  N_25 
REMARK   21  A    between atoms: C_14  and  O_27 
REMARK   22  A    between atoms: O_28  and  C_15 
REMARK   23  A    between atoms: O_29  and  C_16 
REMARK   24  A    between atoms: O_31  and  C_17 
ROOT
HETATM    1  C   UNK N   1      20.319  17.176   3.827  0.00  0.00     0.135 C 
HETATM    2  N   UNK N   1      21.079  18.224   3.842  0.00  0.00    -0.365 N 
ATOM      3  HN  UNK N   1      21.963  18.166   4.347  1.00  0.00     0.161 HD
ENDROOT
BRANCH   1   4
HETATM    4  C   UNK N   1      20.718  15.969   4.638  0.00  0.00     0.166 C 
BRANCH   4   5
HETATM    5  C   UNK N   1      22.072  15.495   4.115  0.00  0.00     0.104 C 
BRANCH   5   6
HETATM    6  S   UNK N   1      21.933  14.697   2.485  0.00  0.00    -0.180 SA
HETATM    7  H   UNK N   1      21.441  13.439   2.331  0.00  0.00     0.101 HD
ENDBRANCH   5   6
ENDBRANCH   4   5
BRANCH   4   8
HETATM    8  N   UNK N   1      20.832  16.269   6.056  0.00  0.00    -0.362 N 
HETATM    9  C   UNK N   1      20.472  15.448   6.985  0.00  0.00     0.111 C 
ATOM     10  HN  UNK N   1      21.215  17.174   6.331  1.00  0.00     0.162 HD
BRANCH   9  11
HETATM   11  C   UNK N   1      20.720  15.811   8.414  0.00  0.00     0.086 C 
BRANCH  11  12
HETATM   12  C   UNK N   1      19.434  16.122   9.167  0.00  0.00     0.043 C 
BRANCH  12  13
HETATM   13  C   UNK N   1      18.844  17.459   8.714  0.00  0.00     0.173 C 
BRANCH  13  14
HETATM   14  C   UNK N   1      19.870  18.547   8.885  0.00  0.00     0.163 C 
HETATM   15  O   UNK N   1      20.007  19.113   9.958  0.00  0.00    -0.648 OA
BRANCH  14  16
HETATM   16  O   UNK N   1      20.639  18.909   7.841  0.00  0.00    -0.775 OA
HETATM   17  H   UNK N   1      21.393  18.405   7.608  0.00  0.00     0.167 HD
ENDBRANCH  14  16
ENDBRANCH  13  14
BRANCH  13  18
HETATM   18  N   UNK N   1      17.648  17.760   9.489  0.00  0.00    -0.418 N 
HETATM   19  H   UNK N   1      17.266  18.706   9.501  0.00  0.00     0.150 HD
HETATM   20  H   UNK N   1      17.190  17.020  10.023  0.00  0.00     0.150 HD
ENDBRANCH  13  18
ENDBRANCH  12  13
ENDBRANCH  11  12
ENDBRANCH   9  11
BRANCH   9  21
HETATM   21  O   UNK N   1      19.954  14.238   6.678  0.00  0.00    -0.350 OA
HETATM   22  H   UNK N   1      19.970  13.622   5.972  0.00  0.00     0.219 HD
ENDBRANCH   9  21
ENDBRANCH   4   8
ENDBRANCH   1   4
BRANCH   1  23
HETATM   23  O   UNK N   1      19.164  17.170   3.127  0.00  0.00    -0.348 OA
HETATM   24  H   UNK N   1      18.633  16.558   2.656  0.00  0.00     0.219 HD
ENDBRANCH   1  23
BRANCH   2  25
HETATM   25  C   UNK N   1      20.753  19.478   3.190  0.00  0.00     0.205 C 
BRANCH  25  26
HETATM   26  C   UNK N   1      21.911  20.417   2.999  0.00  0.00     0.129 C 
HETATM   27  N   UNK N   1      23.104  19.955   3.146  0.00  0.00    -0.373 N 
ATOM     28  HN  UNK N   1      23.221  18.955   3.308  1.00  0.00     0.161 HD
BRANCH  27  29
HETATM   29  C   UNK N   1      24.287  20.786   3.094  0.00  0.00     0.123 C 
BRANCH  29  30
HETATM   30  C   UNK N   1      25.545  19.985   2.797  0.00  0.00     0.039 C 
BRANCH  30  31
HETATM   31  C   UNK N   1      25.990  19.251   4.054  0.00  0.00     0.115 C 
BRANCH  31  32
HETATM   32  N   UNK N   1      26.138  20.188   5.156  0.00  0.00    -0.421 N 
HETATM   33  H   UNK N   1      25.459  20.892   5.443  0.00  0.00     0.153 HD
BRANCH  32  34
HETATM   34  C   UNK N   1      27.428  19.939   5.770  0.00  0.00     0.113 C 
BRANCH  34  35
HETATM   35  C   UNK N   1      27.986  18.649   5.207  0.00  0.00     0.021 C 
BRANCH  35  36
HETATM   36  C   UNK N   1      28.851  17.957   6.236  0.00  0.00     0.021 C 
BRANCH  36  37
HETATM   37  C   UNK N   1      28.002  17.644   7.449  0.00  0.00     0.111 C 
BRANCH  37  38
HETATM   38  N   UNK N   1      26.994  16.661   7.099  0.00  0.00    -0.430 N 
HETATM   39  H   UNK N   1      26.013  16.933   7.045  0.00  0.00     0.149 HD
HETATM   40  H   UNK N   1      27.268  15.697   6.906  0.00  0.00     0.149 HD
ENDBRANCH  37  38
ENDBRANCH  36  37
ENDBRANCH  35  36
ENDBRANCH  34  35
ENDBRANCH  32  34
ENDBRANCH  31  32
ENDBRANCH  30  31
ENDBRANCH  29  30
ENDBRANCH  27  29
BRANCH  26  41
HETATM   41  O   UNK N   1      21.705  21.726   2.727  0.00  0.00    -0.348 OA
HETATM   42  H   UNK N   1      22.012  22.170   1.961  0.00  0.00     0.219 HD
ENDBRANCH  26  41
ENDBRANCH  25  26
ENDBRANCH   2  25
TORSDOF 24
ENDMDL
MODEL 5
REMARK VINA RESULT:      -5.5      2.559     10.231
REMARK  24 active torsions:
REMARK  status: ('A' for Active; 'I' for Inactive)
REMARK    1  A    between atoms: C_2  and  C_1 
REMARK    2  A    between atoms: C_6  and  C_1 
REMARK    3  A    between atoms: C_7  and  C_2 
REMARK    4  A    between atoms: C_8  and  C_3 
REMARK    5  A    between atoms: C_9  and  C_3 
REMARK    6  A    between atoms: C_5  and  C_4 
REMARK    7  A    between atoms: C_12  and  C_4 
REMARK    8  A    between atoms: C_14  and  C_5 
REMARK    9  A    between atoms: N_18  and  C_6 
REMARK   10  A    between atoms: N_20  and  C_7 
REMARK   11  A    between atoms: N_20  and  C_8 
REMARK   12  A    between atoms: N_21  and  C_9 
REMARK   13  A    between atoms: C_15  and  C_10 
REMARK   14  A    between atoms: N_23  and  C_10 
REMARK   15  A    between atoms: C_13  and  C_11 
REMARK   16  A    between atoms: S_32  and  C_11 
REMARK   17  A    between atoms: C_17  and  C_12 
REMARK   18  A    between atoms: C_12  and  N_19 
REMARK   19  A    between atoms: C_16  and  C_13 
REMARK   20  A    between atoms: C_13  and  N_25 
REMARK   21  A    between atoms: C_14  and  O_27 
REMARK   22  A    between atoms: O_28  and  C_15 
REMARK   23  A    between atoms: O_29  and  C_16 
REMARK   24  A    between atoms: O_31  and  C_17 
ROOT
HETATM    1  C   UNK N   1      36.180  15.146  10.837  0.00  0.00     0.135 C 
HETATM    2  N   UNK N   1      35.026  15.388  10.300  0.00  0.00    -0.365 N 
ATOM      3  HN  UNK N   1      34.320  14.653  10.335  1.00  0.00     0.161 HD
ENDROOT
BRANCH   1   4
HETATM    4  C   UNK N   1      36.461  13.769  11.381  0.00  0.00     0.166 C 
BRANCH   4   5
HETATM    5  C   UNK N   1      37.721  13.253  10.693  0.00  0.00     0.104 C 
BRANCH   5   6
HETATM    6  S   UNK N   1      37.491  11.582  10.008  0.00  0.00    -0.180 SA
HETATM    7  H   UNK N   1      38.365  10.571  10.252  0.00  0.00     0.101 HD
ENDBRANCH   5   6
ENDBRANCH   4   5
BRANCH   4   8
HETATM    8  N   UNK N   1      36.670  13.776  12.820  0.00  0.00    -0.362 N 
HETATM    9  C   UNK N   1      35.779  13.381  13.667  0.00  0.00     0.111 C 
ATOM     10  HN  UNK N   1      37.565  14.110  13.178  1.00  0.00     0.162 HD
BRANCH   9  11
HETATM   11  C   UNK N   1      36.127  13.336  15.121  0.00  0.00     0.086 C 
BRANCH  11  12
HETATM   12  C   UNK N   1      34.918  13.571  16.017  0.00  0.00     0.043 C 
BRANCH  12  13
HETATM   13  C   UNK N   1      34.970  12.671  17.253  0.00  0.00     0.173 C 
BRANCH  13  14
HETATM   14  C   UNK N   1      35.279  13.503  18.470  0.00  0.00     0.163 C 
HETATM   15  O   UNK N   1      35.317  12.994  19.580  0.00  0.00    -0.648 OA
BRANCH  14  16
HETATM   16  O   UNK N   1      35.504  14.823  18.337  0.00  0.00    -0.775 OA
HETATM   17  H   UNK N   1      35.891  15.163  17.554  0.00  0.00     0.167 HD
ENDBRANCH  14  16
ENDBRANCH  13  14
BRANCH  13  18
HETATM   18  N   UNK N   1      35.983  11.639  17.072  0.00  0.00    -0.418 N 
HETATM   19  H   UNK N   1      36.455  11.533  16.174  0.00  0.00     0.150 HD
HETATM   20  H   UNK N   1      36.220  11.019  17.847  0.00  0.00     0.150 HD
ENDBRANCH  13  18
ENDBRANCH  12  13
ENDBRANCH  11  12
ENDBRANCH   9  11
BRANCH   9  21
HETATM   21  O   UNK N   1      34.574  12.935  13.250  0.00  0.00    -0.350 OA
HETATM   22  H   UNK N   1      33.753  13.284  12.963  0.00  0.00     0.219 HD
ENDBRANCH   9  21
ENDBRANCH   4   8
ENDBRANCH   1   4
BRANCH   1  23
HETATM   23  O   UNK N   1      37.136  16.099  10.878  0.00  0.00    -0.348 OA
HETATM   24  H   UNK N   1      37.889  16.315  11.392  0.00  0.00     0.219 HD
ENDBRANCH   1  23
BRANCH   2  25
HETATM   25  C   UNK N   1      34.674  16.637   9.652  0.00  0.00     0.205 C 
BRANCH  25  26
HETATM   26  C   UNK N   1      33.434  16.586   8.803  0.00  0.00     0.129 C 
HETATM   27  N   UNK N   1      32.488  17.424   9.050  0.00  0.00    -0.373 N 
ATOM     28  HN  UNK N   1      32.647  18.140   9.758  1.00  0.00     0.161 HD
BRANCH  27  29
HETATM   29  C   UNK N   1      31.210  17.398   8.373  0.00  0.00     0.123 C 
BRANCH  29  30
HETATM   30  C   UNK N   1      30.188  18.313   9.029  0.00  0.00     0.039 C 
BRANCH  30  31
HETATM   31  C   UNK N   1      28.811  17.667   8.965  0.00  0.00     0.115 C 
BRANCH  31  32
HETATM   32  N   UNK N   1      27.787  18.686   8.800  0.00  0.00    -0.421 N 
HETATM   33  H   UNK N   1      27.039  18.900   9.458  0.00  0.00     0.153 HD
BRANCH  32  34
HETATM   34  C   UNK N   1      28.026  19.342   7.529  0.00  0.00     0.113 C 
BRANCH  34  35
HETATM   35  C   UNK N   1      27.724  18.359   6.418  0.00  0.00     0.021 C 
BRANCH  35  36
HETATM   36  C   UNK N   1      28.421  18.776   5.143  0.00  0.00     0.021 C 
BRANCH  36  37
HETATM   37  C   UNK N   1      29.451  17.724   4.790  0.00  0.00     0.111 C 
BRANCH  37  38
HETATM   38  N   UNK N   1      29.247  17.281   3.424  0.00  0.00    -0.430 N 
HETATM   39  H   UNK N   1      29.074  17.963   2.686  0.00  0.00     0.149 HD
HETATM   40  H   UNK N   1      29.276  16.285   3.201  0.00  0.00     0.149 HD
ENDBRANCH  37  38
ENDBRANCH  36  37
ENDBRANCH  35  36
ENDBRANCH  34  35
ENDBRANCH  32  34
ENDBRANCH  31  32
ENDBRANCH  30  31
ENDBRANCH  29  30
ENDBRANCH  27  29
BRANCH  26  41
HETATM   41  O   UNK N   1      33.295  15.652   7.835  0.00  0.00    -0.348 OA
HETATM   42  H   UNK N   1      33.603  15.741   6.954  0.00  0.00     0.219 HD
ENDBRANCH  26  41
ENDBRANCH  25  26
ENDBRANCH   2  25
TORSDOF 24
ENDMDL
MODEL 6
REMARK VINA RESULT:      -5.4     11.641     16.171
REMARK  24 active torsions:
REMARK  status: ('A' for Active; 'I' for Inactive)
REMARK    1  A    between atoms: C_2  and  C_1 
REMARK    2  A    between atoms: C_6  and  C_1 
REMARK    3  A    between atoms: C_7  and  C_2 
REMARK    4  A    between atoms: C_8  and  C_3 
REMARK    5  A    between atoms: C_9  and  C_3 
REMARK    6  A    between atoms: C_5  and  C_4 
REMARK    7  A    between atoms: C_12  and  C_4 
REMARK    8  A    between atoms: C_14  and  C_5 
REMARK    9  A    between atoms: N_18  and  C_6 
REMARK   10  A    between atoms: N_20  and  C_7 
REMARK   11  A    between atoms: N_20  and  C_8 
REMARK   12  A    between atoms: N_21  and  C_9 
REMARK   13  A    between atoms: C_15  and  C_10 
REMARK   14  A    between atoms: N_23  and  C_10 
REMARK   15  A    between atoms: C_13  and  C_11 
REMARK   16  A    between atoms: S_32  and  C_11 
REMARK   17  A    between atoms: C_17  and  C_12 
REMARK   18  A    between atoms: C_12  and  N_19 
REMARK   19  A    between atoms: C_16  and  C_13 
REMARK   20  A    between atoms: C_13  and  N_25 
REMARK   21  A    between atoms: C_14  and  O_27 
REMARK   22  A    between atoms: O_28  and  C_15 
REMARK   23  A    between atoms: O_29  and  C_16 
REMARK   24  A    between atoms: O_31  and  C_17 
ROOT
HETATM    1  C   UNK N   1      20.842  14.463   9.486  0.00  0.00     0.135 C 
HETATM    2  N   UNK N   1      21.052  15.549   8.812  0.00  0.00    -0.365 N 
ATOM      3  HN  UNK N   1      22.010  15.761   8.535  1.00  0.00     0.161 HD
ENDROOT
BRANCH   1   4
HETATM    4  C   UNK N   1      22.021  13.630   9.919  0.00  0.00     0.166 C 
BRANCH   4   5
HETATM    5  C   UNK N   1      21.473  12.406  10.649  0.00  0.00     0.104 C 
BRANCH   5   6
HETATM    6  S   UNK N   1      22.501  11.946  12.079  0.00  0.00    -0.180 SA
HETATM    7  H   UNK N   1      23.568  12.689  12.475  0.00  0.00     0.101 HD
ENDBRANCH   5   6
ENDBRANCH   4   5
BRANCH   4   8
HETATM    8  N   UNK N   1      22.832  13.193   8.794  0.00  0.00    -0.362 N 
HETATM    9  C   UNK N   1      24.121  13.134   8.830  0.00  0.00     0.111 C 
ATOM     10  HN  UNK N   1      22.358  12.919   7.933  1.00  0.00     0.162 HD
BRANCH   9  11
HETATM   11  C   UNK N   1      24.858  12.578   7.653  0.00  0.00     0.086 C 
BRANCH  11  12
HETATM   12  C   UNK N   1      25.416  13.668   6.748  0.00  0.00     0.043 C 
BRANCH  12  13
HETATM   13  C   UNK N   1      24.470  13.947   5.579  0.00  0.00     0.173 C 
BRANCH  13  14
HETATM   14  C   UNK N   1      23.493  15.025   5.966  0.00  0.00     0.163 C 
HETATM   15  O   UNK N   1      22.295  14.792   6.020  0.00  0.00    -0.648 OA
BRANCH  14  16
HETATM   16  O   UNK N   1      23.942  16.263   6.246  0.00  0.00    -0.775 OA
HETATM   17  H   UNK N   1      23.528  16.780   6.909  0.00  0.00     0.167 HD
ENDBRANCH  14  16
ENDBRANCH  13  14
BRANCH  13  18
HETATM   18  N   UNK N   1      23.763  12.726   5.214  0.00  0.00    -0.418 N 
HETATM   19  H   UNK N   1      22.972  12.402   5.771  0.00  0.00     0.150 HD
HETATM   20  H   UNK N   1      24.060  12.193   4.396  0.00  0.00     0.150 HD
ENDBRANCH  13  18
ENDBRANCH  12  13
ENDBRANCH  11  12
ENDBRANCH   9  11
BRANCH   9  21
HETATM   21  O   UNK N   1      24.801  13.489   9.942  0.00  0.00    -0.350 OA
HETATM   22  H   UNK N   1      25.382  14.168  10.227  0.00  0.00     0.219 HD
ENDBRANCH   9  21
ENDBRANCH   4   8
ENDBRANCH   1   4
BRANCH   1  23
HETATM   23  O   UNK N   1      19.589  14.095   9.831  0.00  0.00    -0.348 OA
HETATM   24  H   UNK N   1      18.942  14.322  10.469  0.00  0.00     0.219 HD
ENDBRANCH   1  23
BRANCH   2  25
HETATM   25  C   UNK N   1      20.012  16.485   8.428  0.00  0.00     0.205 C 
BRANCH  25  26
HETATM   26  C   UNK N   1      20.467  17.616   7.548  0.00  0.00     0.129 C 
HETATM   27  N   UNK N   1      20.876  17.340   6.358  0.00  0.00    -0.373 N 
ATOM     28  HN  UNK N   1      20.802  16.377   6.031  1.00  0.00     0.161 HD
BRANCH  27  29
HETATM   29  C   UNK N   1      21.436  18.328   5.464  0.00  0.00     0.123 C 
BRANCH  29  30
HETATM   30  C   UNK N   1      21.450  17.860   4.018  0.00  0.00     0.039 C 
BRANCH  30  31
HETATM   31  C   UNK N   1      20.209  18.375   3.304  0.00  0.00     0.115 C 
BRANCH  31  32
HETATM   32  N   UNK N   1      19.321  17.269   2.982  0.00  0.00    -0.421 N 
HETATM   33  H   UNK N   1      18.302  17.293   2.988  0.00  0.00     0.153 HD
BRANCH  32  34
HETATM   34  C   UNK N   1      20.151  16.126   2.652  0.00  0.00     0.113 C 
BRANCH  34  35
HETATM   35  C   UNK N   1      20.031  15.858   1.167  0.00  0.00     0.021 C 
BRANCH  35  36
HETATM   36  C   UNK N   1      19.735  14.397   0.918  0.00  0.00     0.021 C 
BRANCH  36  37
HETATM   37  C   UNK N   1      18.437  14.293   0.145  0.00  0.00     0.111 C 
BRANCH  37  38
HETATM   38  N   UNK N   1      18.027  15.611  -0.299  0.00  0.00    -0.430 N 
HETATM   39  H   UNK N   1      18.713  16.253  -0.694  0.00  0.00     0.149 HD
HETATM   40  H   UNK N   1      17.050  15.896  -0.217  0.00  0.00     0.149 HD
ENDBRANCH  37  38
ENDBRANCH  36  37
ENDBRANCH  35  36
ENDBRANCH  34  35
ENDBRANCH  32  34
ENDBRANCH  31  32
ENDBRANCH  30  31
ENDBRANCH  29  30
ENDBRANCH  27  29
BRANCH  26  41
HETATM   41  O   UNK N   1      20.490  18.886   8.010  0.00  0.00    -0.348 OA
HETATM   42  H   UNK N   1      20.216  19.640   7.525  0.00  0.00     0.219 HD
ENDBRANCH  26  41
ENDBRANCH  25  26
ENDBRANCH   2  25
TORSDOF 24
ENDMDL
MODEL 7
REMARK VINA RESULT:      -5.4      2.471      8.737
REMARK  24 active torsions:
REMARK  status: ('A' for Active; 'I' for Inactive)
REMARK    1  A    between atoms: C_2  and  C_1 
REMARK    2  A    between atoms: C_6  and  C_1 
REMARK    3  A    between atoms: C_7  and  C_2 
REMARK    4  A    between atoms: C_8  and  C_3 
REMARK    5  A    between atoms: C_9  and  C_3 
REMARK    6  A    between atoms: C_5  and  C_4 
REMARK    7  A    between atoms: C_12  and  C_4 
REMARK    8  A    between atoms: C_14  and  C_5 
REMARK    9  A    between atoms: N_18  and  C_6 
REMARK   10  A    between atoms: N_20  and  C_7 
REMARK   11  A    between atoms: N_20  and  C_8 
REMARK   12  A    between atoms: N_21  and  C_9 
REMARK   13  A    between atoms: C_15  and  C_10 
REMARK   14  A    between atoms: N_23  and  C_10 
REMARK   15  A    between atoms: C_13  and  C_11 
REMARK   16  A    between atoms: S_32  and  C_11 
REMARK   17  A    between atoms: C_17  and  C_12 
REMARK   18  A    between atoms: C_12  and  N_19 
REMARK   19  A    between atoms: C_16  and  C_13 
REMARK   20  A    between atoms: C_13  and  N_25 
REMARK   21  A    between atoms: C_14  and  O_27 
REMARK   22  A    between atoms: O_28  and  C_15 
REMARK   23  A    between atoms: O_29  and  C_16 
REMARK   24  A    between atoms: O_31  and  C_17 
ROOT
HETATM    1  C   UNK N   1      36.911  14.301  10.590  0.00  0.00     0.135 C 
HETATM    2  N   UNK N   1      35.839  14.966  10.880  0.00  0.00    -0.365 N 
ATOM      3  HN  UNK N   1      35.046  14.451  11.262  1.00  0.00     0.161 HD
ENDROOT
BRANCH   1   4
HETATM    4  C   UNK N   1      36.902  12.800  10.725  0.00  0.00     0.166 C 
BRANCH   4   5
HETATM    5  C   UNK N   1      38.326  12.309  10.481  0.00  0.00     0.104 C 
BRANCH   5   6
HETATM    6  S   UNK N   1      38.509  11.525   8.848  0.00  0.00    -0.180 SA
HETATM    7  H   UNK N   1      37.445  11.279   8.038  0.00  0.00     0.101 HD
ENDBRANCH   5   6
ENDBRANCH   4   5
BRANCH   4   8
HETATM    8  N   UNK N   1      36.466  12.367  12.043  0.00  0.00    -0.362 N 
HETATM    9  C   UNK N   1      35.242  12.062  12.320  0.00  0.00     0.111 C 
ATOM     10  HN  UNK N   1      37.162  12.301  12.786  1.00  0.00     0.162 HD
BRANCH   9  11
HETATM   11  C   UNK N   1      34.914  11.534  13.680  0.00  0.00     0.086 C 
BRANCH  11  12
HETATM   12  C   UNK N   1      35.943  11.939  14.727  0.00  0.00     0.043 C 
BRANCH  12  13
HETATM   13  C   UNK N   1      35.595  13.296  15.340  0.00  0.00     0.173 C 
BRANCH  13  14
HETATM   14  C   UNK N   1      36.627  14.314  14.934  0.00  0.00     0.163 C 
HETATM   15  O   UNK N   1      36.575  14.854  13.840  0.00  0.00    -0.648 OA
BRANCH  14  16
HETATM   16  O   UNK N   1      37.626  14.626  15.781  0.00  0.00    -0.775 OA
HETATM   17  H   UNK N   1      37.962  15.500  15.819  0.00  0.00     0.167 HD
ENDBRANCH  14  16
ENDBRANCH  13  14
BRANCH  13  18
HETATM   18  N   UNK N   1      35.535  13.183  16.791  0.00  0.00    -0.418 N 
HETATM   19  H   UNK N   1      34.910  12.506  17.230  0.00  0.00     0.150 HD
HETATM   20  H   UNK N   1      36.121  13.783  17.372  0.00  0.00     0.150 HD
ENDBRANCH  13  18
ENDBRANCH  12  13
ENDBRANCH  11  12
ENDBRANCH   9  11
BRANCH   9  21
HETATM   21  O   UNK N   1      34.278  12.136  11.376  0.00  0.00    -0.350 OA
HETATM   22  H   UNK N   1      33.913  12.769  10.789  0.00  0.00     0.219 HD
ENDBRANCH   9  21
ENDBRANCH   4   8
ENDBRANCH   1   4
BRANCH   1  23
HETATM   23  O   UNK N   1      38.015  14.933  10.136  0.00  0.00    -0.348 OA
HETATM   24  H   UNK N   1      38.918  14.740   9.975  0.00  0.00     0.219 HD
ENDBRANCH   1  23
BRANCH   2  25
HETATM   25  C   UNK N   1      35.691  16.397  10.693  0.00  0.00     0.205 C 
BRANCH  25  26
HETATM   26  C   UNK N   1      34.595  16.807   9.749  0.00  0.00     0.129 C 
HETATM   27  N   UNK N   1      34.827  17.765   8.921  0.00  0.00    -0.373 N 
ATOM     28  HN  UNK N   1      35.768  18.156   8.883  1.00  0.00     0.161 HD
BRANCH  27  29
HETATM   29  C   UNK N   1      33.818  18.315   8.043  0.00  0.00     0.123 C 
BRANCH  29  30
HETATM   30  C   UNK N   1      33.737  17.576   6.717  0.00  0.00     0.039 C 
BRANCH  30  31
HETATM   31  C   UNK N   1      32.298  17.156   6.455  0.00  0.00     0.115 C 
BRANCH  31  32
HETATM   32  N   UNK N   1      31.618  16.887   7.711  0.00  0.00    -0.421 N 
HETATM   33  H   UNK N   1      31.981  16.335   8.487  0.00  0.00     0.153 HD
BRANCH  32  34
HETATM   34  C   UNK N   1      30.328  17.547   7.659  0.00  0.00     0.113 C 
BRANCH  34  35
HETATM   35  C   UNK N   1      30.247  18.535   8.802  0.00  0.00     0.021 C 
BRANCH  35  36
HETATM   36  C   UNK N   1      28.916  18.416   9.509  0.00  0.00     0.021 C 
BRANCH  36  37
HETATM   37  C   UNK N   1      28.701  16.966   9.890  0.00  0.00     0.111 C 
BRANCH  37  38
HETATM   38  N   UNK N   1      29.617  16.601  10.953  0.00  0.00    -0.430 N 
HETATM   39  H   UNK N   1      29.761  15.619  11.188  0.00  0.00     0.149 HD
HETATM   40  H   UNK N   1      30.120  17.327  11.465  0.00  0.00     0.149 HD
ENDBRANCH  37  38
ENDBRANCH  36  37
ENDBRANCH  35  36
ENDBRANCH  34  35
ENDBRANCH  32  34
ENDBRANCH  31  32
ENDBRANCH  30  31
ENDBRANCH  29  30
ENDBRANCH  27  29
BRANCH  26  41
HETATM   41  O   UNK N   1      33.380  16.215   9.800  0.00  0.00    -0.348 OA
HETATM   42  H   UNK N   1      32.597  16.622  10.115  0.00  0.00     0.219 HD
ENDBRANCH  26  41
ENDBRANCH  25  26
ENDBRANCH   2  25
TORSDOF 24
ENDMDL
MODEL 8
REMARK VINA RESULT:      -5.4      2.795      4.282
REMARK  24 active torsions:
REMARK  status: ('A' for Active; 'I' for Inactive)
REMARK    1  A    between atoms: C_2  and  C_1 
REMARK    2  A    between atoms: C_6  and  C_1 
REMARK    3  A    between atoms: C_7  and  C_2 
REMARK    4  A    between atoms: C_8  and  C_3 
REMARK    5  A    between atoms: C_9  and  C_3 
REMARK    6  A    between atoms: C_5  and  C_4 
REMARK    7  A    between atoms: C_12  and  C_4 
REMARK    8  A    between atoms: C_14  and  C_5 
REMARK    9  A    between atoms: N_18  and  C_6 
REMARK   10  A    between atoms: N_20  and  C_7 
REMARK   11  A    between atoms: N_20  and  C_8 
REMARK   12  A    between atoms: N_21  and  C_9 
REMARK   13  A    between atoms: C_15  and  C_10 
REMARK   14  A    between atoms: N_23  and  C_10 
REMARK   15  A    between atoms: C_13  and  C_11 
REMARK   16  A    between atoms: S_32  and  C_11 
REMARK   17  A    between atoms: C_17  and  C_12 
REMARK   18  A    between atoms: C_12  and  N_19 
REMARK   19  A    between atoms: C_16  and  C_13 
REMARK   20  A    between atoms: C_13  and  N_25 
REMARK   21  A    between atoms: C_14  and  O_27 
REMARK   22  A    between atoms: O_28  and  C_15 
REMARK   23  A    between atoms: O_29  and  C_16 
REMARK   24  A    between atoms: O_31  and  C_17 
ROOT
HETATM    1  C   UNK N   1      35.918  14.177  12.025  0.00  0.00     0.135 C 
HETATM    2  N   UNK N   1      36.846  13.750  12.821  0.00  0.00    -0.365 N 
ATOM      3  HN  UNK N   1      37.809  14.015  12.616  1.00  0.00     0.161 HD
ENDROOT
BRANCH   1   4
HETATM    4  C   UNK N   1      36.308  14.945  10.788  0.00  0.00     0.166 C 
BRANCH   4   5
HETATM    5  C   UNK N   1      37.166  14.021   9.928  0.00  0.00     0.104 C 
BRANCH   5   6
HETATM    6  S   UNK N   1      36.205  13.243   8.592  0.00  0.00    -0.180 SA
HETATM    7  H   UNK N   1      35.871  11.925   8.610  0.00  0.00     0.101 HD
ENDBRANCH   5   6
ENDBRANCH   4   5
BRANCH   4   8
HETATM    8  N   UNK N   1      35.153  15.379  10.020  0.00  0.00    -0.362 N 
HETATM    9  C   UNK N   1      34.826  16.619   9.872  0.00  0.00     0.111 C 
ATOM     10  HN  UNK N   1      34.573  14.668   9.574  1.00  0.00     0.162 HD
BRANCH   9  11
HETATM   11  C   UNK N   1      33.676  16.967   8.981  0.00  0.00     0.086 C 
BRANCH  11  12
HETATM   12  C   UNK N   1      33.113  15.753   8.255  0.00  0.00     0.043 C 
BRANCH  12  13
HETATM   13  C   UNK N   1      32.838  16.074   6.784  0.00  0.00     0.173 C 
BRANCH  13  14
HETATM   14  C   UNK N   1      34.064  16.687   6.164  0.00  0.00     0.163 C 
HETATM   15  O   UNK N   1      34.053  17.844   5.771  0.00  0.00    -0.648 OA
BRANCH  14  16
HETATM   16  O   UNK N   1      35.184  15.952   6.029  0.00  0.00    -0.775 OA
HETATM   17  H   UNK N   1      35.886  16.037   6.643  0.00  0.00     0.167 HD
ENDBRANCH  14  16
ENDBRANCH  13  14
BRANCH  13  18
HETATM   18  N   UNK N   1      31.705  16.985   6.681  0.00  0.00    -0.418 N 
HETATM   19  H   UNK N   1      31.805  17.964   6.948  0.00  0.00     0.150 HD
HETATM   20  H   UNK N   1      30.807  16.640   6.339  0.00  0.00     0.150 HD
ENDBRANCH  13  18
ENDBRANCH  12  13
ENDBRANCH  11  12
ENDBRANCH   9  11
BRANCH   9  21
HETATM   21  O   UNK N   1      35.555  17.602  10.444  0.00  0.00    -0.350 OA
HETATM   22  H   UNK N   1      35.960  18.412  10.201  0.00  0.00     0.219 HD
ENDBRANCH   9  21
ENDBRANCH   4   8
ENDBRANCH   1   4
BRANCH   1  23
HETATM   23  O   UNK N   1      34.617  13.911  12.275  0.00  0.00    -0.348 OA
HETATM   24  H   UNK N   1      34.050  13.167  12.319  0.00  0.00     0.219 HD
ENDBRANCH   1  23
BRANCH   2  25
HETATM   25  C   UNK N   1      36.604  12.916  13.982  0.00  0.00     0.205 C 
BRANCH  25  26
HETATM   26  C   UNK N   1      36.618  13.640  15.300  0.00  0.00     0.129 C 
HETATM   27  N   UNK N   1      35.719  13.342  16.172  0.00  0.00    -0.373 N 
ATOM     28  HN  UNK N   1      35.081  12.572  15.968  1.00  0.00     0.161 HD
BRANCH  27  29
HETATM   29  C   UNK N   1      35.567  14.045  17.426  0.00  0.00     0.123 C 
BRANCH  29  30
HETATM   30  C   UNK N   1      35.201  13.115  18.572  0.00  0.00     0.039 C 
BRANCH  30  31
HETATM   31  C   UNK N   1      35.207  11.675  18.080  0.00  0.00     0.115 C 
BRANCH  31  32
HETATM   32  N   UNK N   1      35.235  10.760  19.211  0.00  0.00    -0.421 N 
HETATM   33  H   UNK N   1      35.735  10.901  20.088  0.00  0.00     0.153 HD
BRANCH  32  34
HETATM   34  C   UNK N   1      34.421   9.611  18.862  0.00  0.00     0.113 C 
BRANCH  34  35
HETATM   35  C   UNK N   1      33.697   9.142  20.105  0.00  0.00     0.021 C 
BRANCH  35  36
HETATM   36  C   UNK N   1      32.739   8.023  19.765  0.00  0.00     0.021 C 
BRANCH  36  37
HETATM   37  C   UNK N   1      31.582   8.065  20.742  0.00  0.00     0.111 C 
BRANCH  37  38
HETATM   38  N   UNK N   1      30.331   8.153  20.012  0.00  0.00    -0.430 N 
HETATM   39  H   UNK N   1      30.337   8.198  18.994  0.00  0.00     0.149 HD
HETATM   40  H   UNK N   1      29.445   8.171  20.519  0.00  0.00     0.149 HD
ENDBRANCH  37  38
ENDBRANCH  36  37
ENDBRANCH  35  36
ENDBRANCH  34  35
ENDBRANCH  32  34
ENDBRANCH  31  32
ENDBRANCH  30  31
ENDBRANCH  29  30
ENDBRANCH  27  29
BRANCH  26  41
HETATM   41  O   UNK N   1      37.524  14.614  15.546  0.00  0.00    -0.348 OA
HETATM   42  H   UNK N   1      38.011  14.706  16.340  0.00  0.00     0.219 HD
ENDBRANCH  26  41
ENDBRANCH  25  26
ENDBRANCH   2  25
TORSDOF 24
ENDMDL
MODEL 9
REMARK VINA RESULT:      -5.4     10.140     13.826
REMARK  24 active torsions:
REMARK  status: ('A' for Active; 'I' for Inactive)
REMARK    1  A    between atoms: C_2  and  C_1 
REMARK    2  A    between atoms: C_6  and  C_1 
REMARK    3  A    between atoms: C_7  and  C_2 
REMARK    4  A    between atoms: C_8  and  C_3 
REMARK    5  A    between atoms: C_9  and  C_3 
REMARK    6  A    between atoms: C_5  and  C_4 
REMARK    7  A    between atoms: C_12  and  C_4 
REMARK    8  A    between atoms: C_14  and  C_5 
REMARK    9  A    between atoms: N_18  and  C_6 
REMARK   10  A    between atoms: N_20  and  C_7 
REMARK   11  A    between atoms: N_20  and  C_8 
REMARK   12  A    between atoms: N_21  and  C_9 
REMARK   13  A    between atoms: C_15  and  C_10 
REMARK   14  A    between atoms: N_23  and  C_10 
REMARK   15  A    between atoms: C_13  and  C_11 
REMARK   16  A    between atoms: S_32  and  C_11 
REMARK   17  A    between atoms: C_17  and  C_12 
REMARK   18  A    between atoms: C_12  and  N_19 
REMARK   19  A    between atoms: C_16  and  C_13 
REMARK   20  A    between atoms: C_13  and  N_25 
REMARK   21  A    between atoms: C_14  and  O_27 
REMARK   22  A    between atoms: O_28  and  C_15 
REMARK   23  A    between atoms: O_29  and  C_16 
REMARK   24  A    between atoms: O_31  and  C_17 
ROOT
HETATM    1  C   UNK N   1      20.334  14.651   7.675  0.00  0.00     0.135 C 
HETATM    2  N   UNK N   1      20.878  14.623   8.850  0.00  0.00    -0.365 N 
ATOM      3  HN  UNK N   1      20.931  15.498   9.372  1.00  0.00     0.161 HD
ENDROOT
BRANCH   1   4
HETATM    4  C   UNK N   1      19.909  15.976   7.095  0.00  0.00     0.166 C 
BRANCH   4   5
HETATM    5  C   UNK N   1      20.041  17.022   8.199  0.00  0.00     0.104 C 
BRANCH   5   6
HETATM    6  S   UNK N   1      18.456  17.336   9.036  0.00  0.00    -0.180 SA
HETATM    7  H   UNK N   1      17.670  16.330   9.504  0.00  0.00     0.101 HD
ENDBRANCH   5   6
ENDBRANCH   4   5
BRANCH   4   8
HETATM    8  N   UNK N   1      20.730  16.370   5.961  0.00  0.00    -0.362 N 
HETATM    9  C   UNK N   1      20.245  16.642   4.796  0.00  0.00     0.111 C 
ATOM     10  HN  UNK N   1      21.739  16.436   6.093  1.00  0.00     0.162 HD
BRANCH   9  11
HETATM   11  C   UNK N   1      21.162  17.133   3.722  0.00  0.00     0.086 C 
BRANCH  11  12
HETATM   12  C   UNK N   1      20.958  18.611   3.413  0.00  0.00     0.043 C 
BRANCH  12  13
HETATM   13  C   UNK N   1      20.300  18.797   2.044  0.00  0.00     0.173 C 
BRANCH  13  14
HETATM   14  C   UNK N   1      20.779  20.082   1.424  0.00  0.00     0.163 C 
HETATM   15  O   UNK N   1      21.221  20.984   2.120  0.00  0.00    -0.648 OA
BRANCH  14  16
HETATM   16  O   UNK N   1      20.710  20.246   0.090  0.00  0.00    -0.775 OA
HETATM   17  H   UNK N   1      20.159  19.695  -0.430  0.00  0.00     0.167 HD
ENDBRANCH  14  16
ENDBRANCH  13  14
BRANCH  13  18
HETATM   18  N   UNK N   1      18.850  18.811   2.190  0.00  0.00    -0.418 N 
HETATM   19  H   UNK N   1      18.274  19.370   1.560  0.00  0.00     0.150 HD
HETATM   20  H   UNK N   1      18.409  18.258   2.926  0.00  0.00     0.150 HD
ENDBRANCH  13  18
ENDBRANCH  12  13
ENDBRANCH  11  12
ENDBRANCH   9  11
BRANCH   9  21
HETATM   21  O   UNK N   1      18.916  16.566   4.563  0.00  0.00    -0.350 OA
HETATM   22  H   UNK N   1      18.332  16.229   3.912  0.00  0.00     0.219 HD
ENDBRANCH   9  21
ENDBRANCH   4   8
ENDBRANCH   1   4
BRANCH   1  23
HETATM   23  O   UNK N   1      20.179  13.517   6.959  0.00  0.00    -0.348 OA
HETATM   24  H   UNK N   1      20.109  13.258   6.061  0.00  0.00     0.219 HD
ENDBRANCH   1  23
BRANCH   2  25
HETATM   25  C   UNK N   1      21.419  13.429   9.471  0.00  0.00     0.205 C 
BRANCH  25  26
HETATM   26  C   UNK N   1      22.920  13.364   9.524  0.00  0.00     0.129 C 
HETATM   27  N   UNK N   1      23.583  13.620   8.450  0.00  0.00    -0.373 N 
ATOM     28  HN  UNK N   1      23.069  13.935   7.627  1.00  0.00     0.161 HD
BRANCH  27  29
HETATM   29  C   UNK N   1      25.019  13.483   8.354  0.00  0.00     0.123 C 
BRANCH  29  30
HETATM   30  C   UNK N   1      25.548  13.875   6.983  0.00  0.00     0.039 C 
BRANCH  30  31
HETATM   31  C   UNK N   1      24.876  15.163   6.527  0.00  0.00     0.115 C 
BRANCH  31  32
HETATM   32  N   UNK N   1      25.783  15.931   5.690  0.00  0.00    -0.421 N 
HETATM   33  H   UNK N   1      25.547  16.394   4.813  0.00  0.00     0.153 HD
BRANCH  32  34
HETATM   34  C   UNK N   1      27.084  15.919   6.331  0.00  0.00     0.113 C 
BRANCH  34  35
HETATM   35  C   UNK N   1      27.909  17.054   5.763  0.00  0.00     0.021 C 
BRANCH  35  36
HETATM   36  C   UNK N   1      28.353  17.986   6.867  0.00  0.00     0.021 C 
BRANCH  36  37
HETATM   37  C   UNK N   1      28.012  17.353   8.200  0.00  0.00     0.111 C 
BRANCH  37  38
HETATM   38  N   UNK N   1      27.763  18.390   9.182  0.00  0.00    -0.430 N 
HETATM   39  H   UNK N   1      27.942  19.367   8.951  0.00  0.00     0.149 HD
HETATM   40  H   UNK N   1      27.407  18.142  10.107  0.00  0.00     0.149 HD
ENDBRANCH  37  38
ENDBRANCH  36  37
ENDBRANCH  35  36
ENDBRANCH  34  35
ENDBRANCH  32  34
ENDBRANCH  31  32
ENDBRANCH  30  31
ENDBRANCH  29  30
ENDBRANCH  27  29
BRANCH  26  41
HETATM   41  O   UNK N   1      23.558  12.997  10.659  0.00  0.00    -0.348 OA
HETATM   42  H   UNK N   1      24.396  13.314  10.930  0.00  0.00     0.219 HD
ENDBRANCH  26  41
ENDBRANCH  25  26
ENDBRANCH   2  25
TORSDOF 24
ENDMDL
