MODEL 1
REMARK VINA RESULT:      -4.7      0.000      0.000
REMARK  2 active torsions:
REMARK  status: ('A' for Active; 'I' for Inactive)
REMARK    1  A    between atoms: N_1  and  C_2 
REMARK    2  A    between atoms: C_2  and  C_3 
ROOT
HETATM    1  C   UNK N   1      23.466  12.857  10.218  0.00  0.00    -0.033 A 
HETATM    2  C   UNK N   1      23.415  12.059  11.365  0.00  0.00     0.012 A 
HETATM    3  C   UNK N   1      22.186  11.751  11.954  0.00  0.00     0.043 A 
HETATM    4  C   UNK N   1      21.001  12.240  11.397  0.00  0.00     0.116 A 
HETATM    5  F   UNK N   1      19.811  11.940  11.969  0.00  0.00    -0.206 F 
HETATM    6  C   UNK N   1      21.043  13.038  10.250  0.00  0.00     0.043 A 
HETATM    7  C   UNK N   1      22.273  13.346   9.662  0.00  0.00     0.012 A 
ENDROOT
BRANCH   1   8
HETATM    8  C   UNK N   1      24.801  13.166   9.614  0.00  0.00     0.268 C 
BRANCH   8   9
HETATM    9  N   UNK N   1      25.764  13.600  10.615  0.00  0.00    -0.075 N 
HETATM   10  H   UNK N   1      26.544  14.201  10.345  0.00  0.00     0.274 HD
HETATM   11  H   UNK N   1      25.659  13.304  11.584  0.00  0.00     0.274 HD
HETATM   12  H   UNK N   1      26.439  13.905  11.316  0.00  0.00     0.274 HD
ENDBRANCH   8   9
ENDBRANCH   1   8
TORSDOF 2
ENDMDL
MODEL 2
REMARK VINA RESULT:      -4.7      0.050      1.615
REMARK  2 active torsions:
REMARK  status: ('A' for Active; 'I' for Inactive)
REMARK    1  A    between atoms: N_1  and  C_2 
REMARK    2  A    between atoms: C_2  and  C_3 
ROOT
HETATM    1  C   UNK N   1      23.474  12.814  10.266  0.00  0.00    -0.033 A 
HETATM    2  C   UNK N   1      22.298  13.304   9.691  0.00  0.00     0.012 A 
HETATM    3  C   UNK N   1      21.058  13.018  10.269  0.00  0.00     0.043 A 
HETATM    4  C   UNK N   1      20.990  12.239  11.427  0.00  0.00     0.116 A 
HETATM    5  F   UNK N   1      19.788  11.963  11.986  0.00  0.00    -0.206 F 
HETATM    6  C   UNK N   1      22.161  11.745  12.009  0.00  0.00     0.043 A 
HETATM    7  C   UNK N   1      23.400  12.031  11.430  0.00  0.00     0.012 A 
ENDROOT
BRANCH   1   8
HETATM    8  C   UNK N   1      24.784  13.140   9.619  0.00  0.00     0.268 C 
BRANCH   8   9
HETATM    9  N   UNK N   1      25.761  13.628  10.582  0.00  0.00    -0.075 N 
HETATM   10  H   UNK N   1      25.476  13.827  11.541  0.00  0.00     0.274 HD
HETATM   11  H   UNK N   1      26.729  13.771  10.296  0.00  0.00     0.274 HD
HETATM   12  H   UNK N   1      26.445  13.970  11.256  0.00  0.00     0.274 HD
ENDBRANCH   8   9
ENDBRANCH   1   8
TORSDOF 2
ENDMDL
MODEL 3
REMARK VINA RESULT:      -4.2     20.264     21.064
REMARK  2 active torsions:
REMARK  status: ('A' for Active; 'I' for Inactive)
REMARK    1  A    between atoms: N_1  and  C_2 
REMARK    2  A    between atoms: C_2  and  C_3 
ROOT
HETATM    1  C   UNK N   1      25.886  25.027  -5.182  0.00  0.00    -0.033 A 
HETATM    2  C   UNK N   1      25.238  26.065  -5.859  0.00  0.00     0.012 A 
HETATM    3  C   UNK N   1      25.149  27.335  -5.283  0.00  0.00     0.043 A 
HETATM    4  C   UNK N   1      25.711  27.573  -4.025  0.00  0.00     0.116 A 
HETATM    5  F   UNK N   1      25.624  28.803  -3.469  0.00  0.00    -0.206 F 
HETATM    6  C   UNK N   1      26.360  26.541  -3.342  0.00  0.00     0.043 A 
HETATM    7  C   UNK N   1      26.448  25.271  -3.918  0.00  0.00     0.012 A 
ENDROOT
BRANCH   1   8
HETATM    8  C   UNK N   1      25.961  23.679  -5.830  0.00  0.00     0.268 C 
BRANCH   8   9
HETATM    9  N   UNK N   1      25.291  23.657  -7.122  0.00  0.00    -0.075 N 
HETATM   10  H   UNK N   1      24.427  23.127  -7.239  0.00  0.00     0.274 HD
HETATM   11  H   UNK N   1      25.685  24.173  -7.908  0.00  0.00     0.274 HD
HETATM   12  H   UNK N   1      24.821  23.642  -8.027  0.00  0.00     0.274 HD
ENDBRANCH   8   9
ENDBRANCH   1   8
TORSDOF 2
ENDMDL
MODEL 4
REMARK VINA RESULT:      -4.2      9.492     10.297
REMARK  2 active torsions:
REMARK  status: ('A' for Active; 'I' for Inactive)
REMARK    1  A    between atoms: N_1  and  C_2 
REMARK    2  A    between atoms: C_2  and  C_3 
ROOT
HETATM    1  C   UNK N   1      28.031  19.282   6.688  0.00  0.00    -0.033 A 
HETATM    2  C   UNK N   1      28.192  18.564   5.500  0.00  0.00     0.012 A 
HETATM    3  C   UNK N   1      27.684  19.068   4.299  0.00  0.00     0.043 A 
HETATM    4  C   UNK N   1      27.012  20.293   4.283  0.00  0.00     0.116 A 
HETATM    5  F   UNK N   1      26.521  20.780   3.120  0.00  0.00    -0.206 F 
HETATM    6  C   UNK N   1      26.848  21.017   5.468  0.00  0.00     0.043 A 
HETATM    7  C   UNK N   1      27.356  20.513   6.668  0.00  0.00     0.012 A 
ENDROOT
BRANCH   1   8
HETATM    8  C   UNK N   1      28.589  18.712   7.956  0.00  0.00     0.268 C 
BRANCH   8   9
HETATM    9  N   UNK N   1      27.568  18.565   8.983  0.00  0.00    -0.075 N 
HETATM   10  H   UNK N   1      26.663  18.158   8.748  0.00  0.00     0.274 HD
HETATM   11  H   UNK N   1      27.759  18.870   9.937  0.00  0.00     0.274 HD
HETATM   12  H   UNK N   1      26.853  18.463   9.703  0.00  0.00     0.274 HD
ENDBRANCH   8   9
ENDBRANCH   1   8
TORSDOF 2
ENDMDL
MODEL 5
REMARK VINA RESULT:      -4.1     14.267     14.805
REMARK  2 active torsions:
REMARK  status: ('A' for Active; 'I' for Inactive)
REMARK    1  A    between atoms: N_1  and  C_2 
REMARK    2  A    between atoms: C_2  and  C_3 
ROOT
HETATM    1  C   UNK N   1      35.611  12.791  16.529  0.00  0.00    -0.033 A 
HETATM    2  C   UNK N   1      35.289  13.665  17.572  0.00  0.00     0.012 A 
HETATM    3  C   UNK N   1      35.140  13.182  18.874  0.00  0.00     0.043 A 
HETATM    4  C   UNK N   1      35.311  11.820  19.139  0.00  0.00     0.116 A 
HETATM    5  F   UNK N   1      35.166  11.354  20.401  0.00  0.00    -0.206 F 
HETATM    6  C   UNK N   1      35.632  10.940  18.102  0.00  0.00     0.043 A 
HETATM    7  C   UNK N   1      35.782  11.424  16.799  0.00  0.00     0.012 A 
ENDROOT
BRANCH   1   8
HETATM    8  C   UNK N   1      35.763  13.345  15.145  0.00  0.00     0.268 C 
BRANCH   8   9
HETATM    9  N   UNK N   1      37.069  13.956  14.944  0.00  0.00    -0.075 N 
HETATM   10  H   UNK N   1      37.416  14.118  13.998  0.00  0.00     0.274 HD
HETATM   11  H   UNK N   1      37.636  14.222  15.748  0.00  0.00     0.274 HD
HETATM   12  H   UNK N   1      37.984  14.384  14.803  0.00  0.00     0.274 HD
ENDBRANCH   8   9
ENDBRANCH   1   8
TORSDOF 2
ENDMDL
MODEL 6
REMARK VINA RESULT:      -4.1     14.243     14.778
REMARK  2 active torsions:
REMARK  status: ('A' for Active; 'I' for Inactive)
REMARK    1  A    between atoms: N_1  and  C_2 
REMARK    2  A    between atoms: C_2  and  C_3 
ROOT
HETATM    1  C   UNK N   1      35.588  12.828  16.538  0.00  0.00    -0.033 A 
HETATM    2  C   UNK N   1      35.802  11.468  16.780  0.00  0.00     0.012 A 
HETATM    3  C   UNK N   1      35.680  10.955  18.074  0.00  0.00     0.043 A 
HETATM    4  C   UNK N   1      35.343  11.802  19.133  0.00  0.00     0.116 A 
HETATM    5  F   UNK N   1      35.225  11.304  20.386  0.00  0.00    -0.206 F 
HETATM    6  C   UNK N   1      35.128  13.164  18.900  0.00  0.00     0.043 A 
HETATM    7  C   UNK N   1      35.250  13.676  17.606  0.00  0.00     0.012 A 
ENDROOT
BRANCH   1   8
HETATM    8  C   UNK N   1      35.727  13.343  15.138  0.00  0.00     0.268 C 
BRANCH   8   9
HETATM    9  N   UNK N   1      37.121  13.442  14.731  0.00  0.00    -0.075 N 
HETATM   10  H   UNK N   1      37.376  13.319  13.751  0.00  0.00     0.274 HD
HETATM   11  H   UNK N   1      37.842  13.635  15.426  0.00  0.00     0.274 HD
HETATM   12  H   UNK N   1      38.098  13.512  14.445  0.00  0.00     0.274 HD
ENDBRANCH   8   9
ENDBRANCH   1   8
TORSDOF 2
ENDMDL
MODEL 7
REMARK VINA RESULT:      -4.1     13.269     14.251
REMARK  2 active torsions:
REMARK  status: ('A' for Active; 'I' for Inactive)
REMARK    1  A    between atoms: N_1  and  C_2 
REMARK    2  A    between atoms: C_2  and  C_3 
ROOT
HETATM    1  C   UNK N   1      35.232  11.850  18.183  0.00  0.00    -0.033 A 
HETATM    2  C   UNK N   1      35.017  13.058  17.514  0.00  0.00     0.012 A 
HETATM    3  C   UNK N   1      34.691  13.062  16.154  0.00  0.00     0.043 A 
HETATM    4  C   UNK N   1      34.580  11.854  15.459  0.00  0.00     0.116 A 
HETATM    5  F   UNK N   1      34.264  11.859  14.143  0.00  0.00    -0.206 F 
HETATM    6  C   UNK N   1      34.794  10.642  16.122  0.00  0.00     0.043 A 
HETATM    7  C   UNK N   1      35.120  10.640  17.481  0.00  0.00     0.012 A 
ENDROOT
BRANCH   1   8
HETATM    8  C   UNK N   1      35.580  11.885  19.640  0.00  0.00     0.268 C 
BRANCH   8   9
HETATM    9  N   UNK N   1      35.018  13.051  20.306  0.00  0.00    -0.075 N 
HETATM   10  H   UNK N   1      34.040  13.302  20.158  0.00  0.00     0.274 HD
HETATM   11  H   UNK N   1      35.603  13.618  20.920  0.00  0.00     0.274 HD
HETATM   12  H   UNK N   1      34.625  13.869  20.773  0.00  0.00     0.274 HD
ENDBRANCH   8   9
ENDBRANCH   1   8
TORSDOF 2
ENDMDL
MODEL 8
REMARK VINA RESULT:      -4.0      2.120      2.709
REMARK  2 active torsions:
REMARK  status: ('A' for Active; 'I' for Inactive)
REMARK    1  A    between atoms: N_1  and  C_2 
REMARK    2  A    between atoms: C_2  and  C_3 
ROOT
HETATM    1  C   UNK N   1      23.189  12.578   9.371  0.00  0.00    -0.033 A 
HETATM    2  C   UNK N   1      21.955  12.480  10.021  0.00  0.00     0.012 A 
HETATM    3  C   UNK N   1      21.898  12.154  11.379  0.00  0.00     0.043 A 
HETATM    4  C   UNK N   1      23.077  11.925  12.093  0.00  0.00     0.116 A 
HETATM    5  F   UNK N   1      23.020  11.610  13.408  0.00  0.00    -0.206 F 
HETATM    6  C   UNK N   1      24.315  12.022  11.451  0.00  0.00     0.043 A 
HETATM    7  C   UNK N   1      24.372  12.347  10.093  0.00  0.00     0.012 A 
ENDROOT
BRANCH   1   8
HETATM    8  C   UNK N   1      23.212  12.929   7.915  0.00  0.00     0.268 C 
BRANCH   8   9
HETATM    9  N   UNK N   1      22.645  14.246   7.663  0.00  0.00    -0.075 N 
HETATM   10  H   UNK N   1      22.662  14.957   8.394  0.00  0.00     0.274 HD
HETATM   11  H   UNK N   1      22.230  14.456   6.756  0.00  0.00     0.274 HD
HETATM   12  H   UNK N   1      22.247  15.168   7.487  0.00  0.00     0.274 HD
ENDBRANCH   8   9
ENDBRANCH   1   8
TORSDOF 2
ENDMDL
MODEL 9
REMARK VINA RESULT:      -4.0     21.474     22.592
REMARK  2 active torsions:
REMARK  status: ('A' for Active; 'I' for Inactive)
REMARK    1  A    between atoms: N_1  and  C_2 
REMARK    2  A    between atoms: C_2  and  C_3 
ROOT
HETATM    1  C   UNK N   1      42.551  21.979   2.960  0.00  0.00    -0.033 A 
HETATM    2  C   UNK N   1      41.724  22.687   2.083  0.00  0.00     0.012 A 
HETATM    3  C   UNK N   1      40.495  22.153   1.688  0.00  0.00     0.043 A 
HETATM    4  C   UNK N   1      40.088  20.905   2.169  0.00  0.00     0.116 A 
HETATM    5  F   UNK N   1      38.897  20.388   1.785  0.00  0.00    -0.206 F 
HETATM    6  C   UNK N   1      40.909  20.190   3.045  0.00  0.00     0.043 A 
HETATM    7  C   UNK N   1      42.138  20.725   3.440  0.00  0.00     0.012 A 
ENDROOT
BRANCH   1   8
HETATM    8  C   UNK N   1      43.862  22.583   3.362  0.00  0.00     0.268 C 
BRANCH   8   9
HETATM    9  N   UNK N   1      43.689  23.864   4.030  0.00  0.00    -0.075 N 
HETATM   10  H   UNK N   1      42.928  23.993   4.698  0.00  0.00     0.274 HD
HETATM   11  H   UNK N   1      44.327  24.633   3.829  0.00  0.00     0.274 HD
HETATM   12  H   UNK N   1      43.567  24.763   4.497  0.00  0.00     0.274 HD
ENDBRANCH   8   9
ENDBRANCH   1   8
TORSDOF 2
ENDMDL
