MODEL 1
REMARK VINA RESULT:      -4.4      0.000      0.000
REMARK  4 active torsions:
REMARK  status: ('A' for Active; 'I' for Inactive)
REMARK    1  A    between atoms: C_2  and  C_4 
REMARK    2  A    between atoms: C_4  and  C_5 
REMARK    3  A    between atoms: C_5  and  C_7 
REMARK    4  A    between atoms: C_7  and  O_8 
ROOT
HETATM    1  C   UNK N   1      34.516  18.171   8.427  0.00  0.00     0.222 C 
HETATM    2  O   UNK N   1      35.259  19.140   8.363  0.00  0.00    -0.286 OA
ENDROOT
BRANCH   1   3
HETATM    3  C   UNK N   1      33.441  17.933   7.395  0.00  0.00     0.094 C 
BRANCH   3   4
HETATM    4  C   UNK N   1      33.762  17.105   6.148  0.00  0.00    -0.015 C 
HETATM    5  C   UNK N   1      33.154  17.560   4.838  0.00  0.00     0.010 C 
HETATM    6  C   UNK N   1      34.643  15.868   6.132  0.00  0.00     0.010 C 
ENDBRANCH   3   4
ENDBRANCH   1   3
BRANCH   1   7
HETATM    7  C   UNK N   1      34.669  17.208   9.536  0.00  0.00     0.213 C 
HETATM    8  O   UNK N   1      35.615  17.303  10.304  0.00  0.00    -0.644 OA
BRANCH   7   9
HETATM    9  O   UNK N   1      33.769  16.222   9.711  0.00  0.00    -0.771 OA
HETATM   10  H   UNK N   1      33.041  16.348  10.287  0.00  0.00     0.167 HD
ENDBRANCH   7   9
ENDBRANCH   1   7
TORSDOF 4
ENDMDL
MODEL 2
REMARK VINA RESULT:      -4.4      1.999      2.825
REMARK  4 active torsions:
REMARK  status: ('A' for Active; 'I' for Inactive)
REMARK    1  A    between atoms: C_2  and  C_4 
REMARK    2  A    between atoms: C_4  and  C_5 
REMARK    3  A    between atoms: C_5  and  C_7 
REMARK    4  A    between atoms: C_7  and  O_8 
ROOT
HETATM    1  C   UNK N   1      33.852  17.618   7.309  0.00  0.00     0.222 C 
HETATM    2  O   UNK N   1      34.241  17.954   6.200  0.00  0.00    -0.286 OA
ENDROOT
BRANCH   1   3
HETATM    3  C   UNK N   1      32.665  16.701   7.483  0.00  0.00     0.094 C 
BRANCH   3   4
HETATM    4  C   UNK N   1      31.251  17.288   7.482  0.00  0.00    -0.015 C 
HETATM    5  C   UNK N   1      30.818  18.052   8.716  0.00  0.00     0.010 C 
HETATM    6  C   UNK N   1      30.260  17.160   6.339  0.00  0.00     0.010 C 
ENDBRANCH   3   4
ENDBRANCH   1   3
BRANCH   1   7
HETATM    7  C   UNK N   1      34.553  18.115   8.509  0.00  0.00     0.213 C 
HETATM    8  O   UNK N   1      35.242  19.122   8.443  0.00  0.00    -0.644 OA
BRANCH   7   9
HETATM    9  O   UNK N   1      34.440  17.465   9.683  0.00  0.00    -0.771 OA
HETATM   10  H   UNK N   1      34.434  17.947  10.486  0.00  0.00     0.167 HD
ENDBRANCH   7   9
ENDBRANCH   1   7
TORSDOF 4
ENDMDL
MODEL 3
REMARK VINA RESULT:      -4.4      1.881      3.023
REMARK  4 active torsions:
REMARK  status: ('A' for Active; 'I' for Inactive)
REMARK    1  A    between atoms: C_2  and  C_4 
REMARK    2  A    between atoms: C_4  and  C_5 
REMARK    3  A    between atoms: C_5  and  C_7 
REMARK    4  A    between atoms: C_7  and  O_8 
ROOT
HETATM    1  C   UNK N   1      34.019  17.295   8.971  0.00  0.00     0.222 C 
HETATM    2  O   UNK N   1      34.565  17.130  10.052  0.00  0.00    -0.286 OA
ENDROOT
BRANCH   1   3
HETATM    3  C   UNK N   1      32.785  16.515   8.583  0.00  0.00     0.094 C 
BRANCH   3   4
HETATM    4  C   UNK N   1      31.541  17.264   8.098  0.00  0.00    -0.015 C 
HETATM    5  C   UNK N   1      31.060  16.971   6.692  0.00  0.00     0.010 C 
HETATM    6  C   UNK N   1      30.760  18.274   8.921  0.00  0.00     0.010 C 
ENDBRANCH   3   4
ENDBRANCH   1   3
BRANCH   1   7
HETATM    7  C   UNK N   1      34.572  18.277   8.017  0.00  0.00     0.213 C 
HETATM    8  O   UNK N   1      35.136  19.280   8.429  0.00  0.00    -0.644 OA
BRANCH   7   9
HETATM    9  O   UNK N   1      34.460  18.077   6.690  0.00  0.00    -0.771 OA
HETATM   10  H   UNK N   1      34.095  17.277   6.366  0.00  0.00     0.167 HD
ENDBRANCH   7   9
ENDBRANCH   1   7
TORSDOF 4
ENDMDL
MODEL 4
REMARK VINA RESULT:      -4.3     13.934     15.134
REMARK  4 active torsions:
REMARK  status: ('A' for Active; 'I' for Inactive)
REMARK    1  A    between atoms: C_2  and  C_4 
REMARK    2  A    between atoms: C_4  and  C_5 
REMARK    3  A    between atoms: C_5  and  C_7 
REMARK    4  A    between atoms: C_7  and  O_8 
ROOT
HETATM    1  C   UNK N   1      21.214  20.721   2.308  0.00  0.00     0.222 C 
HETATM    2  O   UNK N   1      22.178  21.244   2.849  0.00  0.00    -0.286 OA
ENDROOT
BRANCH   1   3
HETATM    3  C   UNK N   1      20.395  19.663   3.008  0.00  0.00     0.094 C 
BRANCH   3   4
HETATM    4  C   UNK N   1      20.792  18.190   2.872  0.00  0.00    -0.015 C 
HETATM    5  C   UNK N   1      20.059  17.368   1.833  0.00  0.00     0.010 C 
HETATM    6  C   UNK N   1      21.861  17.501   3.701  0.00  0.00     0.010 C 
ENDBRANCH   3   4
ENDBRANCH   1   3
BRANCH   1   7
HETATM    7  C   UNK N   1      20.837  21.128   0.940  0.00  0.00     0.213 C 
HETATM    8  O   UNK N   1      20.920  20.329   0.018  0.00  0.00    -0.644 OA
BRANCH   7   9
HETATM    9  O   UNK N   1      20.400  22.378   0.697  0.00  0.00    -0.771 OA
HETATM   10  H   UNK N   1      20.666  22.824  -0.084  0.00  0.00     0.167 HD
ENDBRANCH   7   9
ENDBRANCH   1   7
TORSDOF 4
ENDMDL
MODEL 5
REMARK VINA RESULT:      -4.3      1.502      2.351
REMARK  4 active torsions:
REMARK  status: ('A' for Active; 'I' for Inactive)
REMARK    1  A    between atoms: C_2  and  C_4 
REMARK    2  A    between atoms: C_4  and  C_5 
REMARK    3  A    between atoms: C_5  and  C_7 
REMARK    4  A    between atoms: C_7  and  O_8 
ROOT
HETATM    1  C   UNK N   1      34.541  18.111   8.407  0.00  0.00     0.222 C 
HETATM    2  O   UNK N   1      35.217  19.127   8.476  0.00  0.00    -0.286 OA
ENDROOT
BRANCH   1   3
HETATM    3  C   UNK N   1      33.413  17.979   7.412  0.00  0.00     0.094 C 
BRANCH   3   4
HETATM    4  C   UNK N   1      32.060  17.433   7.874  0.00  0.00    -0.015 C 
HETATM    5  C   UNK N   1      31.693  16.030   7.436  0.00  0.00     0.010 C 
HETATM    6  C   UNK N   1      31.066  18.193   8.735  0.00  0.00     0.010 C 
ENDBRANCH   3   4
ENDBRANCH   1   3
BRANCH   1   7
HETATM    7  C   UNK N   1      34.829  16.983   9.315  0.00  0.00     0.213 C 
HETATM    8  O   UNK N   1      35.046  15.870   8.859  0.00  0.00    -0.644 OA
BRANCH   7   9
HETATM    9  O   UNK N   1      34.854  17.169  10.648  0.00  0.00    -0.771 OA
HETATM   10  H   UNK N   1      35.029  16.447  11.219  0.00  0.00     0.167 HD
ENDBRANCH   7   9
ENDBRANCH   1   7
TORSDOF 4
ENDMDL
MODEL 6
REMARK VINA RESULT:      -4.1     14.440     15.163
REMARK  4 active torsions:
REMARK  status: ('A' for Active; 'I' for Inactive)
REMARK    1  A    between atoms: C_2  and  C_4 
REMARK    2  A    between atoms: C_4  and  C_5 
REMARK    3  A    between atoms: C_5  and  C_7 
REMARK    4  A    between atoms: C_7  and  O_8 
ROOT
HETATM    1  C   UNK N   1      20.602  19.676   1.814  0.00  0.00     0.222 C 
HETATM    2  O   UNK N   1      20.982  19.900   0.674  0.00  0.00    -0.286 OA
ENDROOT
BRANCH   1   3
HETATM    3  C   UNK N   1      19.799  18.442   2.149  0.00  0.00     0.094 C 
BRANCH   3   4
HETATM    4  C   UNK N   1      20.226  17.086   1.580  0.00  0.00    -0.015 C 
HETATM    5  C   UNK N   1      19.695  16.711   0.212  0.00  0.00     0.010 C 
HETATM    6  C   UNK N   1      21.139  16.098   2.285  0.00  0.00     0.010 C 
ENDBRANCH   3   4
ENDBRANCH   1   3
BRANCH   1   7
HETATM    7  C   UNK N   1      20.933  20.628   2.893  0.00  0.00     0.213 C 
HETATM    8  O   UNK N   1      20.442  20.490   4.003  0.00  0.00    -0.644 OA
BRANCH   7   9
HETATM    9  O   UNK N   1      21.777  21.652   2.663  0.00  0.00    -0.771 OA
HETATM   10  H   UNK N   1      22.419  21.883   3.305  0.00  0.00     0.167 HD
ENDBRANCH   7   9
ENDBRANCH   1   7
TORSDOF 4
ENDMDL
MODEL 7
REMARK VINA RESULT:      -4.1     13.089     14.321
REMARK  4 active torsions:
REMARK  status: ('A' for Active; 'I' for Inactive)
REMARK    1  A    between atoms: C_2  and  C_4 
REMARK    2  A    between atoms: C_4  and  C_5 
REMARK    3  A    between atoms: C_5  and  C_7 
REMARK    4  A    between atoms: C_7  and  O_8 
ROOT
HETATM    1  C   UNK N   1      20.901  20.337   2.796  0.00  0.00     0.222 C 
HETATM    2  O   UNK N   1      20.284  20.926   3.672  0.00  0.00    -0.286 OA
ENDROOT
BRANCH   1   3
HETATM    3  C   UNK N   1      21.783  19.153   3.112  0.00  0.00     0.094 C 
BRANCH   3   4
HETATM    4  C   UNK N   1      23.209  19.389   3.617  0.00  0.00    -0.015 C 
HETATM    5  C   UNK N   1      23.975  20.549   3.016  0.00  0.00     0.010 C 
HETATM    6  C   UNK N   1      23.906  18.547   4.672  0.00  0.00     0.010 C 
ENDBRANCH   3   4
ENDBRANCH   1   3
BRANCH   1   7
HETATM    7  C   UNK N   1      20.786  20.788   1.395  0.00  0.00     0.213 C 
HETATM    8  O   UNK N   1      20.946  19.994   0.480  0.00  0.00    -0.644 OA
BRANCH   7   9
HETATM    9  O   UNK N   1      20.504  22.075   1.114  0.00  0.00    -0.771 OA
HETATM   10  H   UNK N   1      19.991  22.583   1.711  0.00  0.00     0.167 HD
ENDBRANCH   7   9
ENDBRANCH   1   7
TORSDOF 4
ENDMDL
MODEL 8
REMARK VINA RESULT:      -4.1      7.281      9.577
REMARK  4 active torsions:
REMARK  status: ('A' for Active; 'I' for Inactive)
REMARK    1  A    between atoms: C_2  and  C_4 
REMARK    2  A    between atoms: C_4  and  C_5 
REMARK    3  A    between atoms: C_5  and  C_7 
REMARK    4  A    between atoms: C_7  and  O_8 
ROOT
HETATM    1  C   UNK N   1      36.101  13.588  14.948  0.00  0.00     0.222 C 
HETATM    2  O   UNK N   1      37.190  13.849  15.439  0.00  0.00    -0.286 OA
ENDROOT
BRANCH   1   3
HETATM    3  C   UNK N   1      34.967  13.049  15.787  0.00  0.00     0.094 C 
BRANCH   3   4
HETATM    4  C   UNK N   1      35.193  12.780  17.278  0.00  0.00    -0.015 C 
HETATM    5  C   UNK N   1      35.475  11.351  17.689  0.00  0.00     0.010 C 
HETATM    6  C   UNK N   1      35.154  13.840  18.365  0.00  0.00     0.010 C 
ENDBRANCH   3   4
ENDBRANCH   1   3
BRANCH   1   7
HETATM    7  C   UNK N   1      35.882  13.802  13.504  0.00  0.00     0.213 C 
HETATM    8  O   UNK N   1      34.769  13.647  13.023  0.00  0.00    -0.644 OA
BRANCH   7   9
HETATM    9  O   UNK N   1      36.904  14.168  12.707  0.00  0.00    -0.771 OA
HETATM   10  H   UNK N   1      36.783  14.206  11.779  0.00  0.00     0.167 HD
ENDBRANCH   7   9
ENDBRANCH   1   7
TORSDOF 4
ENDMDL
MODEL 9
REMARK VINA RESULT:      -4.0     12.188     12.940
REMARK  4 active torsions:
REMARK  status: ('A' for Active; 'I' for Inactive)
REMARK    1  A    between atoms: C_2  and  C_4 
REMARK    2  A    between atoms: C_4  and  C_5 
REMARK    3  A    between atoms: C_5  and  C_7 
REMARK    4  A    between atoms: C_7  and  O_8 
ROOT
HETATM    1  C   UNK N   1      22.552  12.340  11.336  0.00  0.00     0.222 C 
HETATM    2  O   UNK N   1      21.451  11.953  11.702  0.00  0.00    -0.286 OA
ENDROOT
BRANCH   1   3
HETATM    3  C   UNK N   1      22.746  13.013   9.998  0.00  0.00     0.094 C 
BRANCH   3   4
HETATM    4  C   UNK N   1      22.591  12.195   8.713  0.00  0.00    -0.015 C 
HETATM    5  C   UNK N   1      23.591  11.084   8.474  0.00  0.00     0.010 C 
HETATM    6  C   UNK N   1      21.512  12.419   7.668  0.00  0.00     0.010 C 
ENDBRANCH   3   4
ENDBRANCH   1   3
BRANCH   1   7
HETATM    7  C   UNK N   1      23.721  12.149  12.216  0.00  0.00     0.213 C 
HETATM    8  O   UNK N   1      23.563  11.974  13.415  0.00  0.00    -0.644 OA
BRANCH   7   9
HETATM    9  O   UNK N   1      24.968  12.167  11.707  0.00  0.00    -0.771 OA
HETATM   10  H   UNK N   1      25.183  12.762  11.017  0.00  0.00     0.167 HD
ENDBRANCH   7   9
ENDBRANCH   1   7
TORSDOF 4
ENDMDL
