MODEL 1
REMARK VINA RESULT:      -6.9      0.000      0.000
REMARK  21 active torsions:
REMARK  status: ('A' for Active; 'I' for Inactive)
REMARK    1  A    between atoms: C_6  and  C_5 
REMARK    2  A    between atoms: C_12  and  C_5 
REMARK    3  A    between atoms: C_14  and  C_6 
REMARK    4  A    between atoms: C_15  and  C_7 
REMARK    5  A    between atoms: N_20  and  C_7 
REMARK    6  A    between atoms: C_10  and  C_8 
REMARK    7  A    between atoms: O_34  and  C_8 
REMARK    8  A    between atoms: C_13  and  C_9 
REMARK    9  A    between atoms: S_35  and  C_9 
REMARK   10  A    between atoms: N_24  and  C_11 
REMARK   11  A    between atoms: C_17  and  C_12 
REMARK   12  A    between atoms: C_12  and  N_19 
REMARK   13  A    between atoms: C_16  and  C_13 
REMARK   14  A    between atoms: C_13  and  N_22 
REMARK   15  A    between atoms: C_14  and  O_25 
REMARK   16  A    between atoms: O_27  and  C_15 
REMARK   17  A    between atoms: O_28  and  C_16 
REMARK   18  A    between atoms: O_30  and  C_17 
REMARK   19  A    between atoms: O_31  and  C_18 
REMARK   20  A    between atoms: O_34  and  C_18 
REMARK   21  A    between atoms: S_35  and  C_18 
ROOT
HETATM    1  C   UNK N   1      24.168  19.026   4.144  0.00  0.00     0.167 C 
ENDROOT
BRANCH   1   2
HETATM    2  C   UNK N   1      25.472  18.816   3.350  0.00  0.00     0.112 C 
BRANCH   2   3
HETATM    3  S   UNK N   1      26.992  19.622   4.026  0.00  0.00    -0.107 SA
BRANCH   3   4
HETATM    4  C   UNK N   1      27.735  18.295   5.055  0.00  0.00     0.322 C 
BRANCH   4   5
HETATM    5  O   UNK N   1      27.024  18.100   6.250  0.00  0.00    -0.362 OA
HETATM    6  H   UNK N   1      26.784  18.350   7.155  0.00  0.00     0.213 HD
ENDBRANCH   4   5
BRANCH   4   7
HETATM    7  O   UNK N   1      29.122  18.464   5.243  0.00  0.00    -0.348 OA
BRANCH   7   8
HETATM    8  C   UNK N   1      29.720  17.203   5.214  0.00  0.00     0.210 C 
BRANCH   8   9
HETATM    9  C   UNK N   1      30.932  17.130   6.058  0.00  0.00    -0.034 A 
HETATM   10  C   UNK N   1      30.809  17.148   7.448  0.00  0.00     0.012 A 
HETATM   11  C   UNK N   1      31.929  17.384   8.240  0.00  0.00     0.037 A 
HETATM   12  C   UNK N   1      33.175  17.629   7.645  0.00  0.00     0.102 A 
HETATM   13  C   UNK N   1      33.304  17.539   6.249  0.00  0.00     0.037 A 
HETATM   14  C   UNK N   1      32.181  17.295   5.459  0.00  0.00     0.012 A 
BRANCH  12  15
HETATM   15  N   UNK N   1      34.267  18.080   8.436  0.00  0.00    -0.116 N 
HETATM   16  O   UNK N   1      34.803  19.114   8.181  0.00  0.00    -0.532 OA
HETATM   17  O   UNK N   1      34.530  17.520   9.461  0.00  0.00    -0.532 OA
ENDBRANCH  12  15
ENDBRANCH   8   9
ENDBRANCH   7   8
ENDBRANCH   4   7
ENDBRANCH   3   4
ENDBRANCH   2   3
ENDBRANCH   1   2
BRANCH   1  18
HETATM   18  C   UNK N   1      23.253  19.968   3.380  0.00  0.00     0.136 C 
HETATM   19  N   UNK N   1      22.000  19.710   3.207  0.00  0.00    -0.363 N 
ATOM     20  HN  UNK N   1      21.602  18.855   3.596  1.00  0.00     0.161 HD
BRANCH  19  21
HETATM   21  C   UNK N   1      21.153  20.623   2.466  0.00  0.00     0.231 C 
BRANCH  21  22
HETATM   22  C   UNK N   1      20.893  20.157   1.065  0.00  0.00     0.158 C 
HETATM   23  O   UNK N   1      21.247  20.825   0.107  0.00  0.00    -0.649 OA
BRANCH  22  24
HETATM   24  O   UNK N   1      20.272  18.980   0.866  0.00  0.00    -0.775 OA
HETATM   25  H   UNK N   1      19.712  18.855   0.124  0.00  0.00     0.167 HD
ENDBRANCH  22  24
ENDBRANCH  21  22
ENDBRANCH  19  21
BRANCH  18  26
HETATM   26  O   UNK N   1      23.780  21.110   2.885  0.00  0.00    -0.348 OA
HETATM   27  H   UNK N   1      23.744  21.919   3.355  0.00  0.00     0.219 HD
ENDBRANCH  18  26
ENDBRANCH   1  18
BRANCH   1  28
HETATM   28  N   UNK N   1      23.589  17.751   4.541  0.00  0.00    -0.362 N 
HETATM   29  C   UNK N   1      22.777  17.561   5.522  0.00  0.00     0.111 C 
ATOM     30  HN  UNK N   1      23.851  16.932   3.991  1.00  0.00     0.162 HD
BRANCH  29  31
HETATM   31  C   UNK N   1      22.103  16.228   5.641  0.00  0.00     0.086 C 
BRANCH  31  32
HETATM   32  C   UNK N   1      20.590  16.323   5.729  0.00  0.00     0.043 C 
BRANCH  32  33
HETATM   33  C   UNK N   1      19.891  15.788   4.488  0.00  0.00     0.173 C 
BRANCH  33  34
HETATM   34  C   UNK N   1      19.965  16.819   3.405  0.00  0.00     0.163 C 
HETATM   35  O   UNK N   1      20.955  16.902   2.696  0.00  0.00    -0.648 OA
BRANCH  34  36
HETATM   36  O   UNK N   1      18.925  17.650   3.202  0.00  0.00    -0.775 OA
HETATM   37  H   UNK N   1      19.065  18.507   2.852  0.00  0.00     0.167 HD
ENDBRANCH  34  36
ENDBRANCH  33  34
BRANCH  33  38
HETATM   38  N   UNK N   1      18.501  15.474   4.778  0.00  0.00    -0.418 N 
HETATM   39  H   UNK N   1      18.044  15.002   5.559  0.00  0.00     0.150 HD
HETATM   40  H   UNK N   1      17.853  15.787   4.056  0.00  0.00     0.150 HD
ENDBRANCH  33  38
ENDBRANCH  32  33
ENDBRANCH  31  32
ENDBRANCH  29  31
BRANCH  29  41
HETATM   41  O   UNK N   1      22.451  18.565   6.362  0.00  0.00    -0.350 OA
HETATM   42  H   UNK N   1      22.623  19.089   7.120  0.00  0.00     0.219 HD
ENDBRANCH  29  41
ENDBRANCH   1  28
TORSDOF 21
ENDMDL
MODEL 2
REMARK VINA RESULT:      -6.9      4.870      8.074
REMARK  21 active torsions:
REMARK  status: ('A' for Active; 'I' for Inactive)
REMARK    1  A    between atoms: C_6  and  C_5 
REMARK    2  A    between atoms: C_12  and  C_5 
REMARK    3  A    between atoms: C_14  and  C_6 
REMARK    4  A    between atoms: C_15  and  C_7 
REMARK    5  A    between atoms: N_20  and  C_7 
REMARK    6  A    between atoms: C_10  and  C_8 
REMARK    7  A    between atoms: O_34  and  C_8 
REMARK    8  A    between atoms: C_13  and  C_9 
REMARK    9  A    between atoms: S_35  and  C_9 
REMARK   10  A    between atoms: N_24  and  C_11 
REMARK   11  A    between atoms: C_17  and  C_12 
REMARK   12  A    between atoms: C_12  and  N_19 
REMARK   13  A    between atoms: C_16  and  C_13 
REMARK   14  A    between atoms: C_13  and  N_22 
REMARK   15  A    between atoms: C_14  and  O_25 
REMARK   16  A    between atoms: O_27  and  C_15 
REMARK   17  A    between atoms: O_28  and  C_16 
REMARK   18  A    between atoms: O_30  and  C_17 
REMARK   19  A    between atoms: O_31  and  C_18 
REMARK   20  A    between atoms: O_34  and  C_18 
REMARK   21  A    between atoms: S_35  and  C_18 
ROOT
HETATM    1  C   UNK N   1      22.095  16.888   4.665  0.00  0.00     0.167 C 
ENDROOT
BRANCH   1   2
HETATM    2  C   UNK N   1      21.347  17.171   5.983  0.00  0.00     0.112 C 
BRANCH   2   3
HETATM    3  S   UNK N   1      19.862  16.130   6.333  0.00  0.00    -0.107 SA
BRANCH   3   4
HETATM    4  C   UNK N   1      19.541  16.459   8.111  0.00  0.00     0.322 C 
BRANCH   4   5
HETATM    5  O   UNK N   1      20.281  17.556   8.581  0.00  0.00    -0.362 OA
HETATM    6  H   UNK N   1      21.055  18.140   8.562  0.00  0.00     0.213 HD
ENDBRANCH   4   5
BRANCH   4   7
HETATM    7  O   UNK N   1      19.670  15.305   8.911  0.00  0.00    -0.348 OA
BRANCH   7   8
HETATM    8  C   UNK N   1      20.483  14.396   8.232  0.00  0.00     0.210 C 
BRANCH   8   9
HETATM    9  C   UNK N   1      21.227  13.505   9.149  0.00  0.00    -0.034 A 
HETATM   10  C   UNK N   1      20.586  12.973  10.268  0.00  0.00     0.012 A 
HETATM   11  C   UNK N   1      21.338  12.393  11.286  0.00  0.00     0.037 A 
HETATM   12  C   UNK N   1      22.737  12.365  11.203  0.00  0.00     0.102 A 
HETATM   13  C   UNK N   1      23.370  12.841  10.042  0.00  0.00     0.037 A 
HETATM   14  C   UNK N   1      22.614  13.413   9.020  0.00  0.00     0.012 A 
BRANCH  12  15
HETATM   15  N   UNK N   1      23.511  11.973  12.329  0.00  0.00    -0.116 N 
HETATM   16  O   UNK N   1      22.975  11.551  13.305  0.00  0.00    -0.532 OA
HETATM   17  O   UNK N   1      24.702  11.893  12.233  0.00  0.00    -0.532 OA
ENDBRANCH  12  15
ENDBRANCH   8   9
ENDBRANCH   7   8
ENDBRANCH   4   7
ENDBRANCH   3   4
ENDBRANCH   2   3
ENDBRANCH   1   2
BRANCH   1  18
HETATM   18  C   UNK N   1      21.258  17.370   3.492  0.00  0.00     0.136 C 
HETATM   19  N   UNK N   1      21.012  18.622   3.298  0.00  0.00    -0.363 N 
ATOM     20  HN  UNK N   1      21.392  19.316   3.940  1.00  0.00     0.161 HD
BRANCH  19  21
HETATM   21  C   UNK N   1      20.204  19.051   2.174  0.00  0.00     0.231 C 
BRANCH  21  22
HETATM   22  C   UNK N   1      20.852  20.148   1.386  0.00  0.00     0.158 C 
HETATM   23  O   UNK N   1      21.484  21.032   1.943  0.00  0.00    -0.649 OA
BRANCH  22  24
HETATM   24  O   UNK N   1      20.743  20.149   0.044  0.00  0.00    -0.775 OA
HETATM   25  H   UNK N   1      20.883  20.935  -0.447  0.00  0.00     0.167 HD
ENDBRANCH  22  24
ENDBRANCH  21  22
ENDBRANCH  19  21
BRANCH  18  26
HETATM   26  O   UNK N   1      20.774  16.447   2.630  0.00  0.00    -0.348 OA
HETATM   27  H   UNK N   1      20.912  15.529   2.755  0.00  0.00     0.219 HD
ENDBRANCH  18  26
ENDBRANCH   1  18
BRANCH   1  28
HETATM   28  N   UNK N   1      23.461  17.385   4.724  0.00  0.00    -0.362 N 
HETATM   29  C   UNK N   1      24.467  16.775   5.250  0.00  0.00     0.111 C 
ATOM     30  HN  UNK N   1      23.639  18.301   4.311  1.00  0.00     0.162 HD
BRANCH  29  31
HETATM   31  C   UNK N   1      25.838  17.330   5.016  0.00  0.00     0.086 C 
BRANCH  31  32
HETATM   32  C   UNK N   1      25.969  18.081   3.703  0.00  0.00     0.043 C 
BRANCH  32  33
HETATM   33  C   UNK N   1      26.068  19.588   3.891  0.00  0.00     0.173 C 
BRANCH  33  34
HETATM   34  C   UNK N   1      24.995  20.251   3.086  0.00  0.00     0.163 C 
HETATM   35  O   UNK N   1      25.281  20.919   2.104  0.00  0.00    -0.648 OA
BRANCH  34  36
HETATM   36  O   UNK N   1      23.704  20.097   3.437  0.00  0.00    -0.775 OA
HETATM   37  H   UNK N   1      23.046  19.982   2.781  0.00  0.00     0.167 HD
ENDBRANCH  34  36
ENDBRANCH  33  34
BRANCH  33  38
HETATM   38  N   UNK N   1      27.374  20.071   3.469  0.00  0.00    -0.418 N 
HETATM   39  H   UNK N   1      28.292  19.630   3.409  0.00  0.00     0.150 HD
HETATM   40  H   UNK N   1      27.372  21.048   3.175  0.00  0.00     0.150 HD
ENDBRANCH  33  38
ENDBRANCH  32  33
ENDBRANCH  31  32
ENDBRANCH  29  31
BRANCH  29  41
HETATM   41  O   UNK N   1      24.308  15.605   5.904  0.00  0.00    -0.350 OA
HETATM   42  H   UNK N   1      23.805  14.842   6.111  0.00  0.00     0.219 HD
ENDBRANCH  29  41
ENDBRANCH   1  28
TORSDOF 21
ENDMDL
MODEL 3
REMARK VINA RESULT:      -6.7      3.647     11.159
REMARK  21 active torsions:
REMARK  status: ('A' for Active; 'I' for Inactive)
REMARK    1  A    between atoms: C_6  and  C_5 
REMARK    2  A    between atoms: C_12  and  C_5 
REMARK    3  A    between atoms: C_14  and  C_6 
REMARK    4  A    between atoms: C_15  and  C_7 
REMARK    5  A    between atoms: N_20  and  C_7 
REMARK    6  A    between atoms: C_10  and  C_8 
REMARK    7  A    between atoms: O_34  and  C_8 
REMARK    8  A    between atoms: C_13  and  C_9 
REMARK    9  A    between atoms: S_35  and  C_9 
REMARK   10  A    between atoms: N_24  and  C_11 
REMARK   11  A    between atoms: C_17  and  C_12 
REMARK   12  A    between atoms: C_12  and  N_19 
REMARK   13  A    between atoms: C_16  and  C_13 
REMARK   14  A    between atoms: C_13  and  N_22 
REMARK   15  A    between atoms: C_14  and  O_25 
REMARK   16  A    between atoms: O_27  and  C_15 
REMARK   17  A    between atoms: O_28  and  C_16 
REMARK   18  A    between atoms: O_30  and  C_17 
REMARK   19  A    between atoms: O_31  and  C_18 
REMARK   20  A    between atoms: O_34  and  C_18 
REMARK   21  A    between atoms: S_35  and  C_18 
ROOT
HETATM    1  C   UNK N   1      32.066  15.993   7.580  0.00  0.00     0.167 C 
ENDROOT
BRANCH   1   2
HETATM    2  C   UNK N   1      31.166  15.277   6.553  0.00  0.00     0.112 C 
BRANCH   2   3
HETATM    3  S   UNK N   1      31.625  15.471   4.774  0.00  0.00    -0.107 SA
BRANCH   3   4
HETATM    4  C   UNK N   1      30.444  16.749   4.184  0.00  0.00     0.322 C 
BRANCH   4   5
HETATM    5  O   UNK N   1      31.050  18.010   4.076  0.00  0.00    -0.362 OA
HETATM    6  H   UNK N   1      31.021  18.980   4.089  0.00  0.00     0.213 HD
ENDBRANCH   4   5
BRANCH   4   7
HETATM    7  O   UNK N   1      29.241  16.760   4.919  0.00  0.00    -0.348 OA
BRANCH   7   8
HETATM    8  C   UNK N   1      28.929  18.086   5.219  0.00  0.00     0.210 C 
BRANCH   8   9
HETATM    9  C   UNK N   1      27.827  18.613   4.385  0.00  0.00    -0.034 A 
HETATM   10  C   UNK N   1      27.663  19.991   4.246  0.00  0.00     0.012 A 
HETATM   11  C   UNK N   1      26.476  20.500   3.726  0.00  0.00     0.037 A 
HETATM   12  C   UNK N   1      25.434  19.632   3.366  0.00  0.00     0.102 A 
HETATM   13  C   UNK N   1      25.634  18.243   3.444  0.00  0.00     0.037 A 
HETATM   14  C   UNK N   1      26.828  17.737   3.957  0.00  0.00     0.012 A 
BRANCH  12  15
HETATM   15  N   UNK N   1      24.152  20.152   3.042  0.00  0.00    -0.116 N 
HETATM   16  O   UNK N   1      23.208  19.881   3.717  0.00  0.00    -0.532 OA
HETATM   17  O   UNK N   1      24.050  21.004   2.207  0.00  0.00    -0.532 OA
ENDBRANCH  12  15
ENDBRANCH   8   9
ENDBRANCH   7   8
ENDBRANCH   4   7
ENDBRANCH   3   4
ENDBRANCH   2   3
ENDBRANCH   1   2
BRANCH   1  18
HETATM   18  C   UNK N   1      31.200  16.709   8.603  0.00  0.00     0.136 C 
HETATM   19  N   UNK N   1      30.625  17.834   8.342  0.00  0.00    -0.363 N 
ATOM     20  HN  UNK N   1      30.743  18.260   7.423  1.00  0.00     0.161 HD
BRANCH  19  21
HETATM   21  C   UNK N   1      29.812  18.499   9.340  0.00  0.00     0.231 C 
BRANCH  21  22
HETATM   22  C   UNK N   1      28.358  18.157   9.218  0.00  0.00     0.158 C 
HETATM   23  O   UNK N   1      27.917  17.118   9.683  0.00  0.00    -0.649 OA
BRANCH  22  24
HETATM   24  O   UNK N   1      27.528  19.017   8.598  0.00  0.00    -0.775 OA
HETATM   25  H   UNK N   1      26.989  19.602   9.093  0.00  0.00     0.167 HD
ENDBRANCH  22  24
ENDBRANCH  21  22
ENDBRANCH  19  21
BRANCH  18  26
HETATM   26  O   UNK N   1      31.029  16.130   9.813  0.00  0.00    -0.348 OA
HETATM   27  H   UNK N   1      31.398  15.295  10.022  0.00  0.00     0.219 HD
ENDBRANCH  18  26
ENDBRANCH   1  18
BRANCH   1  28
HETATM   28  N   UNK N   1      33.070  15.085   8.114  0.00  0.00    -0.362 N 
HETATM   29  C   UNK N   1      34.347  15.224   8.013  0.00  0.00     0.111 C 
ATOM     30  HN  UNK N   1      32.732  14.263   8.615  1.00  0.00     0.162 HD
BRANCH  29  31
HETATM   31  C   UNK N   1      35.228  14.320   8.819  0.00  0.00     0.086 C 
BRANCH  31  32
HETATM   32  C   UNK N   1      36.208  15.067   9.707  0.00  0.00     0.043 C 
BRANCH  32  33
HETATM   33  C   UNK N   1      35.535  15.733  10.898  0.00  0.00     0.173 C 
BRANCH  33  34
HETATM   34  C   UNK N   1      34.512  14.799  11.465  0.00  0.00     0.163 C 
HETATM   35  O   UNK N   1      34.848  13.891  12.210  0.00  0.00    -0.648 OA
BRANCH  34  36
HETATM   36  O   UNK N   1      33.211  14.971  11.166  0.00  0.00    -0.775 OA
HETATM   37  H   UNK N   1      32.897  15.805  10.876  0.00  0.00     0.167 HD
ENDBRANCH  34  36
ENDBRANCH  33  34
BRANCH  33  38
HETATM   38  N   UNK N   1      34.899  16.979  10.496  0.00  0.00    -0.418 N 
HETATM   39  H   UNK N   1      35.169  17.958  10.590  0.00  0.00     0.150 HD
HETATM   40  H   UNK N   1      34.003  16.846  10.027  0.00  0.00     0.150 HD
ENDBRANCH  33  38
ENDBRANCH  32  33
ENDBRANCH  31  32
ENDBRANCH  29  31
BRANCH  29  41
HETATM   41  O   UNK N   1      34.883  16.227   7.286  0.00  0.00    -0.350 OA
HETATM   42  H   UNK N   1      34.829  17.076   6.895  0.00  0.00     0.219 HD
ENDBRANCH  29  41
ENDBRANCH   1  28
TORSDOF 21
ENDMDL
MODEL 4
REMARK VINA RESULT:      -6.5      5.410      7.751
REMARK  21 active torsions:
REMARK  status: ('A' for Active; 'I' for Inactive)
REMARK    1  A    between atoms: C_6  and  C_5 
REMARK    2  A    between atoms: C_12  and  C_5 
REMARK    3  A    between atoms: C_14  and  C_6 
REMARK    4  A    between atoms: C_15  and  C_7 
REMARK    5  A    between atoms: N_20  and  C_7 
REMARK    6  A    between atoms: C_10  and  C_8 
REMARK    7  A    between atoms: O_34  and  C_8 
REMARK    8  A    between atoms: C_13  and  C_9 
REMARK    9  A    between atoms: S_35  and  C_9 
REMARK   10  A    between atoms: N_24  and  C_11 
REMARK   11  A    between atoms: C_17  and  C_12 
REMARK   12  A    between atoms: C_12  and  N_19 
REMARK   13  A    between atoms: C_16  and  C_13 
REMARK   14  A    between atoms: C_13  and  N_22 
REMARK   15  A    between atoms: C_14  and  O_25 
REMARK   16  A    between atoms: O_27  and  C_15 
REMARK   17  A    between atoms: O_28  and  C_16 
REMARK   18  A    between atoms: O_30  and  C_17 
REMARK   19  A    between atoms: O_31  and  C_18 
REMARK   20  A    between atoms: O_34  and  C_18 
REMARK   21  A    between atoms: S_35  and  C_18 
ROOT
HETATM    1  C   UNK N   1      22.596  16.958   4.867  0.00  0.00     0.167 C 
ENDROOT
BRANCH   1   2
HETATM    2  C   UNK N   1      22.674  16.168   6.189  0.00  0.00     0.112 C 
BRANCH   2   3
HETATM    3  S   UNK N   1      21.231  16.325   7.333  0.00  0.00    -0.107 SA
BRANCH   3   4
HETATM    4  C   UNK N   1      20.041  15.098   6.660  0.00  0.00     0.322 C 
BRANCH   4   5
HETATM    5  O   UNK N   1      18.804  15.685   6.352  0.00  0.00    -0.362 OA
HETATM    6  H   UNK N   1      18.117  16.357   6.484  0.00  0.00     0.213 HD
ENDBRANCH   4   5
BRANCH   4   7
HETATM    7  O   UNK N   1      19.936  13.944   7.463  0.00  0.00    -0.348 OA
BRANCH   7   8
HETATM    8  C   UNK N   1      21.081  13.171   7.263  0.00  0.00     0.210 C 
BRANCH   8   9
HETATM    9  C   UNK N   1      21.596  12.583   8.518  0.00  0.00    -0.034 A 
HETATM   10  C   UNK N   1      21.008  12.926   9.735  0.00  0.00     0.012 A 
HETATM   11  C   UNK N   1      21.659  12.628  10.929  0.00  0.00     0.037 A 
HETATM   12  C   UNK N   1      22.917  12.007  10.910  0.00  0.00     0.102 A 
HETATM   13  C   UNK N   1      23.469  11.602   9.684  0.00  0.00     0.037 A 
HETATM   14  C   UNK N   1      22.810  11.895   8.490  0.00  0.00     0.012 A 
BRANCH  12  15
HETATM   15  N   UNK N   1      23.676  11.898  12.107  0.00  0.00    -0.116 N 
HETATM   16  O   UNK N   1      24.863  12.003  12.074  0.00  0.00    -0.532 OA
HETATM   17  O   UNK N   1      23.118  11.885  13.166  0.00  0.00    -0.532 OA
ENDBRANCH  12  15
ENDBRANCH   8   9
ENDBRANCH   7   8
ENDBRANCH   4   7
ENDBRANCH   3   4
ENDBRANCH   2   3
ENDBRANCH   1   2
BRANCH   1  18
HETATM   18  C   UNK N   1      23.805  17.870   4.747  0.00  0.00     0.136 C 
HETATM   19  N   UNK N   1      23.748  19.002   4.130  0.00  0.00    -0.363 N 
ATOM     20  HN  UNK N   1      22.868  19.305   3.712  1.00  0.00     0.161 HD
BRANCH  19  21
HETATM   21  C   UNK N   1      24.920  19.847   4.024  0.00  0.00     0.231 C 
BRANCH  21  22
HETATM   22  C   UNK N   1      24.945  20.638   2.751  0.00  0.00     0.158 C 
HETATM   23  O   UNK N   1      23.914  20.886   2.146  0.00  0.00    -0.649 OA
BRANCH  22  24
HETATM   24  O   UNK N   1      26.122  21.090   2.278  0.00  0.00    -0.775 OA
HETATM   25  H   UNK N   1      26.154  21.832   1.706  0.00  0.00     0.167 HD
ENDBRANCH  22  24
ENDBRANCH  21  22
ENDBRANCH  19  21
BRANCH  18  26
HETATM   26  O   UNK N   1      24.964  17.474   5.320  0.00  0.00    -0.348 OA
HETATM   27  H   UNK N   1      25.167  16.570   5.459  0.00  0.00     0.219 HD
ENDBRANCH  18  26
ENDBRANCH   1  18
BRANCH   1  28
HETATM   28  N   UNK N   1      22.350  16.068   3.742  0.00  0.00    -0.362 N 
HETATM   29  C   UNK N   1      21.203  15.814   3.214  0.00  0.00     0.111 C 
ATOM     30  HN  UNK N   1      23.162  15.603   3.334  1.00  0.00     0.162 HD
BRANCH  29  31
HETATM   31  C   UNK N   1      21.166  15.057   1.922  0.00  0.00     0.086 C 
BRANCH  31  32
HETATM   32  C   UNK N   1      19.758  14.726   1.458  0.00  0.00     0.043 C 
BRANCH  32  33
HETATM   33  C   UNK N   1      19.369  15.459   0.183  0.00  0.00     0.173 C 
BRANCH  33  34
HETATM   34  C   UNK N   1      19.623  16.923   0.366  0.00  0.00     0.163 C 
HETATM   35  O   UNK N   1      20.454  17.498  -0.320  0.00  0.00    -0.648 OA
BRANCH  34  36
HETATM   36  O   UNK N   1      18.918  17.614   1.281  0.00  0.00    -0.775 OA
HETATM   37  H   UNK N   1      18.132  17.257   1.643  0.00  0.00     0.167 HD
ENDBRANCH  34  36
ENDBRANCH  33  34
BRANCH  33  38
HETATM   38  N   UNK N   1      17.965  15.236  -0.127  0.00  0.00    -0.418 N 
HETATM   39  H   UNK N   1      17.296  15.732  -0.717  0.00  0.00     0.150 HD
HETATM   40  H   UNK N   1      17.570  14.419   0.339  0.00  0.00     0.150 HD
ENDBRANCH  33  38
ENDBRANCH  32  33
ENDBRANCH  31  32
ENDBRANCH  29  31
BRANCH  29  41
HETATM   41  O   UNK N   1      20.066  16.306   3.747  0.00  0.00    -0.350 OA
HETATM   42  H   UNK N   1      19.486  16.430   4.473  0.00  0.00     0.219 HD
ENDBRANCH  29  41
ENDBRANCH   1  28
TORSDOF 21
ENDMDL
MODEL 5
REMARK VINA RESULT:      -6.3      5.826      9.754
REMARK  21 active torsions:
REMARK  status: ('A' for Active; 'I' for Inactive)
REMARK    1  A    between atoms: C_6  and  C_5 
REMARK    2  A    between atoms: C_12  and  C_5 
REMARK    3  A    between atoms: C_14  and  C_6 
REMARK    4  A    between atoms: C_15  and  C_7 
REMARK    5  A    between atoms: N_20  and  C_7 
REMARK    6  A    between atoms: C_10  and  C_8 
REMARK    7  A    between atoms: O_34  and  C_8 
REMARK    8  A    between atoms: C_13  and  C_9 
REMARK    9  A    between atoms: S_35  and  C_9 
REMARK   10  A    between atoms: N_24  and  C_11 
REMARK   11  A    between atoms: C_17  and  C_12 
REMARK   12  A    between atoms: C_12  and  N_19 
REMARK   13  A    between atoms: C_16  and  C_13 
REMARK   14  A    between atoms: C_13  and  N_22 
REMARK   15  A    between atoms: C_14  and  O_25 
REMARK   16  A    between atoms: O_27  and  C_15 
REMARK   17  A    between atoms: O_28  and  C_16 
REMARK   18  A    between atoms: O_30  and  C_17 
REMARK   19  A    between atoms: O_31  and  C_18 
REMARK   20  A    between atoms: O_34  and  C_18 
REMARK   21  A    between atoms: S_35  and  C_18 
ROOT
HETATM    1  C   UNK N   1      23.118  13.973   7.769  0.00  0.00     0.167 C 
ENDROOT
BRANCH   1   2
HETATM    2  C   UNK N   1      24.074  14.771   6.860  0.00  0.00     0.112 C 
BRANCH   2   3
HETATM    3  S   UNK N   1      24.182  14.232   5.096  0.00  0.00    -0.107 SA
BRANCH   3   4
HETATM    4  C   UNK N   1      22.450  13.765   4.704  0.00  0.00     0.322 C 
BRANCH   4   5
HETATM    5  O   UNK N   1      22.352  12.430   4.278  0.00  0.00    -0.362 OA
HETATM    6  H   UNK N   1      22.333  11.750   3.587  0.00  0.00     0.213 HD
ENDBRANCH   4   5
BRANCH   4   7
HETATM    7  O   UNK N   1      21.819  14.683   3.839  0.00  0.00    -0.348 OA
BRANCH   7   8
HETATM    8  C   UNK N   1      20.945  15.461   4.598  0.00  0.00     0.210 C 
BRANCH   8   9
HETATM    9  C   UNK N   1      21.066  16.905   4.301  0.00  0.00    -0.034 A 
HETATM   10  C   UNK N   1      20.071  17.546   3.564  0.00  0.00     0.012 A 
HETATM   11  C   UNK N   1      20.311  18.806   3.023  0.00  0.00     0.037 A 
HETATM   12  C   UNK N   1      21.559  19.423   3.196  0.00  0.00     0.102 A 
HETATM   13  C   UNK N   1      22.531  18.801   3.998  0.00  0.00     0.037 A 
HETATM   14  C   UNK N   1      22.284  17.542   4.545  0.00  0.00     0.012 A 
BRANCH  12  15
HETATM   15  N   UNK N   1      21.879  20.602   2.470  0.00  0.00    -0.116 N 
HETATM   16  O   UNK N   1      21.215  20.927   1.535  0.00  0.00    -0.532 OA
HETATM   17  O   UNK N   1      22.695  21.363   2.903  0.00  0.00    -0.532 OA
ENDBRANCH  12  15
ENDBRANCH   8   9
ENDBRANCH   7   8
ENDBRANCH   4   7
ENDBRANCH   3   4
ENDBRANCH   2   3
ENDBRANCH   1   2
BRANCH   1  18
HETATM   18  C   UNK N   1      23.901  13.364   8.920  0.00  0.00     0.136 C 
HETATM   19  N   UNK N   1      23.328  12.663   9.840  0.00  0.00    -0.363 N 
ATOM     20  HN  UNK N   1      22.321  12.503   9.798  1.00  0.00     0.161 HD
BRANCH  19  21
HETATM   21  C   UNK N   1      24.099  12.103  10.931  0.00  0.00     0.231 C 
BRANCH  21  22
HETATM   22  C   UNK N   1      23.295  11.957  12.187  0.00  0.00     0.158 C 
HETATM   23  O   UNK N   1      23.822  12.059  13.284  0.00  0.00    -0.649 OA
BRANCH  22  24
HETATM   24  O   UNK N   1      21.972  11.723  12.101  0.00  0.00    -0.775 OA
HETATM   25  H   UNK N   1      21.354  12.403  12.284  0.00  0.00     0.167 HD
ENDBRANCH  22  24
ENDBRANCH  21  22
ENDBRANCH  19  21
BRANCH  18  26
HETATM   26  O   UNK N   1      25.238  13.562   8.959  0.00  0.00    -0.348 OA
HETATM   27  H   UNK N   1      25.682  14.089   8.325  0.00  0.00     0.219 HD
ENDBRANCH  18  26
ENDBRANCH   1  18
BRANCH   1  28
HETATM   28  N   UNK N   1      21.958  14.771   8.134  0.00  0.00    -0.362 N 
HETATM   29  C   UNK N   1      20.818  14.316   8.524  0.00  0.00     0.111 C 
ATOM     30  HN  UNK N   1      22.057  15.786   8.077  1.00  0.00     0.162 HD
BRANCH  29  31
HETATM   31  C   UNK N   1      19.816  15.283   9.078  0.00  0.00     0.086 C 
BRANCH  31  32
HETATM   32  C   UNK N   1      20.129  16.731   8.747  0.00  0.00     0.043 C 
BRANCH  32  33
HETATM   33  C   UNK N   1      18.900  17.627   8.793  0.00  0.00     0.173 C 
BRANCH  33  34
HETATM   34  C   UNK N   1      19.128  18.715   9.796  0.00  0.00     0.163 C 
HETATM   35  O   UNK N   1      20.190  19.319   9.824  0.00  0.00    -0.648 OA
BRANCH  34  36
HETATM   36  O   UNK N   1      18.150  19.042  10.661  0.00  0.00    -0.775 OA
HETATM   37  H   UNK N   1      17.446  19.598  10.393  0.00  0.00     0.167 HD
ENDBRANCH  34  36
ENDBRANCH  33  34
BRANCH  33  38
HETATM   38  N   UNK N   1      17.720  16.859   9.157  0.00  0.00    -0.418 N 
HETATM   39  H   UNK N   1      16.999  16.391   8.607  0.00  0.00     0.150 HD
HETATM   40  H   UNK N   1      17.586  16.770  10.164  0.00  0.00     0.150 HD
ENDBRANCH  33  38
ENDBRANCH  32  33
ENDBRANCH  31  32
ENDBRANCH  29  31
BRANCH  29  41
HETATM   41  O   UNK N   1      20.564  12.991   8.538  0.00  0.00    -0.350 OA
HETATM   42  H   UNK N   1      20.641  12.137   8.161  0.00  0.00     0.219 HD
ENDBRANCH  29  41
ENDBRANCH   1  28
TORSDOF 21
ENDMDL
MODEL 6
REMARK VINA RESULT:      -6.3      4.152     12.140
REMARK  21 active torsions:
REMARK  status: ('A' for Active; 'I' for Inactive)
REMARK    1  A    between atoms: C_6  and  C_5 
REMARK    2  A    between atoms: C_12  and  C_5 
REMARK    3  A    between atoms: C_14  and  C_6 
REMARK    4  A    between atoms: C_15  and  C_7 
REMARK    5  A    between atoms: N_20  and  C_7 
REMARK    6  A    between atoms: C_10  and  C_8 
REMARK    7  A    between atoms: O_34  and  C_8 
REMARK    8  A    between atoms: C_13  and  C_9 
REMARK    9  A    between atoms: S_35  and  C_9 
REMARK   10  A    between atoms: N_24  and  C_11 
REMARK   11  A    between atoms: C_17  and  C_12 
REMARK   12  A    between atoms: C_12  and  N_19 
REMARK   13  A    between atoms: C_16  and  C_13 
REMARK   14  A    between atoms: C_13  and  N_22 
REMARK   15  A    between atoms: C_14  and  O_25 
REMARK   16  A    between atoms: O_27  and  C_15 
REMARK   17  A    between atoms: O_28  and  C_16 
REMARK   18  A    between atoms: O_30  and  C_17 
REMARK   19  A    between atoms: O_31  and  C_18 
REMARK   20  A    between atoms: O_34  and  C_18 
REMARK   21  A    between atoms: S_35  and  C_18 
ROOT
HETATM    1  C   UNK N   1      33.340  16.596   8.208  0.00  0.00     0.167 C 
ENDROOT
BRANCH   1   2
HETATM    2  C   UNK N   1      32.313  17.729   8.402  0.00  0.00     0.112 C 
BRANCH   2   3
HETATM    3  S   UNK N   1      30.534  17.281   8.185  0.00  0.00    -0.107 SA
BRANCH   3   4
HETATM    4  C   UNK N   1      29.657  18.741   8.872  0.00  0.00     0.322 C 
BRANCH   4   5
HETATM    5  O   UNK N   1      29.612  18.710  10.275  0.00  0.00    -0.362 OA
HETATM    6  H   UNK N   1      29.396  19.104  11.135  0.00  0.00     0.213 HD
ENDBRANCH   4   5
BRANCH   4   7
HETATM    7  O   UNK N   1      28.400  18.955   8.270  0.00  0.00    -0.348 OA
BRANCH   7   8
HETATM    8  C   UNK N   1      28.346  18.198   7.099  0.00  0.00     0.210 C 
BRANCH   8   9
HETATM    9  C   UNK N   1      27.721  18.931   5.977  0.00  0.00    -0.034 A 
HETATM   10  C   UNK N   1      27.112  20.164   6.210  0.00  0.00     0.012 A 
HETATM   11  C   UNK N   1      26.269  20.714   5.248  0.00  0.00     0.037 A 
HETATM   12  C   UNK N   1      26.009  20.020   4.057  0.00  0.00     0.102 A 
HETATM   13  C   UNK N   1      26.682  18.813   3.800  0.00  0.00     0.037 A 
HETATM   14  C   UNK N   1      27.532  18.269   4.763  0.00  0.00     0.012 A 
BRANCH  12  15
HETATM   15  N   UNK N   1      24.990  20.471   3.176  0.00  0.00    -0.116 N 
HETATM   16  O   UNK N   1      23.858  20.516   3.545  0.00  0.00    -0.532 OA
HETATM   17  O   UNK N   1      25.287  20.977   2.132  0.00  0.00    -0.532 OA
ENDBRANCH  12  15
ENDBRANCH   8   9
ENDBRANCH   7   8
ENDBRANCH   4   7
ENDBRANCH   3   4
ENDBRANCH   2   3
ENDBRANCH   1   2
BRANCH   1  18
HETATM   18  C   UNK N   1      33.803  16.572   6.761  0.00  0.00     0.136 C 
HETATM   19  N   UNK N   1      33.510  15.597   5.967  0.00  0.00    -0.363 N 
ATOM     20  HN  UNK N   1      32.947  14.819   6.309  1.00  0.00     0.161 HD
BRANCH  19  21
HETATM   21  C   UNK N   1      33.973  15.597   4.594  0.00  0.00     0.231 C 
BRANCH  21  22
HETATM   22  C   UNK N   1      32.909  16.023   3.629  0.00  0.00     0.158 C 
HETATM   23  O   UNK N   1      32.229  15.196   3.040  0.00  0.00    -0.649 OA
BRANCH  22  24
HETATM   24  O   UNK N   1      32.694  17.335   3.420  0.00  0.00    -0.775 OA
HETATM   25  H   UNK N   1      32.048  17.621   2.803  0.00  0.00     0.167 HD
ENDBRANCH  22  24
ENDBRANCH  21  22
ENDBRANCH  19  21
BRANCH  18  26
HETATM   26  O   UNK N   1      34.531  17.616   6.305  0.00  0.00    -0.348 OA
HETATM   27  H   UNK N   1      34.311  18.069   5.515  0.00  0.00     0.219 HD
ENDBRANCH  18  26
ENDBRANCH   1  18
BRANCH   1  28
HETATM   28  N   UNK N   1      34.388  16.665   9.215  0.00  0.00    -0.362 N 
HETATM   29  C   UNK N   1      34.419  16.005  10.321  0.00  0.00     0.111 C 
ATOM     30  HN  UNK N   1      35.170  17.293   9.028  1.00  0.00     0.162 HD
BRANCH  29  31
HETATM   31  C   UNK N   1      35.683  16.025  11.127  0.00  0.00     0.086 C 
BRANCH  31  32
HETATM   32  C   UNK N   1      36.693  14.979  10.689  0.00  0.00     0.043 C 
BRANCH  32  33
HETATM   33  C   UNK N   1      36.602  13.694  11.499  0.00  0.00     0.173 C 
BRANCH  33  34
HETATM   34  C   UNK N   1      36.051  14.011  12.854  0.00  0.00     0.163 C 
HETATM   35  O   UNK N   1      34.891  13.745  13.129  0.00  0.00    -0.648 OA
BRANCH  34  36
HETATM   36  O   UNK N   1      36.844  14.578  13.783  0.00  0.00    -0.775 OA
HETATM   37  H   UNK N   1      36.475  15.106  14.463  0.00  0.00     0.167 HD
ENDBRANCH  34  36
ENDBRANCH  33  34
BRANCH  33  38
HETATM   38  N   UNK N   1      37.914  13.078  11.630  0.00  0.00    -0.418 N 
HETATM   39  H   UNK N   1      38.622  12.801  10.950  0.00  0.00     0.150 HD
HETATM   40  H   UNK N   1      38.178  12.884  12.596  0.00  0.00     0.150 HD
ENDBRANCH  33  38
ENDBRANCH  32  33
ENDBRANCH  31  32
ENDBRANCH  29  31
BRANCH  29  41
HETATM   41  O   UNK N   1      33.385  15.225  10.697  0.00  0.00    -0.350 OA
HETATM   42  H   UNK N   1      32.954  14.681  11.327  0.00  0.00     0.219 HD
ENDBRANCH  29  41
ENDBRANCH   1  28
TORSDOF 21
ENDMDL
MODEL 7
REMARK VINA RESULT:      -6.3      4.366      8.204
REMARK  21 active torsions:
REMARK  status: ('A' for Active; 'I' for Inactive)
REMARK    1  A    between atoms: C_6  and  C_5 
REMARK    2  A    between atoms: C_12  and  C_5 
REMARK    3  A    between atoms: C_14  and  C_6 
REMARK    4  A    between atoms: C_15  and  C_7 
REMARK    5  A    between atoms: N_20  and  C_7 
REMARK    6  A    between atoms: C_10  and  C_8 
REMARK    7  A    between atoms: O_34  and  C_8 
REMARK    8  A    between atoms: C_13  and  C_9 
REMARK    9  A    between atoms: S_35  and  C_9 
REMARK   10  A    between atoms: N_24  and  C_11 
REMARK   11  A    between atoms: C_17  and  C_12 
REMARK   12  A    between atoms: C_12  and  N_19 
REMARK   13  A    between atoms: C_16  and  C_13 
REMARK   14  A    between atoms: C_13  and  N_22 
REMARK   15  A    between atoms: C_14  and  O_25 
REMARK   16  A    between atoms: O_27  and  C_15 
REMARK   17  A    between atoms: O_28  and  C_16 
REMARK   18  A    between atoms: O_30  and  C_17 
REMARK   19  A    between atoms: O_31  and  C_18 
REMARK   20  A    between atoms: O_34  and  C_18 
REMARK   21  A    between atoms: S_35  and  C_18 
ROOT
HETATM    1  C   UNK N   1      22.396  17.196   4.438  0.00  0.00     0.167 C 
ENDROOT
BRANCH   1   2
HETATM    2  C   UNK N   1      21.755  17.461   5.814  0.00  0.00     0.112 C 
BRANCH   2   3
HETATM    3  S   UNK N   1      21.693  16.036   6.988  0.00  0.00    -0.107 SA
BRANCH   3   4
HETATM    4  C   UNK N   1      20.256  15.067   6.380  0.00  0.00     0.322 C 
BRANCH   4   5
HETATM    5  O   UNK N   1      19.114  15.868   6.227  0.00  0.00    -0.362 OA
HETATM    6  H   UNK N   1      18.155  15.987   6.138  0.00  0.00     0.213 HD
ENDBRANCH   4   5
BRANCH   4   7
HETATM    7  O   UNK N   1      20.030  13.897   7.133  0.00  0.00    -0.348 OA
BRANCH   7   8
HETATM    8  C   UNK N   1      21.148  13.072   6.996  0.00  0.00     0.210 C 
BRANCH   8   9
HETATM    9  C   UNK N   1      21.623  12.541   8.292  0.00  0.00    -0.034 A 
HETATM   10  C   UNK N   1      21.000  12.941   9.474  0.00  0.00     0.012 A 
HETATM   11  C   UNK N   1      21.615  12.697  10.699  0.00  0.00     0.037 A 
HETATM   12  C   UNK N   1      22.871  12.074  10.747  0.00  0.00     0.102 A 
HETATM   13  C   UNK N   1      23.458  11.612   9.558  0.00  0.00     0.037 A 
HETATM   14  C   UNK N   1      22.836  11.851   8.333  0.00  0.00     0.012 A 
BRANCH  12  15
HETATM   15  N   UNK N   1      23.593  12.019  11.970  0.00  0.00    -0.116 N 
HETATM   16  O   UNK N   1      23.017  11.838  12.997  0.00  0.00    -0.532 OA
HETATM   17  O   UNK N   1      24.789  11.971  11.952  0.00  0.00    -0.532 OA
ENDBRANCH  12  15
ENDBRANCH   8   9
ENDBRANCH   7   8
ENDBRANCH   4   7
ENDBRANCH   3   4
ENDBRANCH   2   3
ENDBRANCH   1   2
BRANCH   1  18
HETATM   18  C   UNK N   1      21.466  17.684   3.340  0.00  0.00     0.136 C 
HETATM   19  N   UNK N   1      21.158  18.931   3.211  0.00  0.00    -0.363 N 
ATOM     20  HN  UNK N   1      21.550  19.617   3.856  1.00  0.00     0.161 HD
BRANCH  19  21
HETATM   21  C   UNK N   1      20.262  19.367   2.160  0.00  0.00     0.231 C 
BRANCH  21  22
HETATM   22  C   UNK N   1      20.841  20.475   1.333  0.00  0.00     0.158 C 
HETATM   23  O   UNK N   1      21.521  21.350   1.845  0.00  0.00    -0.649 OA
BRANCH  22  24
HETATM   24  O   UNK N   1      20.615  20.495   0.006  0.00  0.00    -0.775 OA
HETATM   25  H   UNK N   1      20.329  19.723  -0.442  0.00  0.00     0.167 HD
ENDBRANCH  22  24
ENDBRANCH  21  22
ENDBRANCH  19  21
BRANCH  18  26
HETATM   26  O   UNK N   1      20.965  16.775   2.474  0.00  0.00    -0.348 OA
HETATM   27  H   UNK N   1      20.062  16.524   2.483  0.00  0.00     0.219 HD
ENDBRANCH  18  26
ENDBRANCH   1  18
BRANCH   1  28
HETATM   28  N   UNK N   1      23.760  17.699   4.393  0.00  0.00    -0.362 N 
HETATM   29  C   UNK N   1      24.832  16.985   4.410  0.00  0.00     0.111 C 
ATOM     30  HN  UNK N   1      23.879  18.712   4.343  1.00  0.00     0.162 HD
BRANCH  29  31
HETATM   31  C   UNK N   1      26.141  17.657   4.124  0.00  0.00     0.086 C 
BRANCH  31  32
HETATM   32  C   UNK N   1      26.690  18.435   5.308  0.00  0.00     0.043 C 
BRANCH  32  33
HETATM   33  C   UNK N   1      26.919  19.906   4.993  0.00  0.00     0.173 C 
BRANCH  33  34
HETATM   34  C   UNK N   1      27.154  20.646   6.272  0.00  0.00     0.163 C 
HETATM   35  O   UNK N   1      27.805  21.680   6.279  0.00  0.00    -0.648 OA
BRANCH  34  36
HETATM   36  O   UNK N   1      26.630  20.179   7.421  0.00  0.00    -0.775 OA
HETATM   37  H   UNK N   1      26.663  19.264   7.619  0.00  0.00     0.167 HD
ENDBRANCH  34  36
ENDBRANCH  33  34
BRANCH  33  38
HETATM   38  N   UNK N   1      25.770  20.466   4.300  0.00  0.00    -0.418 N 
HETATM   39  H   UNK N   1      25.386  20.326   3.365  0.00  0.00     0.150 HD
HETATM   40  H   UNK N   1      25.241  21.134   4.861  0.00  0.00     0.150 HD
ENDBRANCH  33  38
ENDBRANCH  32  33
ENDBRANCH  31  32
ENDBRANCH  29  31
BRANCH  29  41
HETATM   41  O   UNK N   1      24.776  15.647   4.572  0.00  0.00    -0.350 OA
HETATM   42  H   UNK N   1      24.340  14.825   4.462  0.00  0.00     0.219 HD
ENDBRANCH  29  41
ENDBRANCH   1  28
TORSDOF 21
ENDMDL
MODEL 8
REMARK VINA RESULT:      -6.1      9.948     13.566
REMARK  21 active torsions:
REMARK  status: ('A' for Active; 'I' for Inactive)
REMARK    1  A    between atoms: C_6  and  C_5 
REMARK    2  A    between atoms: C_12  and  C_5 
REMARK    3  A    between atoms: C_14  and  C_6 
REMARK    4  A    between atoms: C_15  and  C_7 
REMARK    5  A    between atoms: N_20  and  C_7 
REMARK    6  A    between atoms: C_10  and  C_8 
REMARK    7  A    between atoms: O_34  and  C_8 
REMARK    8  A    between atoms: C_13  and  C_9 
REMARK    9  A    between atoms: S_35  and  C_9 
REMARK   10  A    between atoms: N_24  and  C_11 
REMARK   11  A    between atoms: C_17  and  C_12 
REMARK   12  A    between atoms: C_12  and  N_19 
REMARK   13  A    between atoms: C_16  and  C_13 
REMARK   14  A    between atoms: C_13  and  N_22 
REMARK   15  A    between atoms: C_14  and  O_25 
REMARK   16  A    between atoms: O_27  and  C_15 
REMARK   17  A    between atoms: O_28  and  C_16 
REMARK   18  A    between atoms: O_30  and  C_17 
REMARK   19  A    between atoms: O_31  and  C_18 
REMARK   20  A    between atoms: O_34  and  C_18 
REMARK   21  A    between atoms: S_35  and  C_18 
ROOT
HETATM    1  C   UNK N   1      34.280  14.788  10.674  0.00  0.00     0.167 C 
ENDROOT
BRANCH   1   2
HETATM    2  C   UNK N   1      35.343  14.759  11.790  0.00  0.00     0.112 C 
BRANCH   2   3
HETATM    3  S   UNK N   1      36.511  13.328  11.783  0.00  0.00    -0.107 SA
BRANCH   3   4
HETATM    4  C   UNK N   1      36.749  12.986  13.572  0.00  0.00     0.322 C 
BRANCH   4   5
HETATM    5  O   UNK N   1      37.799  12.081  13.796  0.00  0.00    -0.362 OA
HETATM    6  H   UNK N   1      38.240  11.229  13.658  0.00  0.00     0.213 HD
ENDBRANCH   4   5
BRANCH   4   7
HETATM    7  O   UNK N   1      35.549  12.633  14.223  0.00  0.00    -0.348 OA
BRANCH   7   8
HETATM    8  C   UNK N   1      35.455  13.385  15.395  0.00  0.00     0.210 C 
BRANCH   8   9
HETATM    9  C   UNK N   1      35.160  12.554  16.582  0.00  0.00    -0.034 A 
HETATM   10  C   UNK N   1      35.168  13.133  17.851  0.00  0.00     0.012 A 
HETATM   11  C   UNK N   1      35.194  12.322  18.983  0.00  0.00     0.037 A 
HETATM   12  C   UNK N   1      35.240  10.926  18.851  0.00  0.00     0.102 A 
HETATM   13  C   UNK N   1      35.162  10.351  17.571  0.00  0.00     0.037 A 
HETATM   14  C   UNK N   1      35.127  11.166  16.440  0.00  0.00     0.012 A 
BRANCH  12  15
HETATM   15  N   UNK N   1      35.484  10.110  19.988  0.00  0.00    -0.116 N 
HETATM   16  O   UNK N   1      34.987  10.381  21.037  0.00  0.00    -0.532 OA
HETATM   17  O   UNK N   1      36.034   9.055  19.855  0.00  0.00    -0.532 OA
ENDBRANCH  12  15
ENDBRANCH   8   9
ENDBRANCH   7   8
ENDBRANCH   4   7
ENDBRANCH   3   4
ENDBRANCH   2   3
ENDBRANCH   1   2
BRANCH   1  18
HETATM   18  C   UNK N   1      34.138  16.205  10.142  0.00  0.00     0.136 C 
HETATM   19  N   UNK N   1      33.296  16.503   9.211  0.00  0.00    -0.363 N 
ATOM     20  HN  UNK N   1      32.699  15.775   8.818  1.00  0.00     0.161 HD
BRANCH  19  21
HETATM   21  C   UNK N   1      33.189  17.861   8.718  0.00  0.00     0.231 C 
BRANCH  21  22
HETATM   22  C   UNK N   1      34.378  18.273   7.904  0.00  0.00     0.158 C 
HETATM   23  O   UNK N   1      35.207  19.049   8.353  0.00  0.00    -0.649 OA
BRANCH  22  24
HETATM   24  O   UNK N   1      34.538  17.767   6.667  0.00  0.00    -0.775 OA
HETATM   25  H   UNK N   1      34.236  16.904   6.461  0.00  0.00     0.167 HD
ENDBRANCH  22  24
ENDBRANCH  21  22
ENDBRANCH  19  21
BRANCH  18  26
HETATM   26  O   UNK N   1      34.916  17.170  10.681  0.00  0.00    -0.348 OA
HETATM   27  H   UNK N   1      34.674  18.075  10.659  0.00  0.00     0.219 HD
ENDBRANCH  18  26
ENDBRANCH   1  18
BRANCH   1  28
HETATM   28  N   UNK N   1      34.538  13.755   9.682  0.00  0.00    -0.362 N 
HETATM   29  C   UNK N   1      33.653  13.162   8.958  0.00  0.00     0.111 C 
ATOM     30  HN  UNK N   1      35.510  13.474   9.548  1.00  0.00     0.162 HD
BRANCH  29  31
HETATM   31  C   UNK N   1      34.120  12.293   7.830  0.00  0.00     0.086 C 
BRANCH  31  32
HETATM   32  C   UNK N   1      34.595  13.079   6.621  0.00  0.00     0.043 C 
BRANCH  32  33
HETATM   33  C   UNK N   1      33.479  13.366   5.627  0.00  0.00     0.173 C 
BRANCH  33  34
HETATM   34  C   UNK N   1      33.159  14.828   5.663  0.00  0.00     0.163 C 
HETATM   35  O   UNK N   1      32.531  15.302   6.598  0.00  0.00    -0.648 OA
BRANCH  34  36
HETATM   36  O   UNK N   1      33.581  15.629   4.666  0.00  0.00    -0.775 OA
HETATM   37  H   UNK N   1      33.584  15.323   3.781  0.00  0.00     0.167 HD
ENDBRANCH  34  36
ENDBRANCH  33  34
BRANCH  33  38
HETATM   38  N   UNK N   1      32.291  12.592   5.954  0.00  0.00    -0.418 N 
HETATM   39  H   UNK N   1      31.444  12.808   6.479  0.00  0.00     0.150 HD
HETATM   40  H   UNK N   1      32.310  11.641   5.584  0.00  0.00     0.150 HD
ENDBRANCH  33  38
ENDBRANCH  32  33
ENDBRANCH  31  32
ENDBRANCH  29  31
BRANCH  29  41
HETATM   41  O   UNK N   1      32.337  13.398   9.134  0.00  0.00    -0.350 OA
HETATM   42  H   UNK N   1      31.626  13.755   9.629  0.00  0.00     0.219 HD
ENDBRANCH  29  41
ENDBRANCH   1  28
TORSDOF 21
ENDMDL
MODEL 9
REMARK VINA RESULT:      -6.1      1.645      2.280
REMARK  21 active torsions:
REMARK  status: ('A' for Active; 'I' for Inactive)
REMARK    1  A    between atoms: C_6  and  C_5 
REMARK    2  A    between atoms: C_12  and  C_5 
REMARK    3  A    between atoms: C_14  and  C_6 
REMARK    4  A    between atoms: C_15  and  C_7 
REMARK    5  A    between atoms: N_20  and  C_7 
REMARK    6  A    between atoms: C_10  and  C_8 
REMARK    7  A    between atoms: O_34  and  C_8 
REMARK    8  A    between atoms: C_13  and  C_9 
REMARK    9  A    between atoms: S_35  and  C_9 
REMARK   10  A    between atoms: N_24  and  C_11 
REMARK   11  A    between atoms: C_17  and  C_12 
REMARK   12  A    between atoms: C_12  and  N_19 
REMARK   13  A    between atoms: C_16  and  C_13 
REMARK   14  A    between atoms: C_13  and  N_22 
REMARK   15  A    between atoms: C_14  and  O_25 
REMARK   16  A    between atoms: O_27  and  C_15 
REMARK   17  A    between atoms: O_28  and  C_16 
REMARK   18  A    between atoms: O_30  and  C_17 
REMARK   19  A    between atoms: O_31  and  C_18 
REMARK   20  A    between atoms: O_34  and  C_18 
REMARK   21  A    between atoms: S_35  and  C_18 
ROOT
HETATM    1  C   UNK N   1      23.900  18.264   4.248  0.00  0.00     0.167 C 
ENDROOT
BRANCH   1   2
HETATM    2  C   UNK N   1      25.292  18.190   3.592  0.00  0.00     0.112 C 
BRANCH   2   3
HETATM    3  S   UNK N   1      26.711  18.832   4.586  0.00  0.00    -0.107 SA
BRANCH   3   4
HETATM    4  C   UNK N   1      27.403  17.309   5.342  0.00  0.00     0.322 C 
BRANCH   4   5
HETATM    5  O   UNK N   1      27.037  17.182   6.692  0.00  0.00    -0.362 OA
HETATM    6  H   UNK N   1      26.539  17.464   7.475  0.00  0.00     0.213 HD
ENDBRANCH   4   5
BRANCH   4   7
HETATM    7  O   UNK N   1      28.787  17.168   5.116  0.00  0.00    -0.348 OA
BRANCH   7   8
HETATM    8  C   UNK N   1      29.347  16.544   6.231  0.00  0.00     0.210 C 
BRANCH   8   9
HETATM    9  C   UNK N   1      30.595  17.198   6.681  0.00  0.00    -0.034 A 
HETATM   10  C   UNK N   1      31.737  17.132   5.883  0.00  0.00     0.012 A 
HETATM   11  C   UNK N   1      32.977  17.470   6.418  0.00  0.00     0.037 A 
HETATM   12  C   UNK N   1      33.086  17.852   7.763  0.00  0.00     0.102 A 
HETATM   13  C   UNK N   1      31.922  17.983   8.540  0.00  0.00     0.037 A 
HETATM   14  C   UNK N   1      30.680  17.651   7.999  0.00  0.00     0.012 A 
BRANCH  12  15
HETATM   15  N   UNK N   1      34.366  17.987   8.365  0.00  0.00    -0.116 N 
HETATM   16  O   UNK N   1      34.937  19.032   8.327  0.00  0.00    -0.532 OA
HETATM   17  O   UNK N   1      34.789  17.113   9.066  0.00  0.00    -0.532 OA
ENDBRANCH  12  15
ENDBRANCH   8   9
ENDBRANCH   7   8
ENDBRANCH   4   7
ENDBRANCH   3   4
ENDBRANCH   2   3
ENDBRANCH   1   2
BRANCH   1  18
HETATM   18  C   UNK N   1      23.086  19.369   3.594  0.00  0.00     0.136 C 
HETATM   19  N   UNK N   1      21.855  19.196   3.249  0.00  0.00    -0.363 N 
ATOM     20  HN  UNK N   1      21.403  18.298   3.422  1.00  0.00     0.161 HD
BRANCH  19  21
HETATM   21  C   UNK N   1      21.107  20.265   2.619  0.00  0.00     0.231 C 
BRANCH  21  22
HETATM   22  C   UNK N   1      21.011  20.100   1.132  0.00  0.00     0.158 C 
HETATM   23  O   UNK N   1      21.490  20.931   0.377  0.00  0.00    -0.649 OA
BRANCH  22  24
HETATM   24  O   UNK N   1      20.397  19.013   0.627  0.00  0.00    -0.775 OA
HETATM   25  H   UNK N   1      19.463  18.938   0.650  0.00  0.00     0.167 HD
ENDBRANCH  22  24
ENDBRANCH  21  22
ENDBRANCH  19  21
BRANCH  18  26
HETATM   26  O   UNK N   1      23.682  20.564   3.386  0.00  0.00    -0.348 OA
HETATM   27  H   UNK N   1      23.375  21.167   2.738  0.00  0.00     0.219 HD
ENDBRANCH  18  26
ENDBRANCH   1  18
BRANCH   1  28
HETATM   28  N   UNK N   1      23.275  16.951   4.295  0.00  0.00    -0.362 N 
HETATM   29  C   UNK N   1      23.394  16.089   5.245  0.00  0.00     0.111 C 
ATOM     30  HN  UNK N   1      22.690  16.687   3.502  1.00  0.00     0.162 HD
BRANCH  29  31
HETATM   31  C   UNK N   1      22.499  14.888   5.234  0.00  0.00     0.086 C 
BRANCH  31  32
HETATM   32  C   UNK N   1      21.781  14.657   6.552  0.00  0.00     0.043 C 
BRANCH  32  33
HETATM   33  C   UNK N   1      20.849  15.801   6.924  0.00  0.00     0.173 C 
BRANCH  33  34
HETATM   34  C   UNK N   1      20.182  15.481   8.226  0.00  0.00     0.163 C 
HETATM   35  O   UNK N   1      19.722  16.373   8.921  0.00  0.00    -0.648 OA
BRANCH  34  36
HETATM   36  O   UNK N   1      20.074  14.199   8.624  0.00  0.00    -0.775 OA
HETATM   37  H   UNK N   1      19.232  13.823   8.790  0.00  0.00     0.167 HD
ENDBRANCH  34  36
ENDBRANCH  33  34
BRANCH  33  38
HETATM   38  N   UNK N   1      19.846  16.000   5.890  0.00  0.00    -0.418 N 
HETATM   39  H   UNK N   1      18.884  16.340   5.911  0.00  0.00     0.150 HD
HETATM   40  H   UNK N   1      20.168  15.749   4.955  0.00  0.00     0.150 HD
ENDBRANCH  33  38
ENDBRANCH  32  33
ENDBRANCH  31  32
ENDBRANCH  29  31
BRANCH  29  41
HETATM   41  O   UNK N   1      24.223  16.310   6.286  0.00  0.00    -0.350 OA
HETATM   42  H   UNK N   1      24.918  16.039   6.853  0.00  0.00     0.219 HD
ENDBRANCH  29  41
ENDBRANCH   1  28
TORSDOF 21
ENDMDL
