REMARK  8 active torsions:
REMARK  status: ('A' for Active; 'I' for Inactive)
REMARK    1  A    between atoms: C_3  and  C_2 
REMARK    2  A    between atoms: C_9  and  C_3 
REMARK    3  A    between atoms: C_15  and  C_9 
REMARK    4  A    between atoms: C_13  and  C_12 
REMARK    5  A    between atoms: C_14  and  C_12 
REMARK    6  A    between atoms: C_17  and  C_15 
REMARK    7  A    between atoms: C_15  and  N_19 
REMARK    8  A    between atoms: O_22  and  C_17 
ROOT
HETATM    1  C   UNK N   1       5.049   1.150   0.206  0.00  0.00     0.134 C 
HETATM    2  C   UNK N   1       4.309  -0.121   0.569  0.00  0.00     0.146 C 
HETATM    3  C   UNK N   1       7.177   0.017   0.245  0.00  0.00     0.174 C 
HETATM    4  C   UNK N   1       6.378  -1.231  -0.128  0.00  0.00     0.243 C 
HETATM    5  N   UNK N   1       6.355   1.082   0.839  0.00  0.00    -0.407 N 
HETATM    6  N   UNK N   1       5.014  -1.290   0.064  0.00  0.00    -0.334 N 
HETATM    7  O   UNK N   1       6.978  -2.190  -0.592  0.00  0.00    -0.271 OA
HETATM    8  H   UNK N   1       6.662   1.693   1.596  0.00  0.00     0.154 HD
ENDROOT
BRANCH   6   9
HETATM    9  C   UNK N   1       4.251  -2.513  -0.264  0.00  0.00     0.185 C 
BRANCH   9  10
HETATM   10  C   UNK N   1       2.746  -2.307   0.014  0.00  0.00     0.036 C 
BRANCH  10  11
HETATM   11  C   UNK N   1       1.840  -3.447  -0.413  0.00  0.00     0.002 C 
BRANCH  11  12
HETATM   12  C   UNK N   1       0.430  -3.122   0.041  0.00  0.00    -0.004 C 
HETATM   13  C   UNK N   1      -0.510  -4.244  -0.342  0.00  0.00     0.005 C 
ENDBRANCH  11  12
ENDBRANCH  10  11
ENDBRANCH   9  10
BRANCH   9  14
HETATM   14  C   UNK N   1       4.742  -3.721   0.520  0.00  0.00     0.163 C 
HETATM   15  O   UNK N   1       5.606  -3.607   1.375  0.00  0.00    -0.648 OA
BRANCH  14  16
HETATM   16  O   UNK N   1       4.233  -4.941   0.260  0.00  0.00    -0.775 OA
HETATM   17  H   UNK N   1       3.321  -5.059   0.079  0.00  0.00     0.167 HD
ENDBRANCH  14  16
ENDBRANCH   9  14
ENDBRANCH   6   9
BRANCH   3  18
HETATM   18  C   UNK N   1       7.952   0.552  -0.964  0.00  0.00     0.073 C 
BRANCH  18  19
HETATM   19  C   UNK N   1       8.875   1.664  -0.570  0.00  0.00    -0.056 A 
HETATM   20  C   UNK N   1       8.401   2.980  -0.511  0.00  0.00     0.007 A 
HETATM   21  C   UNK N   1       9.256   4.017  -0.123  0.00  0.00     0.001 A 
HETATM   22  C   UNK N   1      10.586   3.740   0.207  0.00  0.00     0.000 A 
HETATM   23  C   UNK N   1      11.063   2.427   0.146  0.00  0.00     0.001 A 
HETATM   24  C   UNK N   1      10.209   1.389  -0.243  0.00  0.00     0.007 A 
ENDBRANCH  18  19
ENDBRANCH   3  18
TORSDOF 8
