MODEL 1
REMARK VINA RESULT:      -5.2      0.000      0.000
REMARK  12 active torsions:
REMARK  status: ('A' for Active; 'I' for Inactive)
REMARK    1  A    between atoms: P_1  and  O_2 
REMARK    2  A    between atoms: P_1  and  O_3 
REMARK    3  A    between atoms: P_1  and  O_4 
REMARK    4  A    between atoms: C_6  and  O_2 
REMARK    5  A    between atoms: C_7  and  O_10 
REMARK    6  A    between atoms: C_8  and  O_12 
REMARK    7  A    between atoms: C_9  and  O_14 
REMARK    8  A    between atoms: C_11  and  O_15 
REMARK    9  A    between atoms: C_13  and  O_16 
REMARK   10  A    between atoms: O_16  and  P_17 
REMARK   11  A    between atoms: P_17  and  O_18 
REMARK   12  A    between atoms: P_17  and  O_19 
ROOT
HETATM    1  C   UNK N   1      34.562  15.331   9.991  0.00  0.00     0.196 C 
HETATM    2  C   UNK N   1      34.555  16.805   9.578  0.00  0.00     0.181 C 
HETATM    3  C   UNK N   1      33.352  14.606   9.390  0.00  0.00     0.181 C 
HETATM    4  C   UNK N   1      34.539  16.943   8.053  0.00  0.00     0.181 C 
HETATM    5  C   UNK N   1      33.345  14.739   7.868  0.00  0.00     0.181 C 
HETATM    6  C   UNK N   1      33.335  16.211   7.454  0.00  0.00     0.196 C 
ENDROOT
BRANCH   1   7
HETATM    7  O   UNK N   1      34.525  15.237  11.392  0.00  0.00    -0.286 OA
BRANCH   7   8
HETATM    8  P   UNK N   1      35.806  14.140  11.827  0.00  0.00     0.391 P 
HETATM    9  O   UNK N   1      34.598  13.574  12.623  0.00  0.00    -0.632 OA
BRANCH   8  10
HETATM   10  O   UNK N   1      36.395  14.075  13.458  0.00  0.00    -0.307 OA
HETATM   11  H   UNK N   1      35.954  13.541  14.137  0.00  0.00     0.222 HD
ENDBRANCH   8  10
BRANCH   8  12
HETATM   12  O   UNK N   1      36.193  15.732  12.403  0.00  0.00    -0.307 OA
HETATM   13  H   UNK N   1      35.867  16.160  13.210  0.00  0.00     0.222 HD
ENDBRANCH   8  12
ENDBRANCH   7   8
ENDBRANCH   1   7
BRANCH   2  14
HETATM   14  O   UNK N   1      35.685  17.445  10.090  0.00  0.00    -0.390 OA
HETATM   15  H   UNK N   1      36.452  17.681   9.546  0.00  0.00     0.210 HD
ENDBRANCH   2  14
BRANCH   3  16
HETATM   16  O   UNK N   1      33.391  13.254   9.733  0.00  0.00    -0.390 OA
HETATM   17  H   UNK N   1      32.588  12.719   9.829  0.00  0.00     0.210 HD
ENDBRANCH   3  16
BRANCH   4  18
HETATM   18  O   UNK N   1      34.485  18.296   7.712  0.00  0.00    -0.390 OA
HETATM   19  H   UNK N   1      35.091  18.697   7.070  0.00  0.00     0.210 HD
ENDBRANCH   4  18
BRANCH   5  20
HETATM   20  O   UNK N   1      32.219  14.095   7.352  0.00  0.00    -0.390 OA
HETATM   21  H   UNK N   1      31.541  14.554   6.831  0.00  0.00     0.210 HD
ENDBRANCH   5  20
BRANCH   6  22
HETATM   22  O   UNK N   1      33.374  16.303   6.054  0.00  0.00    -0.286 OA
BRANCH  22  23
HETATM   23  P   UNK N   1      31.930  17.165   5.601  0.00  0.00     0.391 P 
HETATM   24  O   UNK N   1      31.743  15.825   4.841  0.00  0.00    -0.632 OA
BRANCH  23  25
HETATM   25  O   UNK N   1      31.688  17.698   3.968  0.00  0.00    -0.307 OA
HETATM   26  H   UNK N   1      30.866  17.511   3.488  0.00  0.00     0.222 HD
ENDBRANCH  23  25
BRANCH  23  27
HETATM   27  O   UNK N   1      33.332  17.982   4.982  0.00  0.00    -0.307 OA
HETATM   28  H   UNK N   1      33.727  18.067   4.101  0.00  0.00     0.222 HD
ENDBRANCH  23  27
ENDBRANCH  22  23
ENDBRANCH   6  22
TORSDOF 12
ENDMDL
MODEL 2
REMARK VINA RESULT:      -5.2      0.023      6.247
REMARK  12 active torsions:
REMARK  status: ('A' for Active; 'I' for Inactive)
REMARK    1  A    between atoms: P_1  and  O_2 
REMARK    2  A    between atoms: P_1  and  O_3 
REMARK    3  A    between atoms: P_1  and  O_4 
REMARK    4  A    between atoms: C_6  and  O_2 
REMARK    5  A    between atoms: C_7  and  O_10 
REMARK    6  A    between atoms: C_8  and  O_12 
REMARK    7  A    between atoms: C_9  and  O_14 
REMARK    8  A    between atoms: C_11  and  O_15 
REMARK    9  A    between atoms: C_13  and  O_16 
REMARK   10  A    between atoms: O_16  and  P_17 
REMARK   11  A    between atoms: P_17  and  O_18 
REMARK   12  A    between atoms: P_17  and  O_19 
ROOT
HETATM    1  C   UNK N   1      33.333  16.206   7.450  0.00  0.00     0.196 C 
HETATM    2  C   UNK N   1      34.537  16.938   8.046  0.00  0.00     0.181 C 
HETATM    3  C   UNK N   1      33.348  14.731   7.868  0.00  0.00     0.181 C 
HETATM    4  C   UNK N   1      34.555  16.806   9.571  0.00  0.00     0.181 C 
HETATM    5  C   UNK N   1      33.357  14.603   9.391  0.00  0.00     0.181 C 
HETATM    6  C   UNK N   1      34.561  15.332   9.988  0.00  0.00     0.196 C 
ENDROOT
BRANCH   1   7
HETATM    7  O   UNK N   1      33.372  16.302   6.049  0.00  0.00    -0.286 OA
BRANCH   7   8
HETATM    8  P   UNK N   1      31.933  17.171   5.593  0.00  0.00     0.391 P 
HETATM    9  O   UNK N   1      31.752  15.817   4.852  0.00  0.00    -0.632 OA
BRANCH   8  10
HETATM   10  O   UNK N   1      31.674  17.647   3.944  0.00  0.00    -0.307 OA
HETATM   11  H   UNK N   1      30.783  17.718   3.569  0.00  0.00     0.222 HD
ENDBRANCH   8  10
BRANCH   8  12
HETATM   12  O   UNK N   1      33.325  18.000   4.969  0.00  0.00    -0.307 OA
HETATM   13  H   UNK N   1      34.256  17.823   5.177  0.00  0.00     0.222 HD
ENDBRANCH   8  12
ENDBRANCH   7   8
ENDBRANCH   1   7
BRANCH   2  14
HETATM   14  O   UNK N   1      34.489  18.289   7.697  0.00  0.00    -0.390 OA
HETATM   15  H   UNK N   1      34.850  18.634   6.866  0.00  0.00     0.210 HD
ENDBRANCH   2  14
BRANCH   3  16
HETATM   16  O   UNK N   1      32.223  14.082   7.360  0.00  0.00    -0.390 OA
HETATM   17  H   UNK N   1      32.246  13.159   7.061  0.00  0.00     0.210 HD
ENDBRANCH   3  16
BRANCH   4  18
HETATM   18  O   UNK N   1      35.690  17.443  10.076  0.00  0.00    -0.390 OA
HETATM   19  H   UNK N   1      36.044  18.260   9.692  0.00  0.00     0.210 HD
ENDBRANCH   4  18
BRANCH   5  20
HETATM   20  O   UNK N   1      33.400  13.253   9.743  0.00  0.00    -0.390 OA
HETATM   21  H   UNK N   1      32.810  12.587   9.355  0.00  0.00     0.210 HD
ENDBRANCH   5  20
BRANCH   6  22
HETATM   22  O   UNK N   1      34.520  15.237  11.387  0.00  0.00    -0.286 OA
BRANCH  22  23
HETATM   23  P   UNK N   1      35.800  14.138  11.820  0.00  0.00     0.391 P 
HETATM   24  O   UNK N   1      34.610  13.567  12.637  0.00  0.00    -0.632 OA
BRANCH  23  25
HETATM   25  O   UNK N   1      36.440  14.109  13.433  0.00  0.00    -0.307 OA
HETATM   26  H   UNK N   1      36.842  14.894  13.835  0.00  0.00     0.222 HD
ENDBRANCH  23  25
BRANCH  23  27
HETATM   27  O   UNK N   1      36.168  15.736  12.390  0.00  0.00    -0.307 OA
HETATM   28  H   UNK N   1      36.279  16.129  13.269  0.00  0.00     0.222 HD
ENDBRANCH  23  27
ENDBRANCH  22  23
ENDBRANCH   6  22
TORSDOF 12
ENDMDL
MODEL 3
REMARK VINA RESULT:      -5.1      1.301      6.520
REMARK  12 active torsions:
REMARK  status: ('A' for Active; 'I' for Inactive)
REMARK    1  A    between atoms: P_1  and  O_2 
REMARK    2  A    between atoms: P_1  and  O_3 
REMARK    3  A    between atoms: P_1  and  O_4 
REMARK    4  A    between atoms: C_6  and  O_2 
REMARK    5  A    between atoms: C_7  and  O_10 
REMARK    6  A    between atoms: C_8  and  O_12 
REMARK    7  A    between atoms: C_9  and  O_14 
REMARK    8  A    between atoms: C_11  and  O_15 
REMARK    9  A    between atoms: C_13  and  O_16 
REMARK   10  A    between atoms: O_16  and  P_17 
REMARK   11  A    between atoms: P_17  and  O_18 
REMARK   12  A    between atoms: P_17  and  O_19 
ROOT
HETATM    1  C   UNK N   1      33.325  16.144   7.039  0.00  0.00     0.196 C 
HETATM    2  C   UNK N   1      32.666  15.122   7.968  0.00  0.00     0.181 C 
HETATM    3  C   UNK N   1      33.856  17.333   7.850  0.00  0.00     0.181 C 
HETATM    4  C   UNK N   1      33.648  14.652   9.045  0.00  0.00     0.181 C 
HETATM    5  C   UNK N   1      34.843  16.860   8.917  0.00  0.00     0.181 C 
HETATM    6  C   UNK N   1      34.184  15.841   9.847  0.00  0.00     0.196 C 
ENDROOT
BRANCH   1   7
HETATM    7  O   UNK N   1      32.387  16.594   6.096  0.00  0.00    -0.286 OA
BRANCH   7   8
HETATM    8  P   UNK N   1      33.045  16.178   4.538  0.00  0.00     0.391 P 
HETATM    9  O   UNK N   1      32.970  17.729   4.465  0.00  0.00    -0.632 OA
BRANCH   8  10
HETATM   10  O   UNK N   1      32.134  16.469   3.090  0.00  0.00    -0.307 OA
HETATM   11  H   UNK N   1      32.102  17.346   2.676  0.00  0.00     0.222 HD
ENDBRANCH   8  10
BRANCH   8  12
HETATM   12  O   UNK N   1      31.444  15.521   4.679  0.00  0.00    -0.307 OA
HETATM   13  H   UNK N   1      30.647  15.977   4.988  0.00  0.00     0.222 HD
ENDBRANCH   8  12
ENDBRANCH   7   8
ENDBRANCH   1   7
BRANCH   2  14
HETATM   14  O   UNK N   1      32.228  14.023   7.227  0.00  0.00    -0.390 OA
HETATM   15  H   UNK N   1      32.829  13.345   6.882  0.00  0.00     0.210 HD
ENDBRANCH   2  14
BRANCH   3  16
HETATM   16  O   UNK N   1      34.497  18.237   7.002  0.00  0.00    -0.390 OA
HETATM   17  H   UNK N   1      35.408  18.107   6.696  0.00  0.00     0.210 HD
ENDBRANCH   3  16
BRANCH   4  18
HETATM   18  O   UNK N   1      33.001  13.759   9.901  0.00  0.00    -0.390 OA
HETATM   19  H   UNK N   1      33.051  12.797   9.786  0.00  0.00     0.210 HD
ENDBRANCH   4  18
BRANCH   5  20
HETATM   20  O   UNK N   1      35.287  17.958   9.657  0.00  0.00    -0.390 OA
HETATM   21  H   UNK N   1      34.845  18.263  10.464  0.00  0.00     0.210 HD
ENDBRANCH   5  20
BRANCH   6  22
HETATM   22  O   UNK N   1      35.123  15.391  10.788  0.00  0.00    -0.286 OA
BRANCH  22  23
HETATM   23  P   UNK N   1      36.389  14.634   9.863  0.00  0.00     0.391 P 
HETATM   24  O   UNK N   1      35.941  13.470  10.787  0.00  0.00    -0.632 OA
BRANCH  23  25
HETATM   25  O   UNK N   1      37.882  14.165  10.614  0.00  0.00    -0.307 OA
HETATM   26  H   UNK N   1      37.915  13.869  11.537  0.00  0.00     0.222 HD
ENDBRANCH  23  25
BRANCH  23  27
HETATM   27  O   UNK N   1      37.045  15.915  10.835  0.00  0.00    -0.307 OA
HETATM   28  H   UNK N   1      37.068  16.093  11.787  0.00  0.00     0.222 HD
ENDBRANCH  23  27
ENDBRANCH  22  23
ENDBRANCH   6  22
TORSDOF 12
ENDMDL
MODEL 4
REMARK VINA RESULT:      -5.1      1.298      2.877
REMARK  12 active torsions:
REMARK  status: ('A' for Active; 'I' for Inactive)
REMARK    1  A    between atoms: P_1  and  O_2 
REMARK    2  A    between atoms: P_1  and  O_3 
REMARK    3  A    between atoms: P_1  and  O_4 
REMARK    4  A    between atoms: C_6  and  O_2 
REMARK    5  A    between atoms: C_7  and  O_10 
REMARK    6  A    between atoms: C_8  and  O_12 
REMARK    7  A    between atoms: C_9  and  O_14 
REMARK    8  A    between atoms: C_11  and  O_15 
REMARK    9  A    between atoms: C_13  and  O_16 
REMARK   10  A    between atoms: O_16  and  P_17 
REMARK   11  A    between atoms: P_17  and  O_18 
REMARK   12  A    between atoms: P_17  and  O_19 
ROOT
HETATM    1  C   UNK N   1      34.190  15.781   9.846  0.00  0.00     0.196 C 
HETATM    2  C   UNK N   1      33.681  14.585   9.038  0.00  0.00     0.181 C 
HETATM    3  C   UNK N   1      34.851  16.806   8.918  0.00  0.00     0.181 C 
HETATM    4  C   UNK N   1      32.707  15.039   7.948  0.00  0.00     0.181 C 
HETATM    5  C   UNK N   1      33.873  17.264   7.837  0.00  0.00     0.181 C 
HETATM    6  C   UNK N   1      33.365  16.071   7.027  0.00  0.00     0.196 C 
ENDROOT
BRANCH   1   7
HETATM    7  O   UNK N   1      35.119  15.338  10.803  0.00  0.00    -0.286 OA
BRANCH   7   8
HETATM    8  P   UNK N   1      36.418  14.610   9.899  0.00  0.00     0.391 P 
HETATM    9  O   UNK N   1      35.963  13.447  10.824  0.00  0.00    -0.632 OA
BRANCH   8  10
HETATM   10  O   UNK N   1      37.885  14.131  10.694  0.00  0.00    -0.307 OA
HETATM   11  H   UNK N   1      38.597  13.676  10.217  0.00  0.00     0.222 HD
ENDBRANCH   8  10
BRANCH   8  12
HETATM   12  O   UNK N   1      37.047  15.912  10.861  0.00  0.00    -0.307 OA
HETATM   13  H   UNK N   1      37.483  15.846  11.725  0.00  0.00     0.222 HD
ENDBRANCH   8  12
ENDBRANCH   7   8
ENDBRANCH   1   7
BRANCH   2  14
HETATM   14  O   UNK N   1      33.040  13.680   9.885  0.00  0.00    -0.390 OA
HETATM   15  H   UNK N   1      32.467  12.967   9.562  0.00  0.00     0.210 HD
ENDBRANCH   2  14
BRANCH   3  16
HETATM   16  O   UNK N   1      35.270  17.914   9.656  0.00  0.00    -0.390 OA
HETATM   17  H   UNK N   1      34.808  18.211  10.456  0.00  0.00     0.210 HD
ENDBRANCH   3  16
BRANCH   4  18
HETATM   18  O   UNK N   1      32.300  13.933   7.201  0.00  0.00    -0.390 OA
HETATM   19  H   UNK N   1      32.719  13.062   7.288  0.00  0.00     0.210 HD
ENDBRANCH   4  18
BRANCH   5  20
HETATM   20  O   UNK N   1      34.509  18.174   6.991  0.00  0.00    -0.390 OA
HETATM   21  H   UNK N   1      34.675  17.994   6.052  0.00  0.00     0.210 HD
ENDBRANCH   5  20
BRANCH   6  22
HETATM   22  O   UNK N   1      32.436  16.514   6.072  0.00  0.00    -0.286 OA
BRANCH  22  23
HETATM   23  P   UNK N   1      33.155  16.170   4.524  0.00  0.00     0.391 P 
HETATM   24  O   UNK N   1      32.989  17.712   4.455  0.00  0.00    -0.632 OA
BRANCH  23  25
HETATM   25  O   UNK N   1      32.250  16.378   3.058  0.00  0.00    -0.307 OA
HETATM   26  H   UNK N   1      32.068  15.634   2.463  0.00  0.00     0.222 HD
ENDBRANCH  23  25
BRANCH  23  27
HETATM   27  O   UNK N   1      31.587  15.432   4.631  0.00  0.00    -0.307 OA
HETATM   28  H   UNK N   1      30.686  15.733   4.436  0.00  0.00     0.222 HD
ENDBRANCH  23  27
ENDBRANCH  22  23
ENDBRANCH   6  22
TORSDOF 12
ENDMDL
MODEL 5
REMARK VINA RESULT:      -5.0     10.084     12.802
REMARK  12 active torsions:
REMARK  status: ('A' for Active; 'I' for Inactive)
REMARK    1  A    between atoms: P_1  and  O_2 
REMARK    2  A    between atoms: P_1  and  O_3 
REMARK    3  A    between atoms: P_1  and  O_4 
REMARK    4  A    between atoms: C_6  and  O_2 
REMARK    5  A    between atoms: C_7  and  O_10 
REMARK    6  A    between atoms: C_8  and  O_12 
REMARK    7  A    between atoms: C_9  and  O_14 
REMARK    8  A    between atoms: C_11  and  O_15 
REMARK    9  A    between atoms: C_13  and  O_16 
REMARK   10  A    between atoms: O_16  and  P_17 
REMARK   11  A    between atoms: P_17  and  O_18 
REMARK   12  A    between atoms: P_17  and  O_19 
ROOT
HETATM    1  C   UNK N   1      24.363  19.154   3.910  0.00  0.00     0.196 C 
HETATM    2  C   UNK N   1      23.787  20.434   3.302  0.00  0.00     0.181 C 
HETATM    3  C   UNK N   1      23.415  18.601   4.980  0.00  0.00     0.181 C 
HETATM    4  C   UNK N   1      22.395  20.180   2.716  0.00  0.00     0.181 C 
HETATM    5  C   UNK N   1      22.029  18.340   4.390  0.00  0.00     0.181 C 
HETATM    6  C   UNK N   1      21.451  19.619   3.784  0.00  0.00     0.196 C 
ENDROOT
BRANCH   1   7
HETATM    7  O   UNK N   1      25.616  19.430   4.483  0.00  0.00    -0.286 OA
BRANCH   7   8
HETATM    8  P   UNK N   1      26.727  18.301   3.759  0.00  0.00     0.391 P 
HETATM    9  O   UNK N   1      26.864  17.978   5.273  0.00  0.00    -0.632 OA
BRANCH   8  10
HETATM   10  O   UNK N   1      28.434  18.436   4.046  0.00  0.00    -0.307 OA
HETATM   11  H   UNK N   1      29.003  18.982   3.482  0.00  0.00     0.222 HD
ENDBRANCH   8  10
BRANCH   8  12
HETATM   12  O   UNK N   1      27.274  19.921   3.454  0.00  0.00    -0.307 OA
HETATM   13  H   UNK N   1      26.853  20.586   2.888  0.00  0.00     0.222 HD
ENDBRANCH   8  12
ENDBRANCH   7   8
ENDBRANCH   1   7
BRANCH   2  14
HETATM   14  O   UNK N   1      24.634  20.904   2.297  0.00  0.00    -0.390 OA
HETATM   15  H   UNK N   1      25.579  21.072   2.438  0.00  0.00     0.210 HD
ENDBRANCH   2  14
BRANCH   3  16
HETATM   16  O   UNK N   1      23.925  17.409   5.496  0.00  0.00    -0.390 OA
HETATM   17  H   UNK N   1      24.827  17.105   5.310  0.00  0.00     0.210 HD
ENDBRANCH   3  16
BRANCH   4  18
HETATM   18  O   UNK N   1      21.880  21.376   2.214  0.00  0.00    -0.390 OA
HETATM   19  H   UNK N   1      22.364  22.215   2.266  0.00  0.00     0.210 HD
ENDBRANCH   4  18
BRANCH   5  20
HETATM   20  O   UNK N   1      21.180  17.865   5.391  0.00  0.00    -0.390 OA
HETATM   21  H   UNK N   1      21.494  17.617   6.275  0.00  0.00     0.210 HD
ENDBRANCH   5  20
BRANCH   6  22
HETATM   22  O   UNK N   1      20.200  19.342   3.211  0.00  0.00    -0.286 OA
BRANCH  22  23
HETATM   23  P   UNK N   1      20.438  17.920   2.233  0.00  0.00     0.391 P 
HETATM   24  O   UNK N   1      20.319  19.026   1.150  0.00  0.00    -0.632 OA
BRANCH  23  25
HETATM   25  O   UNK N   1      19.164  17.311   1.224  0.00  0.00    -0.307 OA
HETATM   26  H   UNK N   1      18.647  16.530   1.474  0.00  0.00     0.222 HD
ENDBRANCH  23  25
BRANCH  23  27
HETATM   27  O   UNK N   1      18.937  17.805   3.099  0.00  0.00    -0.307 OA
HETATM   28  H   UNK N   1      18.551  17.143   3.692  0.00  0.00     0.222 HD
ENDBRANCH  23  27
ENDBRANCH  22  23
ENDBRANCH   6  22
TORSDOF 12
ENDMDL
MODEL 6
REMARK VINA RESULT:      -5.0     10.169     13.644
REMARK  12 active torsions:
REMARK  status: ('A' for Active; 'I' for Inactive)
REMARK    1  A    between atoms: P_1  and  O_2 
REMARK    2  A    between atoms: P_1  and  O_3 
REMARK    3  A    between atoms: P_1  and  O_4 
REMARK    4  A    between atoms: C_6  and  O_2 
REMARK    5  A    between atoms: C_7  and  O_10 
REMARK    6  A    between atoms: C_8  and  O_12 
REMARK    7  A    between atoms: C_9  and  O_14 
REMARK    8  A    between atoms: C_11  and  O_15 
REMARK    9  A    between atoms: C_13  and  O_16 
REMARK   10  A    between atoms: O_16  and  P_17 
REMARK   11  A    between atoms: P_17  and  O_18 
REMARK   12  A    between atoms: P_17  and  O_19 
ROOT
HETATM    1  C   UNK N   1      21.353  19.625   3.747  0.00  0.00     0.196 C 
HETATM    2  C   UNK N   1      22.310  20.182   2.690  0.00  0.00     0.181 C 
HETATM    3  C   UNK N   1      21.937  18.353   4.374  0.00  0.00     0.181 C 
HETATM    4  C   UNK N   1      23.689  20.456   3.295  0.00  0.00     0.181 C 
HETATM    5  C   UNK N   1      23.309  18.633   4.985  0.00  0.00     0.181 C 
HETATM    6  C   UNK N   1      24.267  19.187   3.929  0.00  0.00     0.196 C 
ENDROOT
BRANCH   1   7
HETATM    7  O   UNK N   1      20.114  19.335   3.152  0.00  0.00    -0.286 OA
BRANCH   7   8
HETATM    8  P   UNK N   1      20.368  17.892   2.210  0.00  0.00     0.391 P 
HETATM    9  O   UNK N   1      20.250  18.988   1.115  0.00  0.00    -0.632 OA
BRANCH   8  10
HETATM   10  O   UNK N   1      19.118  17.287   1.169  0.00  0.00    -0.307 OA
HETATM   11  H   UNK N   1      19.276  16.550   0.559  0.00  0.00     0.222 HD
ENDBRANCH   8  10
BRANCH   8  12
HETATM   12  O   UNK N   1      18.865  17.759   3.070  0.00  0.00    -0.307 OA
HETATM   13  H   UNK N   1      18.173  18.433   3.151  0.00  0.00     0.222 HD
ENDBRANCH   8  12
ENDBRANCH   7   8
ENDBRANCH   1   7
BRANCH   2  14
HETATM   14  O   UNK N   1      21.792  21.364   2.160  0.00  0.00    -0.390 OA
HETATM   15  H   UNK N   1      21.092  21.877   2.594  0.00  0.00     0.210 HD
ENDBRANCH   2  14
BRANCH   3  16
HETATM   16  O   UNK N   1      21.081  17.878   5.368  0.00  0.00    -0.390 OA
HETATM   17  H   UNK N   1      21.312  17.906   6.310  0.00  0.00     0.210 HD
ENDBRANCH   3  16
BRANCH   4  18
HETATM   18  O   UNK N   1      24.548  20.917   2.297  0.00  0.00    -0.390 OA
HETATM   19  H   UNK N   1      24.917  21.814   2.298  0.00  0.00     0.210 HD
ENDBRANCH   4  18
BRANCH   5  20
HETATM   20  O   UNK N   1      23.828  17.454   5.521  0.00  0.00    -0.390 OA
HETATM   21  H   UNK N   1      23.546  17.095   6.377  0.00  0.00     0.210 HD
ENDBRANCH   5  20
BRANCH   6  22
HETATM   22  O   UNK N   1      25.504  19.477   4.526  0.00  0.00    -0.286 OA
BRANCH  22  23
HETATM   23  P   UNK N   1      26.644  18.381   3.798  0.00  0.00     0.391 P 
HETATM   24  O   UNK N   1      26.803  18.041   5.304  0.00  0.00    -0.632 OA
BRANCH  23  25
HETATM   25  O   UNK N   1      28.350  18.581   4.042  0.00  0.00    -0.307 OA
HETATM   26  H   UNK N   1      28.703  19.024   4.829  0.00  0.00     0.222 HD
ENDBRANCH  23  25
BRANCH  23  27
HETATM   27  O   UNK N   1      27.140  20.024   3.528  0.00  0.00    -0.307 OA
HETATM   28  H   UNK N   1      27.895  20.434   3.081  0.00  0.00     0.222 HD
ENDBRANCH  23  27
ENDBRANCH  22  23
ENDBRANCH   6  22
TORSDOF 12
ENDMDL
MODEL 7
REMARK VINA RESULT:      -4.9      3.296      5.120
REMARK  12 active torsions:
REMARK  status: ('A' for Active; 'I' for Inactive)
REMARK    1  A    between atoms: P_1  and  O_2 
REMARK    2  A    between atoms: P_1  and  O_3 
REMARK    3  A    between atoms: P_1  and  O_4 
REMARK    4  A    between atoms: C_6  and  O_2 
REMARK    5  A    between atoms: C_7  and  O_10 
REMARK    6  A    between atoms: C_8  and  O_12 
REMARK    7  A    between atoms: C_9  and  O_14 
REMARK    8  A    between atoms: C_11  and  O_15 
REMARK    9  A    between atoms: C_13  and  O_16 
REMARK   10  A    between atoms: O_16  and  P_17 
REMARK   11  A    between atoms: P_17  and  O_18 
REMARK   12  A    between atoms: P_17  and  O_19 
ROOT
HETATM    1  C   UNK N   1      32.089  16.441   7.278  0.00  0.00     0.196 C 
HETATM    2  C   UNK N   1      32.138  16.893   5.816  0.00  0.00     0.181 C 
HETATM    3  C   UNK N   1      31.083  17.291   8.062  0.00  0.00     0.181 C 
HETATM    4  C   UNK N   1      30.749  16.821   5.177  0.00  0.00     0.181 C 
HETATM    5  C   UNK N   1      29.696  17.209   7.427  0.00  0.00     0.181 C 
HETATM    6  C   UNK N   1      29.743  17.663   5.967  0.00  0.00     0.196 C 
ENDROOT
BRANCH   1   7
HETATM    7  O   UNK N   1      33.366  16.567   7.851  0.00  0.00    -0.286 OA
BRANCH   7   8
HETATM    8  P   UNK N   1      33.670  18.279   7.957  0.00  0.00     0.391 P 
HETATM    9  O   UNK N   1      34.691  17.826   6.878  0.00  0.00    -0.632 OA
BRANCH   8  10
HETATM   10  O   UNK N   1      35.185  18.869   8.564  0.00  0.00    -0.307 OA
HETATM   11  H   UNK N   1      35.473  18.692   9.473  0.00  0.00     0.222 HD
ENDBRANCH   8  10
BRANCH   8  12
HETATM   12  O   UNK N   1      34.054  17.532   9.477  0.00  0.00    -0.307 OA
HETATM   13  H   UNK N   1      34.747  17.794  10.102  0.00  0.00     0.222 HD
ENDBRANCH   8  12
ENDBRANCH   7   8
ENDBRANCH   1   7
BRANCH   2  14
HETATM   14  O   UNK N   1      33.022  16.084   5.101  0.00  0.00    -0.390 OA
HETATM   15  H   UNK N   1      33.584  15.414   5.521  0.00  0.00     0.210 HD
ENDBRANCH   2  14
BRANCH   3  16
HETATM   16  O   UNK N   1      31.010  16.842   9.382  0.00  0.00    -0.390 OA
HETATM   17  H   UNK N   1      30.684  17.402  10.104  0.00  0.00     0.210 HD
ENDBRANCH   3  16
BRANCH   4  18
HETATM   18  O   UNK N   1      30.821  17.284   3.862  0.00  0.00    -0.390 OA
HETATM   19  H   UNK N   1      30.169  17.040   3.187  0.00  0.00     0.210 HD
ENDBRANCH   4  18
BRANCH   5  20
HETATM   20  O   UNK N   1      28.809  18.014   8.144  0.00  0.00    -0.390 OA
HETATM   21  H   UNK N   1      28.596  18.924   7.885  0.00  0.00     0.210 HD
ENDBRANCH   5  20
BRANCH   6  22
HETATM   22  O   UNK N   1      28.468  17.535   5.396  0.00  0.00    -0.286 OA
BRANCH  22  23
HETATM   23  P   UNK N   1      28.017  19.140   4.892  0.00  0.00     0.391 P 
HETATM   24  O   UNK N   1      26.844  18.771   5.840  0.00  0.00    -0.632 OA
BRANCH  23  25
HETATM   25  O   UNK N   1      26.631  19.399   3.881  0.00  0.00    -0.307 OA
HETATM   26  H   UNK N   1      25.757  19.593   4.255  0.00  0.00     0.222 HD
ENDBRANCH  23  25
BRANCH  23  27
HETATM   27  O   UNK N   1      28.011  18.063   3.530  0.00  0.00    -0.307 OA
HETATM   28  H   UNK N   1      28.655  17.850   2.837  0.00  0.00     0.222 HD
ENDBRANCH  23  27
ENDBRANCH  22  23
ENDBRANCH   6  22
TORSDOF 12
ENDMDL
MODEL 8
REMARK VINA RESULT:      -4.9      1.603      3.421
REMARK  12 active torsions:
REMARK  status: ('A' for Active; 'I' for Inactive)
REMARK    1  A    between atoms: P_1  and  O_2 
REMARK    2  A    between atoms: P_1  and  O_3 
REMARK    3  A    between atoms: P_1  and  O_4 
REMARK    4  A    between atoms: C_6  and  O_2 
REMARK    5  A    between atoms: C_7  and  O_10 
REMARK    6  A    between atoms: C_8  and  O_12 
REMARK    7  A    between atoms: C_9  and  O_14 
REMARK    8  A    between atoms: C_11  and  O_15 
REMARK    9  A    between atoms: C_13  and  O_16 
REMARK   10  A    between atoms: O_16  and  P_17 
REMARK   11  A    between atoms: P_17  and  O_18 
REMARK   12  A    between atoms: P_17  and  O_19 
ROOT
HETATM    1  C   UNK N   1      35.284  13.814  11.322  0.00  0.00     0.196 C 
HETATM    2  C   UNK N   1      34.746  13.296   9.987  0.00  0.00     0.181 C 
HETATM    3  C   UNK N   1      36.030  15.138  11.115  0.00  0.00     0.181 C 
HETATM    4  C   UNK N   1      33.837  14.336   9.325  0.00  0.00     0.181 C 
HETATM    5  C   UNK N   1      35.117  16.176  10.464  0.00  0.00     0.181 C 
HETATM    6  C   UNK N   1      34.581  15.660   9.128  0.00  0.00     0.196 C 
ENDROOT
BRANCH   1   7
HETATM    7  O   UNK N   1      36.153  12.862  11.879  0.00  0.00    -0.286 OA
BRANCH   7   8
HETATM    8  P   UNK N   1      35.494  12.477  13.445  0.00  0.00     0.391 P 
HETATM    9  O   UNK N   1      34.554  13.615  12.958  0.00  0.00    -0.632 OA
BRANCH   8  10
HETATM   10  O   UNK N   1      35.560  13.634  14.737  0.00  0.00    -0.307 OA
HETATM   11  H   UNK N   1      35.152  13.457  15.599  0.00  0.00     0.222 HD
ENDBRANCH   8  10
BRANCH   8  12
HETATM   12  O   UNK N   1      37.107  13.091  13.636  0.00  0.00    -0.307 OA
HETATM   13  H   UNK N   1      37.754  12.842  14.314  0.00  0.00     0.222 HD
ENDBRANCH   8  12
ENDBRANCH   7   8
ENDBRANCH   1   7
BRANCH   2  14
HETATM   14  O   UNK N   1      34.029  12.116  10.192  0.00  0.00    -0.390 OA
HETATM   15  H   UNK N   1      33.848  11.754  11.073  0.00  0.00     0.210 HD
ENDBRANCH   2  14
BRANCH   3  16
HETATM   16  O   UNK N   1      36.477  15.627  12.343  0.00  0.00    -0.390 OA
HETATM   17  H   UNK N   1      36.718  15.043  13.080  0.00  0.00     0.210 HD
ENDBRANCH   3  16
BRANCH   4  18
HETATM   18  O   UNK N   1      33.403  13.851   8.091  0.00  0.00    -0.390 OA
HETATM   19  H   UNK N   1      34.000  13.416   7.462  0.00  0.00     0.210 HD
ENDBRANCH   4  18
BRANCH   5  20
HETATM   20  O   UNK N   1      35.830  17.359  10.262  0.00  0.00    -0.390 OA
HETATM   21  H   UNK N   1      36.095  17.672   9.382  0.00  0.00     0.210 HD
ENDBRANCH   5  20
BRANCH   6  22
HETATM   22  O   UNK N   1      33.712  16.612   8.574  0.00  0.00    -0.286 OA
BRANCH  22  23
HETATM   23  P   UNK N   1      34.252  16.842   6.934  0.00  0.00     0.391 P 
HETATM   24  O   UNK N   1      34.638  18.199   7.582  0.00  0.00    -0.632 OA
BRANCH  23  25
HETATM   25  O   UNK N   1      33.467  17.985   5.891  0.00  0.00    -0.307 OA
HETATM   26  H   UNK N   1      32.586  17.816   5.523  0.00  0.00     0.222 HD
ENDBRANCH  23  25
BRANCH  23  27
HETATM   27  O   UNK N   1      32.525  16.662   6.974  0.00  0.00    -0.307 OA
HETATM   28  H   UNK N   1      31.819  17.059   7.506  0.00  0.00     0.222 HD
ENDBRANCH  23  27
ENDBRANCH  22  23
ENDBRANCH   6  22
TORSDOF 12
ENDMDL
MODEL 9
REMARK VINA RESULT:      -4.9     12.132     14.088
REMARK  12 active torsions:
REMARK  status: ('A' for Active; 'I' for Inactive)
REMARK    1  A    between atoms: P_1  and  O_2 
REMARK    2  A    between atoms: P_1  and  O_3 
REMARK    3  A    between atoms: P_1  and  O_4 
REMARK    4  A    between atoms: C_6  and  O_2 
REMARK    5  A    between atoms: C_7  and  O_10 
REMARK    6  A    between atoms: C_8  and  O_12 
REMARK    7  A    between atoms: C_9  and  O_14 
REMARK    8  A    between atoms: C_11  and  O_15 
REMARK    9  A    between atoms: C_13  and  O_16 
REMARK   10  A    between atoms: O_16  and  P_17 
REMARK   11  A    between atoms: P_17  and  O_18 
REMARK   12  A    between atoms: P_17  and  O_19 
ROOT
HETATM    1  C   UNK N   1      21.012  16.019   5.410  0.00  0.00     0.196 C 
HETATM    2  C   UNK N   1      20.013  16.198   4.265  0.00  0.00     0.181 C 
HETATM    3  C   UNK N   1      22.312  16.771   5.102  0.00  0.00     0.181 C 
HETATM    4  C   UNK N   1      19.736  17.682   4.009  0.00  0.00     0.181 C 
HETATM    5  C   UNK N   1      22.034  18.253   4.857  0.00  0.00     0.181 C 
HETATM    6  C   UNK N   1      21.037  18.433   3.711  0.00  0.00     0.196 C 
ENDROOT
BRANCH   1   7
HETATM    7  O   UNK N   1      21.284  14.653   5.586  0.00  0.00    -0.286 OA
BRANCH   7   8
HETATM    8  P   UNK N   1      20.865  14.295   7.239  0.00  0.00     0.391 P 
HETATM    9  O   UNK N   1      22.358  13.869   7.174  0.00  0.00    -0.632 OA
BRANCH   8  10
HETATM   10  O   UNK N   1      20.840  12.656   7.808  0.00  0.00    -0.307 OA
HETATM   11  H   UNK N   1      20.622  11.916   7.219  0.00  0.00     0.222 HD
ENDBRANCH   8  10
BRANCH   8  12
HETATM   12  O   UNK N   1      19.923  13.293   6.178  0.00  0.00    -0.307 OA
HETATM   13  H   UNK N   1      18.966  13.333   6.029  0.00  0.00     0.222 HD
ENDBRANCH   8  12
ENDBRANCH   7   8
ENDBRANCH   1   7
BRANCH   2  14
HETATM   14  O   UNK N   1      18.817  15.549   4.576  0.00  0.00    -0.390 OA
HETATM   15  H   UNK N   1      18.419  14.872   4.007  0.00  0.00     0.210 HD
ENDBRANCH   2  14
BRANCH   3  16
HETATM   16  O   UNK N   1      23.200  16.642   6.171  0.00  0.00    -0.390 OA
HETATM   17  H   UNK N   1      23.849  17.328   6.393  0.00  0.00     0.210 HD
ENDBRANCH   3  16
BRANCH   4  18
HETATM   18  O   UNK N   1      18.860  17.809   2.930  0.00  0.00    -0.390 OA
HETATM   19  H   UNK N   1      18.433  17.045   2.512  0.00  0.00     0.210 HD
ENDBRANCH   4  18
BRANCH   5  20
HETATM   20  O   UNK N   1      23.229  18.906   4.550  0.00  0.00    -0.390 OA
HETATM   21  H   UNK N   1      23.955  19.003   5.187  0.00  0.00     0.210 HD
ENDBRANCH   5  20
BRANCH   6  22
HETATM   22  O   UNK N   1      20.765  19.799   3.537  0.00  0.00    -0.286 OA
BRANCH  22  23
HETATM   23  P   UNK N   1      21.412  20.210   1.973  0.00  0.00     0.391 P 
HETATM   24  O   UNK N   1      22.037  21.313   2.868  0.00  0.00    -0.632 OA
BRANCH  23  25
HETATM   25  O   UNK N   1      20.922  21.664   1.162  0.00  0.00    -0.307 OA
HETATM   26  H   UNK N   1      21.467  22.068   0.469  0.00  0.00     0.222 HD
ENDBRANCH  23  25
BRANCH  23  27
HETATM   27  O   UNK N   1      19.684  20.389   1.970  0.00  0.00    -0.307 OA
HETATM   28  H   UNK N   1      19.084  21.124   1.773  0.00  0.00     0.222 HD
ENDBRANCH  23  27
ENDBRANCH  22  23
ENDBRANCH   6  22
TORSDOF 12
ENDMDL
