MODEL 1
REMARK VINA RESULT:      -4.5      0.000      0.000
REMARK  6 active torsions:
REMARK  status: ('A' for Active; 'I' for Inactive)
REMARK    1  A    between atoms: O_1  and  P_2 
REMARK    2  A    between atoms: P_2  and  O_3 
REMARK    3  A    between atoms: P_2  and  C_5 
REMARK    4  A    between atoms: C_5  and  C_6 
REMARK    5  A    between atoms: C_6  and  C_7 
REMARK    6  A    between atoms: C_7  and  C_9 
ROOT
HETATM    1  P   UNK N   1      20.753  14.339   9.424  0.00  0.00     0.236 P 
HETATM    2  O   UNK N   1      20.432  13.682   8.056  0.00  0.00    -0.653 OA
ENDROOT
BRANCH   1   3
HETATM    3  O   UNK N   1      19.067  14.745   9.340  0.00  0.00    -0.329 OA
HETATM    4  H   UNK N   1      18.351  14.091   9.332  0.00  0.00     0.220 HD
ENDBRANCH   1   3
BRANCH   1   5
HETATM    5  O   UNK N   1      19.996  13.300  10.593  0.00  0.00    -0.329 OA
HETATM    6  H   UNK N   1      19.080  13.014  10.732  0.00  0.00     0.220 HD
ENDBRANCH   1   5
BRANCH   1   7
HETATM    7  C   UNK N   1      21.486  12.636   9.528  0.00  0.00     0.129 C 
BRANCH   7   8
HETATM    8  C   UNK N   1      21.408  12.122  10.954  0.00  0.00     0.052 C 
BRANCH   8   9
HETATM    9  C   UNK N   1      22.784  12.003  11.522  0.00  0.00    -0.029 C 
HETATM   10  C   UNK N   1      23.837  12.131  10.716  0.00  0.00     0.022 C 
BRANCH   9  11
HETATM   11  C   UNK N   1      22.957  11.781  12.971  0.00  0.00     0.264 C 
HETATM   12  O   UNK N   1      23.972  12.139  13.550  0.00  0.00    -0.302 OA
ENDBRANCH   9  11
ENDBRANCH   8   9
ENDBRANCH   7   8
ENDBRANCH   1   7
TORSDOF 6
ENDMDL
MODEL 2
REMARK VINA RESULT:      -4.5     13.979     14.646
REMARK  6 active torsions:
REMARK  status: ('A' for Active; 'I' for Inactive)
REMARK    1  A    between atoms: O_1  and  P_2 
REMARK    2  A    between atoms: P_2  and  O_3 
REMARK    3  A    between atoms: P_2  and  C_5 
REMARK    4  A    between atoms: C_5  and  C_6 
REMARK    5  A    between atoms: C_6  and  C_7 
REMARK    6  A    between atoms: C_7  and  C_9 
ROOT
HETATM    1  P   UNK N   1      35.497  15.515  10.721  0.00  0.00     0.236 P 
HETATM    2  O   UNK N   1      35.879  15.087   9.280  0.00  0.00    -0.653 OA
ENDROOT
BRANCH   1   3
HETATM    3  O   UNK N   1      37.177  15.950  10.768  0.00  0.00    -0.329 OA
HETATM    4  H   UNK N   1      37.904  15.315  10.680  0.00  0.00     0.220 HD
ENDBRANCH   1   3
BRANCH   1   5
HETATM    5  O   UNK N   1      35.498  17.252  10.674  0.00  0.00    -0.329 OA
HETATM    6  H   UNK N   1      35.393  17.896   9.957  0.00  0.00     0.220 HD
ENDBRANCH   1   5
BRANCH   1   7
HETATM    7  C   UNK N   1      34.183  16.256   9.638  0.00  0.00     0.129 C 
BRANCH   7   8
HETATM    8  C   UNK N   1      34.560  16.095   8.177  0.00  0.00     0.052 C 
BRANCH   8   9
HETATM    9  C   UNK N   1      34.203  17.334   7.425  0.00  0.00    -0.029 C 
HETATM   10  C   UNK N   1      33.833  17.241   6.149  0.00  0.00     0.022 C 
BRANCH   9  11
HETATM   11  C   UNK N   1      34.230  18.638   8.116  0.00  0.00     0.264 C 
HETATM   12  O   UNK N   1      35.286  19.185   8.397  0.00  0.00    -0.302 OA
ENDBRANCH   9  11
ENDBRANCH   8   9
ENDBRANCH   7   8
ENDBRANCH   1   7
TORSDOF 6
ENDMDL
MODEL 3
REMARK VINA RESULT:      -4.3     18.725     19.410
REMARK  6 active torsions:
REMARK  status: ('A' for Active; 'I' for Inactive)
REMARK    1  A    between atoms: O_1  and  P_2 
REMARK    2  A    between atoms: P_2  and  O_3 
REMARK    3  A    between atoms: P_2  and  C_5 
REMARK    4  A    between atoms: C_5  and  C_6 
REMARK    5  A    between atoms: C_6  and  C_7 
REMARK    6  A    between atoms: C_7  and  C_9 
ROOT
HETATM    1  P   UNK N   1      31.831  22.107  -3.196  0.00  0.00     0.236 P 
HETATM    2  O   UNK N   1      31.149  22.602  -1.894  0.00  0.00    -0.653 OA
ENDROOT
BRANCH   1   3
HETATM    3  O   UNK N   1      32.678  21.094  -2.070  0.00  0.00    -0.329 OA
HETATM    4  H   UNK N   1      32.246  20.463  -1.475  0.00  0.00     0.220 HD
ENDBRANCH   1   3
BRANCH   1   5
HETATM    5  O   UNK N   1      31.172  20.521  -3.456  0.00  0.00    -0.329 OA
HETATM    6  H   UNK N   1      30.364  20.200  -3.886  0.00  0.00     0.220 HD
ENDBRANCH   1   5
BRANCH   1   7
HETATM    7  C   UNK N   1      30.012  22.082  -3.569  0.00  0.00     0.129 C 
BRANCH   7   8
HETATM    8  C   UNK N   1      29.276  23.026  -2.636  0.00  0.00     0.052 C 
BRANCH   8   9
HETATM    9  C   UNK N   1      28.487  24.010  -3.435  0.00  0.00    -0.029 C 
HETATM   10  C   UNK N   1      29.104  24.749  -4.355  0.00  0.00     0.022 C 
BRANCH   9  11
HETATM   11  C   UNK N   1      27.031  24.121  -3.221  0.00  0.00     0.264 C 
HETATM   12  O   UNK N   1      26.477  25.211  -3.184  0.00  0.00    -0.302 OA
ENDBRANCH   9  11
ENDBRANCH   8   9
ENDBRANCH   7   8
ENDBRANCH   1   7
TORSDOF 6
ENDMDL
MODEL 4
REMARK VINA RESULT:      -4.3      9.808     10.849
REMARK  6 active torsions:
REMARK  status: ('A' for Active; 'I' for Inactive)
REMARK    1  A    between atoms: O_1  and  P_2 
REMARK    2  A    between atoms: P_2  and  O_3 
REMARK    3  A    between atoms: P_2  and  C_5 
REMARK    4  A    between atoms: C_5  and  C_6 
REMARK    5  A    between atoms: C_6  and  C_7 
REMARK    6  A    between atoms: C_7  and  C_9 
ROOT
HETATM    1  P   UNK N   1      21.603  20.057   2.683  0.00  0.00     0.236 P 
HETATM    2  O   UNK N   1      20.896  20.352   1.334  0.00  0.00    -0.653 OA
ENDROOT
BRANCH   1   3
HETATM    3  O   UNK N   1      21.650  21.791   2.750  0.00  0.00    -0.329 OA
HETATM    4  H   UNK N   1      21.730  22.300   3.571  0.00  0.00     0.220 HD
ENDBRANCH   1   3
BRANCH   1   5
HETATM    5  O   UNK N   1      20.427  20.477   3.891  0.00  0.00    -0.329 OA
HETATM    6  H   UNK N   1      19.511  20.201   4.049  0.00  0.00     0.220 HD
ENDBRANCH   1   5
BRANCH   1   7
HETATM    7  C   UNK N   1      20.090  18.980   2.690  0.00  0.00     0.129 C 
BRANCH   7   8
HETATM    8  C   UNK N   1      20.453  17.574   3.132  0.00  0.00     0.052 C 
BRANCH   8   9
HETATM    9  C   UNK N   1      20.247  16.622   2.000  0.00  0.00    -0.029 C 
HETATM   10  C   UNK N   1      20.516  15.330   2.176  0.00  0.00     0.022 C 
BRANCH   9  11
HETATM   11  C   UNK N   1      19.714  17.121   0.717  0.00  0.00     0.264 C 
HETATM   12  O   UNK N   1      20.430  17.228  -0.268  0.00  0.00    -0.302 OA
ENDBRANCH   9  11
ENDBRANCH   8   9
ENDBRANCH   7   8
ENDBRANCH   1   7
TORSDOF 6
ENDMDL
MODEL 5
REMARK VINA RESULT:      -4.3     12.544     13.797
REMARK  6 active torsions:
REMARK  status: ('A' for Active; 'I' for Inactive)
REMARK    1  A    between atoms: O_1  and  P_2 
REMARK    2  A    between atoms: P_2  and  O_3 
REMARK    3  A    between atoms: P_2  and  C_5 
REMARK    4  A    between atoms: C_5  and  C_6 
REMARK    5  A    between atoms: C_6  and  C_7 
REMARK    6  A    between atoms: C_7  and  C_9 
ROOT
HETATM    1  P   UNK N   1      34.983  14.294  11.071  0.00  0.00     0.236 P 
HETATM    2  O   UNK N   1      35.806  15.212  12.011  0.00  0.00    -0.653 OA
ENDROOT
BRANCH   1   3
HETATM    3  O   UNK N   1      34.401  13.683  12.588  0.00  0.00    -0.329 OA
HETATM    4  H   UNK N   1      33.885  12.868  12.684  0.00  0.00     0.220 HD
ENDBRANCH   1   3
BRANCH   1   5
HETATM    5  O   UNK N   1      33.357  14.896  11.187  0.00  0.00    -0.329 OA
HETATM    6  H   UNK N   1      32.540  14.696  10.706  0.00  0.00     0.220 HD
ENDBRANCH   1   5
BRANCH   1   7
HETATM    7  C   UNK N   1      34.747  16.006  10.393  0.00  0.00     0.129 C 
BRANCH   7   8
HETATM    8  C   UNK N   1      33.600  16.019   9.399  0.00  0.00     0.052 C 
BRANCH   8   9
HETATM    9  C   UNK N   1      33.562  17.334   8.691  0.00  0.00    -0.029 C 
HETATM   10  C   UNK N   1      32.387  17.858   8.349  0.00  0.00     0.022 C 
BRANCH   9  11
HETATM   11  C   UNK N   1      34.824  18.048   8.416  0.00  0.00     0.264 C 
HETATM   12  O   UNK N   1      34.854  19.266   8.314  0.00  0.00    -0.302 OA
ENDBRANCH   9  11
ENDBRANCH   8   9
ENDBRANCH   7   8
ENDBRANCH   1   7
TORSDOF 6
ENDMDL
MODEL 6
REMARK VINA RESULT:      -4.3     10.428     11.350
REMARK  6 active torsions:
REMARK  status: ('A' for Active; 'I' for Inactive)
REMARK    1  A    between atoms: O_1  and  P_2 
REMARK    2  A    between atoms: P_2  and  O_3 
REMARK    3  A    between atoms: P_2  and  C_5 
REMARK    4  A    between atoms: C_5  and  C_6 
REMARK    5  A    between atoms: C_6  and  C_7 
REMARK    6  A    between atoms: C_7  and  C_9 
ROOT
HETATM    1  P   UNK N   1      29.111  18.435   8.654  0.00  0.00     0.236 P 
HETATM    2  O   UNK N   1      28.656  17.306   7.692  0.00  0.00    -0.653 OA
ENDROOT
BRANCH   1   3
HETATM    3  O   UNK N   1      27.678  17.945   9.503  0.00  0.00    -0.329 OA
HETATM    4  H   UNK N   1      26.843  18.437   9.488  0.00  0.00     0.220 HD
ENDBRANCH   1   3
BRANCH   1   5
HETATM    5  O   UNK N   1      29.702  17.600  10.057  0.00  0.00    -0.329 OA
HETATM    6  H   UNK N   1      30.509  17.094  10.237  0.00  0.00     0.220 HD
ENDBRANCH   1   5
BRANCH   1   7
HETATM    7  C   UNK N   1      30.635  17.418   8.357  0.00  0.00     0.129 C 
BRANCH   7   8
HETATM    8  C   UNK N   1      31.876  18.247   8.632  0.00  0.00     0.052 C 
BRANCH   8   9
HETATM    9  C   UNK N   1      32.975  17.829   7.711  0.00  0.00    -0.029 C 
HETATM   10  C   UNK N   1      32.670  17.344   6.508  0.00  0.00     0.022 C 
BRANCH   9  11
HETATM   11  C   UNK N   1      34.380  17.994   8.131  0.00  0.00     0.264 C 
HETATM   12  O   UNK N   1      34.862  19.103   8.311  0.00  0.00    -0.302 OA
ENDBRANCH   9  11
ENDBRANCH   8   9
ENDBRANCH   7   8
ENDBRANCH   1   7
TORSDOF 6
ENDMDL
MODEL 7
REMARK VINA RESULT:      -4.1     14.284     15.172
REMARK  6 active torsions:
REMARK  status: ('A' for Active; 'I' for Inactive)
REMARK    1  A    between atoms: O_1  and  P_2 
REMARK    2  A    between atoms: P_2  and  O_3 
REMARK    3  A    between atoms: P_2  and  C_5 
REMARK    4  A    between atoms: C_5  and  C_6 
REMARK    5  A    between atoms: C_6  and  C_7 
REMARK    6  A    between atoms: C_7  and  C_9 
ROOT
HETATM    1  P   UNK N   1      36.172  12.791  13.594  0.00  0.00     0.236 P 
HETATM    2  O   UNK N   1      34.979  13.695  13.189  0.00  0.00    -0.653 OA
ENDROOT
BRANCH   1   3
HETATM    3  O   UNK N   1      37.030  13.887  12.558  0.00  0.00    -0.329 OA
HETATM    4  H   UNK N   1      37.736  14.480  12.859  0.00  0.00     0.220 HD
ENDBRANCH   1   3
BRANCH   1   5
HETATM    5  O   UNK N   1      37.111  13.770  14.679  0.00  0.00    -0.329 OA
HETATM    6  H   UNK N   1      37.307  13.708  15.627  0.00  0.00     0.220 HD
ENDBRANCH   1   5
BRANCH   1   7
HETATM    7  C   UNK N   1      35.320  13.202  15.192  0.00  0.00     0.129 C 
BRANCH   7   8
HETATM    8  C   UNK N   1      35.192  11.956  16.050  0.00  0.00     0.052 C 
BRANCH   8   9
HETATM    9  C   UNK N   1      35.234  12.333  17.494  0.00  0.00    -0.029 C 
HETATM   10  C   UNK N   1      35.341  11.378  18.416  0.00  0.00     0.022 C 
BRANCH   9  11
HETATM   11  C   UNK N   1      35.192  13.758  17.876  0.00  0.00     0.264 C 
HETATM   12  O   UNK N   1      35.300  14.105  19.043  0.00  0.00    -0.302 OA
ENDBRANCH   9  11
ENDBRANCH   8   9
ENDBRANCH   7   8
ENDBRANCH   1   7
TORSDOF 6
ENDMDL
MODEL 8
REMARK VINA RESULT:      -4.1      8.521      9.863
REMARK  6 active torsions:
REMARK  status: ('A' for Active; 'I' for Inactive)
REMARK    1  A    between atoms: O_1  and  P_2 
REMARK    2  A    between atoms: P_2  and  O_3 
REMARK    3  A    between atoms: P_2  and  C_5 
REMARK    4  A    between atoms: C_5  and  C_6 
REMARK    5  A    between atoms: C_6  and  C_7 
REMARK    6  A    between atoms: C_7  and  C_9 
ROOT
HETATM    1  P   UNK N   1      20.576  20.826   1.681  0.00  0.00     0.236 P 
HETATM    2  O   UNK N   1      22.099  20.554   1.794  0.00  0.00    -0.653 OA
ENDROOT
BRANCH   1   3
HETATM    3  O   UNK N   1      20.807  20.051   0.145  0.00  0.00    -0.329 OA
HETATM    4  H   UNK N   1      21.238  20.470  -0.616  0.00  0.00     0.220 HD
ENDBRANCH   1   3
BRANCH   1   5
HETATM    5  O   UNK N   1      19.841  19.263   1.867  0.00  0.00    -0.329 OA
HETATM    6  H   UNK N   1      19.187  18.771   1.347  0.00  0.00     0.220 HD
ENDBRANCH   1   5
BRANCH   1   7
HETATM    7  C   UNK N   1      20.803  20.065   3.359  0.00  0.00     0.129 C 
BRANCH   7   8
HETATM    8  C   UNK N   1      21.501  18.723   3.233  0.00  0.00     0.052 C 
BRANCH   8   9
HETATM    9  C   UNK N   1      22.168  18.379   4.524  0.00  0.00    -0.029 C 
HETATM   10  C   UNK N   1      23.494  18.454   4.614  0.00  0.00     0.022 C 
BRANCH   9  11
HETATM   11  C   UNK N   1      21.346  17.998   5.689  0.00  0.00     0.264 C 
HETATM   12  O   UNK N   1      21.379  18.643   6.727  0.00  0.00    -0.302 OA
ENDBRANCH   9  11
ENDBRANCH   8   9
ENDBRANCH   7   8
ENDBRANCH   1   7
TORSDOF 6
ENDMDL
MODEL 9
REMARK VINA RESULT:      -4.0      2.487      4.682
REMARK  6 active torsions:
REMARK  status: ('A' for Active; 'I' for Inactive)
REMARK    1  A    between atoms: O_1  and  P_2 
REMARK    2  A    between atoms: P_2  and  O_3 
REMARK    3  A    between atoms: P_2  and  C_5 
REMARK    4  A    between atoms: C_5  and  C_6 
REMARK    5  A    between atoms: C_6  and  C_7 
REMARK    6  A    between atoms: C_7  and  C_9 
ROOT
HETATM    1  P   UNK N   1      24.099  12.024  10.481  0.00  0.00     0.236 P 
HETATM    2  O   UNK N   1      24.529  13.372   9.844  0.00  0.00    -0.653 OA
ENDROOT
BRANCH   1   3
HETATM    3  O   UNK N   1      25.292  12.486  11.654  0.00  0.00    -0.329 OA
HETATM    4  H   UNK N   1      26.064  11.946  11.885  0.00  0.00     0.220 HD
ENDBRANCH   1   3
BRANCH   1   5
HETATM    5  O   UNK N   1      23.178  12.480  11.881  0.00  0.00    -0.329 OA
HETATM    6  H   UNK N   1      22.949  12.019  12.703  0.00  0.00     0.220 HD
ENDBRANCH   1   5
BRANCH   1   7
HETATM    7  C   UNK N   1      22.508  12.904  10.102  0.00  0.00     0.129 C 
BRANCH   7   8
HETATM    8  C   UNK N   1      22.293  12.968   8.601  0.00  0.00     0.052 C 
BRANCH   8   9
HETATM    9  C   UNK N   1      21.100  13.813   8.299  0.00  0.00    -0.029 C 
HETATM   10  C   UNK N   1      20.622  13.849   7.056  0.00  0.00     0.022 C 
BRANCH   9  11
HETATM   11  C   UNK N   1      20.447  14.567   9.388  0.00  0.00     0.264 C 
HETATM   12  O   UNK N   1      19.297  14.325   9.725  0.00  0.00    -0.302 OA
ENDBRANCH   9  11
ENDBRANCH   8   9
ENDBRANCH   7   8
ENDBRANCH   1   7
TORSDOF 6
ENDMDL
