MODEL 1
REMARK VINA RESULT:      -6.4      0.000      0.000
REMARK  19 active torsions:
REMARK  status: ('A' for Active; 'I' for Inactive)
REMARK    1  A    between atoms: C_3  and  C_2 
REMARK    2  A    between atoms: C_4  and  C_3 
REMARK    3  A    between atoms: C_5  and  C_4 
REMARK    4  A    between atoms: C_6  and  C_5 
REMARK    5  A    between atoms: C_7  and  C_6 
REMARK    6  A    between atoms: C_13  and  C_7 
REMARK    7  A    between atoms: C_11  and  C_8 
REMARK    8  A    between atoms: O_21  and  C_8 
REMARK    9  A    between atoms: C_12  and  C_9 
REMARK   10  A    between atoms: O_29  and  C_9 
REMARK   11  A    between atoms: C_20  and  C_10 
REMARK   12  A    between atoms: O_22  and  C_10 
REMARK   13  A    between atoms: O_29  and  C_13 
REMARK   14  A    between atoms: C_14  and  O_24 
REMARK   15  A    between atoms: C_15  and  O_25 
REMARK   16  A    between atoms: C_16  and  O_26 
REMARK   17  A    between atoms: C_18  and  O_28 
REMARK   18  A    between atoms: C_19  and  O_32 
REMARK   19  A    between atoms: C_20  and  O_32 
ROOT
HETATM    1  C   UNK N   1      33.017  16.022   8.974  0.00  0.00     0.179 C 
HETATM    2  C   UNK N   1      34.258  16.933   9.061  0.00  0.00     0.180 C 
HETATM    3  C   UNK N   1      33.979  18.229   8.282  0.00  0.00     0.183 C 
HETATM    4  C   UNK N   1      33.546  17.892   6.840  0.00  0.00     0.204 C 
HETATM    5  C   UNK N   1      32.322  16.936   6.922  0.00  0.00     0.295 C 
HETATM    6  O   UNK N   1      34.595  17.273   6.154  0.00  0.00    -0.388 OA
HETATM    7  O   UNK N   1      32.712  15.771   7.625  0.00  0.00    -0.348 OA
HETATM    8  H   UNK N   1      35.390  16.984   5.680  0.00  0.00     0.210 HD
ENDROOT
BRANCH   3   9
HETATM    9  O   UNK N   1      35.114  19.045   8.276  0.00  0.00    -0.390 OA
HETATM   10  H   UNK N   1      35.909  18.935   7.731  0.00  0.00     0.210 HD
ENDBRANCH   3   9
BRANCH   5  11
HETATM   11  O   UNK N   1      31.844  16.424   5.698  0.00  0.00    -0.318 OA
BRANCH  11  12
HETATM   12  C   UNK N   1      30.548  15.875   5.584  0.00  0.00     0.217 C 
HETATM   13  C   UNK N   1      29.954  16.556   4.335  0.00  0.00     0.214 C 
HETATM   14  C   UNK N   1      28.505  16.484   4.670  0.00  0.00     0.183 C 
HETATM   15  C   UNK N   1      28.575  16.878   6.140  0.00  0.00     0.181 C 
HETATM   16  O   UNK N   1      29.721  16.244   6.684  0.00  0.00    -0.341 OA
BRANCH  12  17
HETATM   17  C   UNK N   1      30.517  14.346   5.355  0.00  0.00     0.235 C 
BRANCH  17  18
HETATM   18  O   UNK N   1      31.478  13.667   6.102  0.00  0.00    -0.395 OA
HETATM   19  H   UNK N   1      32.424  13.792   5.927  0.00  0.00     0.209 HD
ENDBRANCH  17  18
ENDBRANCH  12  17
BRANCH  13  20
HETATM   20  O   UNK N   1      30.348  17.903   4.279  0.00  0.00    -0.387 OA
HETATM   21  H   UNK N   1      30.295  18.681   3.703  0.00  0.00     0.210 HD
ENDBRANCH  13  20
BRANCH  14  22
HETATM   22  O   UNK N   1      27.720  17.352   3.905  0.00  0.00    -0.390 OA
HETATM   23  H   UNK N   1      27.925  18.267   3.658  0.00  0.00     0.210 HD
ENDBRANCH  14  22
BRANCH  15  24
HETATM   24  C   UNK N   1      27.301  16.526   6.902  0.00  0.00     0.213 C 
BRANCH  24  25
HETATM   25  O   UNK N   1      26.545  15.580   6.236  0.00  0.00    -0.319 OA
BRANCH  25  26
HETATM   26  C   UNK N   1      25.194  15.600   6.203  0.00  0.00     0.258 C 
HETATM   27  O   UNK N   1      24.629  16.448   5.519  0.00  0.00    -0.265 OA
BRANCH  26  28
HETATM   28  C   UNK N   1      24.389  14.613   6.996  0.00  0.00     0.111 C 
BRANCH  28  29
HETATM   29  C   UNK N   1      25.195  13.454   7.548  0.00  0.00     0.010 C 
BRANCH  29  30
HETATM   30  C   UNK N   1      24.787  13.253   8.993  0.00  0.00     0.000 C 
BRANCH  30  31
HETATM   31  C   UNK N   1      24.094  11.906   9.144  0.00  0.00     0.000 C 
BRANCH  31  32
HETATM   32  C   UNK N   1      22.833  12.023   9.978  0.00  0.00    -0.000 C 
BRANCH  32  33
HETATM   33  C   UNK N   1      21.688  12.565   9.143  0.00  0.00    -0.005 C 
HETATM   34  C   UNK N   1      21.166  13.846   9.761  0.00  0.00     0.005 C 
ENDBRANCH  32  33
ENDBRANCH  31  32
ENDBRANCH  30  31
ENDBRANCH  29  30
ENDBRANCH  28  29
ENDBRANCH  26  28
ENDBRANCH  25  26
ENDBRANCH  24  25
ENDBRANCH  15  24
ENDBRANCH  11  12
ENDBRANCH   5  11
BRANCH   2  35
HETATM   35  O   UNK N   1      34.556  17.229  10.394  0.00  0.00    -0.390 OA
HETATM   36  H   UNK N   1      34.279  16.655  11.125  0.00  0.00     0.210 HD
ENDBRANCH   2  35
BRANCH   1  37
HETATM   37  C   UNK N   1      33.277  14.655   9.604  0.00  0.00     0.198 C 
BRANCH  37  38
HETATM   38  O   UNK N   1      33.364  14.743  10.992  0.00  0.00    -0.398 OA
HETATM   39  H   UNK N   1      33.584  15.559  11.469  0.00  0.00     0.209 HD
ENDBRANCH  37  38
ENDBRANCH   1  37
TORSDOF 19
ENDMDL
MODEL 2
REMARK VINA RESULT:      -6.3      4.597      9.628
REMARK  19 active torsions:
REMARK  status: ('A' for Active; 'I' for Inactive)
REMARK    1  A    between atoms: C_3  and  C_2 
REMARK    2  A    between atoms: C_4  and  C_3 
REMARK    3  A    between atoms: C_5  and  C_4 
REMARK    4  A    between atoms: C_6  and  C_5 
REMARK    5  A    between atoms: C_7  and  C_6 
REMARK    6  A    between atoms: C_13  and  C_7 
REMARK    7  A    between atoms: C_11  and  C_8 
REMARK    8  A    between atoms: O_21  and  C_8 
REMARK    9  A    between atoms: C_12  and  C_9 
REMARK   10  A    between atoms: O_29  and  C_9 
REMARK   11  A    between atoms: C_20  and  C_10 
REMARK   12  A    between atoms: O_22  and  C_10 
REMARK   13  A    between atoms: O_29  and  C_13 
REMARK   14  A    between atoms: C_14  and  O_24 
REMARK   15  A    between atoms: C_15  and  O_25 
REMARK   16  A    between atoms: C_16  and  O_26 
REMARK   17  A    between atoms: C_18  and  O_28 
REMARK   18  A    between atoms: C_19  and  O_32 
REMARK   19  A    between atoms: C_20  and  O_32 
ROOT
HETATM    1  C   UNK N   1      31.359  16.653   7.475  0.00  0.00     0.179 C 
HETATM    2  C   UNK N   1      31.475  17.264   6.064  0.00  0.00     0.180 C 
HETATM    3  C   UNK N   1      32.636  16.583   5.321  0.00  0.00     0.183 C 
HETATM    4  C   UNK N   1      33.928  16.688   6.159  0.00  0.00     0.204 C 
HETATM    5  C   UNK N   1      33.637  16.077   7.559  0.00  0.00     0.295 C 
HETATM    6  O   UNK N   1      34.311  18.026   6.288  0.00  0.00    -0.388 OA
HETATM    7  O   UNK N   1      32.580  16.807   8.154  0.00  0.00    -0.348 OA
HETATM    8  H   UNK N   1      34.615  18.945   6.227  0.00  0.00     0.210 HD
ENDROOT
BRANCH   3   9
HETATM    9  O   UNK N   1      32.818  17.168   4.065  0.00  0.00    -0.390 OA
HETATM   10  H   UNK N   1      33.495  16.943   3.408  0.00  0.00     0.210 HD
ENDBRANCH   3   9
BRANCH   5  11
HETATM   11  O   UNK N   1      34.670  16.179   8.514  0.00  0.00    -0.318 OA
BRANCH  11  12
HETATM   12  C   UNK N   1      34.843  15.204   9.521  0.00  0.00     0.217 C 
HETATM   13  C   UNK N   1      35.079  16.020  10.807  0.00  0.00     0.214 C 
HETATM   14  C   UNK N   1      35.885  15.040  11.586  0.00  0.00     0.183 C 
HETATM   15  C   UNK N   1      36.807  14.548  10.478  0.00  0.00     0.181 C 
HETATM   16  O   UNK N   1      36.019  14.428   9.306  0.00  0.00    -0.341 OA
BRANCH  12  17
HETATM   17  C   UNK N   1      33.613  14.295   9.751  0.00  0.00     0.235 C 
BRANCH  17  18
HETATM   18  O   UNK N   1      32.611  14.919  10.493  0.00  0.00    -0.395 OA
HETATM   19  H   UNK N   1      32.113  15.666  10.127  0.00  0.00     0.209 HD
ENDBRANCH  17  18
ENDBRANCH  12  17
BRANCH  13  20
HETATM   20  O   UNK N   1      35.867  17.150  10.530  0.00  0.00    -0.387 OA
HETATM   21  H   UNK N   1      36.788  17.452  10.558  0.00  0.00     0.210 HD
ENDBRANCH  13  20
BRANCH  14  22
HETATM   22  O   UNK N   1      36.573  15.621  12.656  0.00  0.00    -0.390 OA
HETATM   23  H   UNK N   1      36.346  15.572  13.598  0.00  0.00     0.210 HD
ENDBRANCH  14  22
BRANCH  15  24
HETATM   24  C   UNK N   1      37.511  13.243  10.839  0.00  0.00     0.213 C 
BRANCH  24  25
HETATM   25  O   UNK N   1      37.454  12.983  12.195  0.00  0.00    -0.319 OA
BRANCH  25  26
HETATM   26  C   UNK N   1      37.027  11.807  12.708  0.00  0.00     0.258 C 
HETATM   27  O   UNK N   1      36.687  10.913  11.940  0.00  0.00    -0.265 OA
BRANCH  26  28
HETATM   28  C   UNK N   1      36.955  11.595  14.192  0.00  0.00     0.111 C 
BRANCH  28  29
HETATM   29  C   UNK N   1      36.926  12.875  15.002  0.00  0.00     0.010 C 
BRANCH  29  30
HETATM   30  C   UNK N   1      35.485  13.333  15.092  0.00  0.00     0.000 C 
BRANCH  30  31
HETATM   31  C   UNK N   1      34.711  12.403  16.016  0.00  0.00     0.000 C 
BRANCH  31  32
HETATM   32  C   UNK N   1      35.180  12.534  17.452  0.00  0.00    -0.000 C 
BRANCH  32  33
HETATM   33  C   UNK N   1      35.532  11.175  18.026  0.00  0.00    -0.005 C 
HETATM   34  C   UNK N   1      34.990  10.084  17.127  0.00  0.00     0.005 C 
ENDBRANCH  32  33
ENDBRANCH  31  32
ENDBRANCH  30  31
ENDBRANCH  29  30
ENDBRANCH  28  29
ENDBRANCH  26  28
ENDBRANCH  25  26
ENDBRANCH  24  25
ENDBRANCH  15  24
ENDBRANCH  11  12
ENDBRANCH   5  11
BRANCH   2  35
HETATM   35  O   UNK N   1      30.283  17.087   5.354  0.00  0.00    -0.390 OA
HETATM   36  H   UNK N   1      29.609  17.782   5.296  0.00  0.00     0.210 HD
ENDBRANCH   2  35
BRANCH   1  37
HETATM   37  C   UNK N   1      30.317  17.383   8.320  0.00  0.00     0.198 C 
BRANCH  37  38
HETATM   38  O   UNK N   1      30.919  18.213   9.264  0.00  0.00    -0.398 OA
HETATM   39  H   UNK N   1      31.512  18.947   9.039  0.00  0.00     0.209 HD
ENDBRANCH  37  38
ENDBRANCH   1  37
TORSDOF 19
ENDMDL
MODEL 3
REMARK VINA RESULT:      -6.1      2.655      3.309
REMARK  19 active torsions:
REMARK  status: ('A' for Active; 'I' for Inactive)
REMARK    1  A    between atoms: C_3  and  C_2 
REMARK    2  A    between atoms: C_4  and  C_3 
REMARK    3  A    between atoms: C_5  and  C_4 
REMARK    4  A    between atoms: C_6  and  C_5 
REMARK    5  A    between atoms: C_7  and  C_6 
REMARK    6  A    between atoms: C_13  and  C_7 
REMARK    7  A    between atoms: C_11  and  C_8 
REMARK    8  A    between atoms: O_21  and  C_8 
REMARK    9  A    between atoms: C_12  and  C_9 
REMARK   10  A    between atoms: O_29  and  C_9 
REMARK   11  A    between atoms: C_20  and  C_10 
REMARK   12  A    between atoms: O_22  and  C_10 
REMARK   13  A    between atoms: O_29  and  C_13 
REMARK   14  A    between atoms: C_14  and  O_24 
REMARK   15  A    between atoms: C_15  and  O_25 
REMARK   16  A    between atoms: C_16  and  O_26 
REMARK   17  A    between atoms: C_18  and  O_28 
REMARK   18  A    between atoms: C_19  and  O_32 
REMARK   19  A    between atoms: C_20  and  O_32 
ROOT
HETATM    1  C   UNK N   1      33.114  16.008   9.049  0.00  0.00     0.179 C 
HETATM    2  C   UNK N   1      34.334  16.944   9.157  0.00  0.00     0.180 C 
HETATM    3  C   UNK N   1      34.056  18.219   8.345  0.00  0.00     0.183 C 
HETATM    4  C   UNK N   1      33.676  17.847   6.897  0.00  0.00     0.204 C 
HETATM    5  C   UNK N   1      32.468  16.870   6.959  0.00  0.00     0.295 C 
HETATM    6  O   UNK N   1      34.758  17.235   6.257  0.00  0.00    -0.388 OA
HETATM    7  O   UNK N   1      32.857  15.726   7.696  0.00  0.00    -0.348 OA
HETATM    8  H   UNK N   1      35.573  16.953   5.813  0.00  0.00     0.210 HD
ENDROOT
BRANCH   3   9
HETATM    9  O   UNK N   1      35.175  19.056   8.358  0.00  0.00    -0.390 OA
HETATM   10  H   UNK N   1      35.395  19.727   9.024  0.00  0.00     0.210 HD
ENDBRANCH   3   9
BRANCH   5  11
HETATM   11  O   UNK N   1      32.039  16.325   5.731  0.00  0.00    -0.318 OA
BRANCH  11  12
HETATM   12  C   UNK N   1      30.682  16.014   5.495  0.00  0.00     0.217 C 
HETATM   13  C   UNK N   1      30.366  16.684   4.143  0.00  0.00     0.214 C 
HETATM   14  C   UNK N   1      28.902  16.907   4.305  0.00  0.00     0.183 C 
HETATM   15  C   UNK N   1      28.889  17.403   5.745  0.00  0.00     0.181 C 
HETATM   16  O   UNK N   1      29.828  16.619   6.462  0.00  0.00    -0.341 OA
BRANCH  12  17
HETATM   17  C   UNK N   1      30.384  14.502   5.359  0.00  0.00     0.235 C 
BRANCH  17  18
HETATM   18  O   UNK N   1      31.220  13.714   6.149  0.00  0.00    -0.395 OA
HETATM   19  H   UNK N   1      31.022  12.777   6.301  0.00  0.00     0.209 HD
ENDBRANCH  17  18
ENDBRANCH  12  17
BRANCH  13  20
HETATM   20  O   UNK N   1      31.014  17.928   4.052  0.00  0.00    -0.387 OA
HETATM   21  H   UNK N   1      31.235  18.617   3.407  0.00  0.00     0.210 HD
ENDBRANCH  13  20
BRANCH  14  22
HETATM   22  O   UNK N   1      28.383  17.836   3.398  0.00  0.00    -0.390 OA
HETATM   23  H   UNK N   1      27.536  17.790   2.929  0.00  0.00     0.210 HD
ENDBRANCH  14  22
BRANCH  15  24
HETATM   24  C   UNK N   1      27.497  17.354   6.368  0.00  0.00     0.213 C 
BRANCH  24  25
HETATM   25  O   UNK N   1      26.578  16.746   5.534  0.00  0.00    -0.319 OA
BRANCH  25  26
HETATM   26  C   UNK N   1      25.465  17.363   5.081  0.00  0.00     0.258 C 
HETATM   27  O   UNK N   1      25.566  18.478   4.580  0.00  0.00    -0.265 OA
BRANCH  26  28
HETATM   28  C   UNK N   1      24.119  16.709   5.198  0.00  0.00     0.111 C 
BRANCH  28  29
HETATM   29  C   UNK N   1      23.088  17.228   4.216  0.00  0.00     0.010 C 
BRANCH  29  30
HETATM   30  C   UNK N   1      22.649  16.065   3.349  0.00  0.00     0.000 C 
BRANCH  30  31
HETATM   31  C   UNK N   1      23.453  14.825   3.714  0.00  0.00     0.000 C 
BRANCH  31  32
HETATM   32  C   UNK N   1      24.119  14.219   2.494  0.00  0.00    -0.000 C 
BRANCH  32  33
HETATM   33  C   UNK N   1      25.628  14.334   2.595  0.00  0.00    -0.005 C 
HETATM   34  C   UNK N   1      26.098  15.572   1.858  0.00  0.00     0.005 C 
ENDBRANCH  32  33
ENDBRANCH  31  32
ENDBRANCH  30  31
ENDBRANCH  29  30
ENDBRANCH  28  29
ENDBRANCH  26  28
ENDBRANCH  25  26
ENDBRANCH  24  25
ENDBRANCH  15  24
ENDBRANCH  11  12
ENDBRANCH   5  11
BRANCH   2  35
HETATM   35  O   UNK N   1      34.584  17.272  10.494  0.00  0.00    -0.390 OA
HETATM   36  H   UNK N   1      34.433  18.163  10.843  0.00  0.00     0.210 HD
ENDBRANCH   2  35
BRANCH   1  37
HETATM   37  C   UNK N   1      33.378  14.659   9.714  0.00  0.00     0.198 C 
BRANCH  37  38
HETATM   38  O   UNK N   1      33.329  14.758  11.103  0.00  0.00    -0.398 OA
HETATM   39  H   UNK N   1      32.506  14.751  11.617  0.00  0.00     0.209 HD
ENDBRANCH  37  38
ENDBRANCH   1  37
TORSDOF 19
ENDMDL
MODEL 4
REMARK VINA RESULT:      -6.0      1.944      2.575
REMARK  19 active torsions:
REMARK  status: ('A' for Active; 'I' for Inactive)
REMARK    1  A    between atoms: C_3  and  C_2 
REMARK    2  A    between atoms: C_4  and  C_3 
REMARK    3  A    between atoms: C_5  and  C_4 
REMARK    4  A    between atoms: C_6  and  C_5 
REMARK    5  A    between atoms: C_7  and  C_6 
REMARK    6  A    between atoms: C_13  and  C_7 
REMARK    7  A    between atoms: C_11  and  C_8 
REMARK    8  A    between atoms: O_21  and  C_8 
REMARK    9  A    between atoms: C_12  and  C_9 
REMARK   10  A    between atoms: O_29  and  C_9 
REMARK   11  A    between atoms: C_20  and  C_10 
REMARK   12  A    between atoms: O_22  and  C_10 
REMARK   13  A    between atoms: O_29  and  C_13 
REMARK   14  A    between atoms: C_14  and  O_24 
REMARK   15  A    between atoms: C_15  and  O_25 
REMARK   16  A    between atoms: C_16  and  O_26 
REMARK   17  A    between atoms: C_18  and  O_28 
REMARK   18  A    between atoms: C_19  and  O_32 
REMARK   19  A    between atoms: C_20  and  O_32 
ROOT
HETATM    1  C   UNK N   1      33.097  16.062   9.001  0.00  0.00     0.179 C 
HETATM    2  C   UNK N   1      34.337  16.970   9.123  0.00  0.00     0.180 C 
HETATM    3  C   UNK N   1      34.097  18.251   8.307  0.00  0.00     0.183 C 
HETATM    4  C   UNK N   1      33.725  17.886   6.855  0.00  0.00     0.204 C 
HETATM    5  C   UNK N   1      32.495  16.936   6.903  0.00  0.00     0.295 C 
HETATM    6  O   UNK N   1      34.800  17.249   6.228  0.00  0.00    -0.388 OA
HETATM    7  O   UNK N   1      32.850  15.784   7.646  0.00  0.00    -0.348 OA
HETATM    8  H   UNK N   1      35.614  16.948   5.794  0.00  0.00     0.210 HD
ENDROOT
BRANCH   3   9
HETATM    9  O   UNK N   1      35.234  19.063   8.333  0.00  0.00    -0.390 OA
HETATM   10  H   UNK N   1      35.461  19.728   9.001  0.00  0.00     0.210 HD
ENDBRANCH   3   9
BRANCH   5  11
HETATM   11  O   UNK N   1      32.069  16.400   5.670  0.00  0.00    -0.318 OA
BRANCH  11  12
HETATM   12  C   UNK N   1      30.717  16.059   5.442  0.00  0.00     0.217 C 
HETATM   13  C   UNK N   1      30.376  16.731   4.097  0.00  0.00     0.214 C 
HETATM   14  C   UNK N   1      28.909  16.918   4.270  0.00  0.00     0.183 C 
HETATM   15  C   UNK N   1      28.894  17.404   5.713  0.00  0.00     0.181 C 
HETATM   16  O   UNK N   1      29.856  16.638   6.418  0.00  0.00    -0.341 OA
BRANCH  12  17
HETATM   17  C   UNK N   1      30.454  14.542   5.298  0.00  0.00     0.235 C 
BRANCH  17  18
HETATM   18  O   UNK N   1      31.221  13.775   6.174  0.00  0.00    -0.395 OA
HETATM   19  H   UNK N   1      31.021  12.837   6.319  0.00  0.00     0.209 HD
ENDBRANCH  17  18
ENDBRANCH  12  17
BRANCH  13  20
HETATM   20  O   UNK N   1      30.994  17.989   4.009  0.00  0.00    -0.387 OA
HETATM   21  H   UNK N   1      31.195  18.688   3.367  0.00  0.00     0.210 HD
ENDBRANCH  13  20
BRANCH  14  22
HETATM   22  O   UNK N   1      28.362  17.840   3.373  0.00  0.00    -0.390 OA
HETATM   23  H   UNK N   1      27.513  17.778   2.909  0.00  0.00     0.210 HD
ENDBRANCH  14  22
BRANCH  15  24
HETATM   24  C   UNK N   1      27.508  17.319   6.346  0.00  0.00     0.213 C 
BRANCH  24  25
HETATM   25  O   UNK N   1      26.582  16.756   5.488  0.00  0.00    -0.319 OA
BRANCH  25  26
HETATM   26  C   UNK N   1      25.471  17.400   5.069  0.00  0.00     0.258 C 
HETATM   27  O   UNK N   1      25.587  18.495   4.530  0.00  0.00    -0.265 OA
BRANCH  26  28
HETATM   28  C   UNK N   1      24.110  16.799   5.269  0.00  0.00     0.111 C 
BRANCH  28  29
HETATM   29  C   UNK N   1      23.190  16.930   4.072  0.00  0.00     0.010 C 
BRANCH  29  30
HETATM   30  C   UNK N   1      21.860  17.459   4.567  0.00  0.00     0.000 C 
BRANCH  30  31
HETATM   31  C   UNK N   1      21.952  17.756   6.058  0.00  0.00     0.000 C 
BRANCH  31  32
HETATM   32  C   UNK N   1      20.743  17.225   6.803  0.00  0.00    -0.000 C 
BRANCH  32  33
HETATM   33  C   UNK N   1      21.138  16.080   7.716  0.00  0.00    -0.005 C 
HETATM   34  C   UNK N   1      20.991  14.764   6.980  0.00  0.00     0.005 C 
ENDBRANCH  32  33
ENDBRANCH  31  32
ENDBRANCH  30  31
ENDBRANCH  29  30
ENDBRANCH  28  29
ENDBRANCH  26  28
ENDBRANCH  25  26
ENDBRANCH  24  25
ENDBRANCH  15  24
ENDBRANCH  11  12
ENDBRANCH   5  11
BRANCH   2  35
HETATM   35  O   UNK N   1      34.578  17.293  10.462  0.00  0.00    -0.390 OA
HETATM   36  H   UNK N   1      34.443  18.188  10.809  0.00  0.00     0.210 HD
ENDBRANCH   2  35
BRANCH   1  37
HETATM   37  C   UNK N   1      33.323  14.708   9.670  0.00  0.00     0.198 C 
BRANCH  37  38
HETATM   38  O   UNK N   1      33.233  14.804  11.057  0.00  0.00    -0.398 OA
HETATM   39  H   UNK N   1      32.395  14.807  11.545  0.00  0.00     0.209 HD
ENDBRANCH  37  38
ENDBRANCH   1  37
TORSDOF 19
ENDMDL
MODEL 5
REMARK VINA RESULT:      -6.0      4.208      7.078
REMARK  19 active torsions:
REMARK  status: ('A' for Active; 'I' for Inactive)
REMARK    1  A    between atoms: C_3  and  C_2 
REMARK    2  A    between atoms: C_4  and  C_3 
REMARK    3  A    between atoms: C_5  and  C_4 
REMARK    4  A    between atoms: C_6  and  C_5 
REMARK    5  A    between atoms: C_7  and  C_6 
REMARK    6  A    between atoms: C_13  and  C_7 
REMARK    7  A    between atoms: C_11  and  C_8 
REMARK    8  A    between atoms: O_21  and  C_8 
REMARK    9  A    between atoms: C_12  and  C_9 
REMARK   10  A    between atoms: O_29  and  C_9 
REMARK   11  A    between atoms: C_20  and  C_10 
REMARK   12  A    between atoms: O_22  and  C_10 
REMARK   13  A    between atoms: O_29  and  C_13 
REMARK   14  A    between atoms: C_14  and  O_24 
REMARK   15  A    between atoms: C_15  and  O_25 
REMARK   16  A    between atoms: C_16  and  O_26 
REMARK   17  A    between atoms: C_18  and  O_28 
REMARK   18  A    between atoms: C_19  and  O_32 
REMARK   19  A    between atoms: C_20  and  O_32 
ROOT
HETATM    1  C   UNK N   1      36.508  13.914  13.394  0.00  0.00     0.179 C 
HETATM    2  C   UNK N   1      36.612  12.376  13.424  0.00  0.00     0.180 C 
HETATM    3  C   UNK N   1      36.575  11.846  11.982  0.00  0.00     0.183 C 
HETATM    4  C   UNK N   1      35.318  12.376  11.260  0.00  0.00     0.204 C 
HETATM    5  C   UNK N   1      35.335  13.929  11.356  0.00  0.00     0.295 C 
HETATM    6  O   UNK N   1      34.165  11.869  11.866  0.00  0.00    -0.388 OA
HETATM    7  O   UNK N   1      35.331  14.291  12.724  0.00  0.00    -0.348 OA
HETATM    8  H   UNK N   1      33.406  11.381  12.222  0.00  0.00     0.210 HD
ENDROOT
BRANCH   3   9
HETATM    9  O   UNK N   1      36.589  10.449  11.977  0.00  0.00    -0.390 OA
HETATM   10  H   UNK N   1      35.823   9.857  12.030  0.00  0.00     0.210 HD
ENDBRANCH   3   9
BRANCH   5  11
HETATM   11  O   UNK N   1      34.203  14.600  10.847  0.00  0.00    -0.318 OA
BRANCH  11  12
HETATM   12  C   UNK N   1      34.216  15.202   9.569  0.00  0.00     0.217 C 
HETATM   13  C   UNK N   1      35.179  16.397   9.719  0.00  0.00     0.214 C 
HETATM   14  C   UNK N   1      34.632  17.298   8.668  0.00  0.00     0.183 C 
HETATM   15  C   UNK N   1      33.145  17.116   8.940  0.00  0.00     0.181 C 
HETATM   16  O   UNK N   1      32.942  15.743   9.230  0.00  0.00    -0.341 OA
BRANCH  12  17
HETATM   17  C   UNK N   1      34.754  14.295   8.438  0.00  0.00     0.235 C 
BRANCH  17  18
HETATM   18  O   UNK N   1      33.806  14.046   7.447  0.00  0.00    -0.395 OA
HETATM   19  H   UNK N   1      32.859  14.153   7.627  0.00  0.00     0.209 HD
ENDBRANCH  17  18
ENDBRANCH  12  17
BRANCH  13  20
HETATM   20  O   UNK N   1      35.013  17.002  10.977  0.00  0.00    -0.387 OA
HETATM   21  H   UNK N   1      35.086  16.805  11.923  0.00  0.00     0.210 HD
ENDBRANCH  13  20
BRANCH  14  22
HETATM   22  O   UNK N   1      35.057  18.623   8.804  0.00  0.00    -0.390 OA
HETATM   23  H   UNK N   1      34.597  19.423   8.505  0.00  0.00     0.210 HD
ENDBRANCH  14  22
BRANCH  15  24
HETATM   24  C   UNK N   1      32.274  17.598   7.783  0.00  0.00     0.213 C 
BRANCH  24  25
HETATM   25  O   UNK N   1      30.951  17.234   7.945  0.00  0.00    -0.319 OA
BRANCH  25  26
HETATM   26  C   UNK N   1      29.973  18.113   8.256  0.00  0.00     0.258 C 
HETATM   27  O   UNK N   1      30.132  18.865   9.212  0.00  0.00    -0.265 OA
BRANCH  26  28
HETATM   28  C   UNK N   1      28.702  18.166   7.459  0.00  0.00     0.111 C 
BRANCH  28  29
HETATM   29  C   UNK N   1      28.634  17.157   6.331  0.00  0.00     0.010 C 
BRANCH  29  30
HETATM   30  C   UNK N   1      29.100  17.847   5.065  0.00  0.00     0.000 C 
BRANCH  30  31
HETATM   31  C   UNK N   1      28.499  19.244   4.995  0.00  0.00     0.000 C 
BRANCH  31  32
HETATM   32  C   UNK N   1      27.295  19.283   4.074  0.00  0.00    -0.000 C 
BRANCH  32  33
HETATM   33  C   UNK N   1      26.388  20.446   4.428  0.00  0.00    -0.005 C 
HETATM   34  C   UNK N   1      26.833  21.062   5.739  0.00  0.00     0.005 C 
ENDBRANCH  32  33
ENDBRANCH  31  32
ENDBRANCH  30  31
ENDBRANCH  29  30
ENDBRANCH  28  29
ENDBRANCH  26  28
ENDBRANCH  25  26
ENDBRANCH  24  25
ENDBRANCH  15  24
ENDBRANCH  11  12
ENDBRANCH   5  11
BRANCH   2  35
HETATM   35  O   UNK N   1      37.797  11.978  14.050  0.00  0.00    -0.390 OA
HETATM   36  H   UNK N   1      37.921  11.081  14.398  0.00  0.00     0.210 HD
ENDBRANCH   2  35
BRANCH   1  37
HETATM   37  C   UNK N   1      36.394  14.499  14.800  0.00  0.00     0.198 C 
BRANCH  37  38
HETATM   38  O   UNK N   1      37.632  14.533  15.438  0.00  0.00    -0.398 OA
HETATM   39  H   UNK N   1      38.216  15.308  15.442  0.00  0.00     0.209 HD
ENDBRANCH  37  38
ENDBRANCH   1  37
TORSDOF 19
ENDMDL
MODEL 6
REMARK VINA RESULT:      -6.0      3.130      4.302
REMARK  19 active torsions:
REMARK  status: ('A' for Active; 'I' for Inactive)
REMARK    1  A    between atoms: C_3  and  C_2 
REMARK    2  A    between atoms: C_4  and  C_3 
REMARK    3  A    between atoms: C_5  and  C_4 
REMARK    4  A    between atoms: C_6  and  C_5 
REMARK    5  A    between atoms: C_7  and  C_6 
REMARK    6  A    between atoms: C_13  and  C_7 
REMARK    7  A    between atoms: C_11  and  C_8 
REMARK    8  A    between atoms: O_21  and  C_8 
REMARK    9  A    between atoms: C_12  and  C_9 
REMARK   10  A    between atoms: O_29  and  C_9 
REMARK   11  A    between atoms: C_20  and  C_10 
REMARK   12  A    between atoms: O_22  and  C_10 
REMARK   13  A    between atoms: O_29  and  C_13 
REMARK   14  A    between atoms: C_14  and  O_24 
REMARK   15  A    between atoms: C_15  and  O_25 
REMARK   16  A    between atoms: C_16  and  O_26 
REMARK   17  A    between atoms: C_18  and  O_28 
REMARK   18  A    between atoms: C_19  and  O_32 
REMARK   19  A    between atoms: C_20  and  O_32 
ROOT
HETATM    1  C   UNK N   1      33.263  15.762   9.047  0.00  0.00     0.179 C 
HETATM    2  C   UNK N   1      34.376  16.830   9.040  0.00  0.00     0.180 C 
HETATM    3  C   UNK N   1      34.005  17.928   8.031  0.00  0.00     0.183 C 
HETATM    4  C   UNK N   1      33.728  17.301   6.649  0.00  0.00     0.204 C 
HETATM    5  C   UNK N   1      32.625  16.220   6.831  0.00  0.00     0.295 C 
HETATM    6  O   UNK N   1      34.893  16.718   6.142  0.00  0.00    -0.388 OA
HETATM    7  O   UNK N   1      33.096  15.251   7.748  0.00  0.00    -0.348 OA
HETATM    8  H   UNK N   1      35.751  16.461   5.771  0.00  0.00     0.210 HD
ENDROOT
BRANCH   3   9
HETATM    9  O   UNK N   1      35.031  18.873   7.943  0.00  0.00    -0.390 OA
HETATM   10  H   UNK N   1      34.983  19.812   8.184  0.00  0.00     0.210 HD
ENDBRANCH   3   9
BRANCH   5  11
HETATM   11  O   UNK N   1      32.308  15.451   5.692  0.00  0.00    -0.318 OA
BRANCH  11  12
HETATM   12  C   UNK N   1      30.969  15.216   5.309  0.00  0.00     0.217 C 
HETATM   13  C   UNK N   1      30.858  15.835   3.902  0.00  0.00     0.214 C 
HETATM   14  C   UNK N   1      29.405  16.158   3.879  0.00  0.00     0.183 C 
HETATM   15  C   UNK N   1      29.259  16.726   5.284  0.00  0.00     0.181 C 
HETATM   16  O   UNK N   1      30.052  15.921   6.141  0.00  0.00    -0.341 OA
BRANCH  12  17
HETATM   17  C   UNK N   1      30.585  13.721   5.204  0.00  0.00     0.235 C 
BRANCH  17  18
HETATM   18  O   UNK N   1      31.230  13.070   4.153  0.00  0.00    -0.395 OA
HETATM   19  H   UNK N   1      32.041  13.434   3.766  0.00  0.00     0.209 HD
ENDBRANCH  17  18
ENDBRANCH  12  17
BRANCH  13  20
HETATM   20  O   UNK N   1      31.597  17.029   3.836  0.00  0.00    -0.387 OA
HETATM   21  H   UNK N   1      32.069  17.656   4.404  0.00  0.00     0.210 HD
ENDBRANCH  13  20
BRANCH  14  22
HETATM   22  O   UNK N   1      29.060  17.071   2.878  0.00  0.00    -0.390 OA
HETATM   23  H   UNK N   1      28.543  17.886   2.978  0.00  0.00     0.210 HD
ENDBRANCH  14  22
BRANCH  15  24
HETATM   24  C   UNK N   1      27.804  16.798   5.739  0.00  0.00     0.213 C 
BRANCH  24  25
HETATM   25  O   UNK N   1      26.968  16.070   4.913  0.00  0.00    -0.319 OA
BRANCH  25  26
HETATM   26  C   UNK N   1      25.822  16.565   4.396  0.00  0.00     0.258 C 
HETATM   27  O   UNK N   1      24.786  15.922   4.526  0.00  0.00    -0.265 OA
BRANCH  26  28
HETATM   28  C   UNK N   1      25.810  17.874   3.662  0.00  0.00     0.111 C 
BRANCH  28  29
HETATM   29  C   UNK N   1      24.944  18.939   4.303  0.00  0.00     0.010 C 
BRANCH  29  30
HETATM   30  C   UNK N   1      25.565  20.287   3.997  0.00  0.00     0.000 C 
BRANCH  30  31
HETATM   31  C   UNK N   1      27.076  20.200   4.160  0.00  0.00     0.000 C 
BRANCH  31  32
HETATM   32  C   UNK N   1      27.486  20.354   5.612  0.00  0.00    -0.000 C 
BRANCH  32  33
HETATM   33  C   UNK N   1      27.059  21.708   6.147  0.00  0.00    -0.005 C 
HETATM   34  C   UNK N   1      26.161  21.522   7.352  0.00  0.00     0.005 C 
ENDBRANCH  32  33
ENDBRANCH  31  32
ENDBRANCH  30  31
ENDBRANCH  29  30
ENDBRANCH  28  29
ENDBRANCH  26  28
ENDBRANCH  25  26
ENDBRANCH  24  25
ENDBRANCH  15  24
ENDBRANCH  11  12
ENDBRANCH   5  11
BRANCH   2  35
HETATM   35  O   UNK N   1      34.533  17.383  10.315  0.00  0.00    -0.390 OA
HETATM   36  H   UNK N   1      33.819  17.376  10.971  0.00  0.00     0.210 HD
ENDBRANCH   2  35
BRANCH   1  37
HETATM   37  C   UNK N   1      33.636  14.567   9.921  0.00  0.00     0.198 C 
BRANCH  37  38
HETATM   38  O   UNK N   1      33.449  14.848  11.273  0.00  0.00    -0.398 OA
HETATM   39  H   UNK N   1      32.987  14.258  11.889  0.00  0.00     0.209 HD
ENDBRANCH  37  38
ENDBRANCH   1  37
TORSDOF 19
ENDMDL
MODEL 7
REMARK VINA RESULT:      -5.9      4.742     10.586
REMARK  19 active torsions:
REMARK  status: ('A' for Active; 'I' for Inactive)
REMARK    1  A    between atoms: C_3  and  C_2 
REMARK    2  A    between atoms: C_4  and  C_3 
REMARK    3  A    between atoms: C_5  and  C_4 
REMARK    4  A    between atoms: C_6  and  C_5 
REMARK    5  A    between atoms: C_7  and  C_6 
REMARK    6  A    between atoms: C_13  and  C_7 
REMARK    7  A    between atoms: C_11  and  C_8 
REMARK    8  A    between atoms: O_21  and  C_8 
REMARK    9  A    between atoms: C_12  and  C_9 
REMARK   10  A    between atoms: O_29  and  C_9 
REMARK   11  A    between atoms: C_20  and  C_10 
REMARK   12  A    between atoms: O_22  and  C_10 
REMARK   13  A    between atoms: O_29  and  C_13 
REMARK   14  A    between atoms: C_14  and  O_24 
REMARK   15  A    between atoms: C_15  and  O_25 
REMARK   16  A    between atoms: C_16  and  O_26 
REMARK   17  A    between atoms: C_18  and  O_28 
REMARK   18  A    between atoms: C_19  and  O_32 
REMARK   19  A    between atoms: C_20  and  O_32 
ROOT
HETATM    1  C   UNK N   1      21.065  19.823   2.468  0.00  0.00     0.179 C 
HETATM    2  C   UNK N   1      19.952  18.758   2.537  0.00  0.00     0.180 C 
HETATM    3  C   UNK N   1      20.119  17.948   3.833  0.00  0.00     0.183 C 
HETATM    4  C   UNK N   1      21.547  17.369   3.911  0.00  0.00     0.204 C 
HETATM    5  C   UNK N   1      22.547  18.554   3.781  0.00  0.00     0.295 C 
HETATM    6  O   UNK N   1      21.752  16.451   2.877  0.00  0.00    -0.388 OA
HETATM    7  O   UNK N   1      22.321  19.194   2.540  0.00  0.00    -0.348 OA
HETATM    8  H   UNK N   1      21.798  15.721   2.240  0.00  0.00     0.210 HD
ENDROOT
BRANCH   3   9
HETATM    9  O   UNK N   1      19.171  16.922   3.889  0.00  0.00    -0.390 OA
HETATM   10  H   UNK N   1      19.230  16.099   4.399  0.00  0.00     0.210 HD
ENDBRANCH   3   9
BRANCH   5  11
HETATM   11  O   UNK N   1      23.914  18.215   3.719  0.00  0.00    -0.318 OA
BRANCH  11  12
HETATM   12  C   UNK N   1      24.921  19.145   4.059  0.00  0.00     0.217 C 
HETATM   13  C   UNK N   1      26.173  18.644   3.312  0.00  0.00     0.214 C 
HETATM   14  C   UNK N   1      27.236  19.189   4.201  0.00  0.00     0.183 C 
HETATM   15  C   UNK N   1      26.621  18.850   5.552  0.00  0.00     0.181 C 
HETATM   16  O   UNK N   1      25.230  19.103   5.449  0.00  0.00    -0.341 OA
BRANCH  12  17
HETATM   17  C   UNK N   1      24.637  20.594   3.597  0.00  0.00     0.235 C 
BRANCH  17  18
HETATM   18  O   UNK N   1      24.780  20.759   2.220  0.00  0.00    -0.395 OA
HETATM   19  H   UNK N   1      24.795  19.993   1.626  0.00  0.00     0.209 HD
ENDBRANCH  17  18
ENDBRANCH  12  17
BRANCH  13  20
HETATM   20  O   UNK N   1      26.226  17.240   3.336  0.00  0.00    -0.387 OA
HETATM   21  H   UNK N   1      25.650  16.462   3.280  0.00  0.00     0.210 HD
ENDBRANCH  13  20
BRANCH  14  22
HETATM   22  O   UNK N   1      28.483  18.591   3.998  0.00  0.00    -0.390 OA
HETATM   23  H   UNK N   1      28.659  17.681   3.712  0.00  0.00     0.210 HD
ENDBRANCH  14  22
BRANCH  15  24
HETATM   24  C   UNK N   1      27.267  19.621   6.700  0.00  0.00     0.213 C 
BRANCH  24  25
HETATM   25  O   UNK N   1      28.371  18.963   7.207  0.00  0.00    -0.319 OA
BRANCH  25  26
HETATM   26  C   UNK N   1      28.447  18.515   8.480  0.00  0.00     0.258 C 
HETATM   27  O   UNK N   1      27.482  17.934   8.964  0.00  0.00    -0.265 OA
BRANCH  26  28
HETATM   28  C   UNK N   1      29.685  18.732   9.300  0.00  0.00     0.111 C 
BRANCH  28  29
HETATM   29  C   UNK N   1      30.971  18.334   8.604  0.00  0.00     0.010 C 
BRANCH  29  30
HETATM   30  C   UNK N   1      30.998  16.822   8.512  0.00  0.00     0.000 C 
BRANCH  30  31
HETATM   31  C   UNK N   1      32.387  16.363   8.090  0.00  0.00     0.000 C 
BRANCH  31  32
HETATM   32  C   UNK N   1      32.484  16.205   6.585  0.00  0.00    -0.000 C 
BRANCH  32  33
HETATM   33  C   UNK N   1      33.404  17.256   5.995  0.00  0.00    -0.005 C 
HETATM   34  C   UNK N   1      32.932  17.626   4.604  0.00  0.00     0.005 C 
ENDBRANCH  32  33
ENDBRANCH  31  32
ENDBRANCH  30  31
ENDBRANCH  29  30
ENDBRANCH  28  29
ENDBRANCH  26  28
ENDBRANCH  25  26
ENDBRANCH  24  25
ENDBRANCH  15  24
ENDBRANCH  11  12
ENDBRANCH   5  11
BRANCH   2  35
HETATM   35  O   UNK N   1      18.692  19.363   2.509  0.00  0.00    -0.390 OA
HETATM   36  H   UNK N   1      17.963  19.063   3.073  0.00  0.00     0.210 HD
ENDBRANCH   2  35
BRANCH   1  37
HETATM   37  C   UNK N   1      21.048  20.570   1.137  0.00  0.00     0.198 C 
BRANCH  37  38
HETATM   38  O   UNK N   1      20.583  19.759   0.104  0.00  0.00    -0.398 OA
HETATM   39  H   UNK N   1      20.064  20.085  -0.648  0.00  0.00     0.209 HD
ENDBRANCH  37  38
ENDBRANCH   1  37
TORSDOF 19
ENDMDL
MODEL 8
REMARK VINA RESULT:      -5.9      4.734      7.671
REMARK  19 active torsions:
REMARK  status: ('A' for Active; 'I' for Inactive)
REMARK    1  A    between atoms: C_3  and  C_2 
REMARK    2  A    between atoms: C_4  and  C_3 
REMARK    3  A    between atoms: C_5  and  C_4 
REMARK    4  A    between atoms: C_6  and  C_5 
REMARK    5  A    between atoms: C_7  and  C_6 
REMARK    6  A    between atoms: C_13  and  C_7 
REMARK    7  A    between atoms: C_11  and  C_8 
REMARK    8  A    between atoms: O_21  and  C_8 
REMARK    9  A    between atoms: C_12  and  C_9 
REMARK   10  A    between atoms: O_29  and  C_9 
REMARK   11  A    between atoms: C_20  and  C_10 
REMARK   12  A    between atoms: O_22  and  C_10 
REMARK   13  A    between atoms: O_29  and  C_13 
REMARK   14  A    between atoms: C_14  and  O_24 
REMARK   15  A    between atoms: C_15  and  O_25 
REMARK   16  A    between atoms: C_16  and  O_26 
REMARK   17  A    between atoms: C_18  and  O_28 
REMARK   18  A    between atoms: C_19  and  O_32 
REMARK   19  A    between atoms: C_20  and  O_32 
ROOT
HETATM    1  C   UNK N   1      36.586  13.872  13.419  0.00  0.00     0.179 C 
HETATM    2  C   UNK N   1      36.634  12.336  13.540  0.00  0.00     0.180 C 
HETATM    3  C   UNK N   1      36.607  11.725  12.130  0.00  0.00     0.183 C 
HETATM    4  C   UNK N   1      35.386  12.256  11.351  0.00  0.00     0.204 C 
HETATM    5  C   UNK N   1      35.457  13.810  11.358  0.00  0.00     0.295 C 
HETATM    6  O   UNK N   1      34.202  11.825  11.958  0.00  0.00    -0.388 OA
HETATM    7  O   UNK N   1      35.437  14.251  12.703  0.00  0.00    -0.348 OA
HETATM    8  H   UNK N   1      33.419  11.386  12.324  0.00  0.00     0.210 HD
ENDROOT
BRANCH   3   9
HETATM    9  O   UNK N   1      36.571  10.330  12.206  0.00  0.00    -0.390 OA
HETATM   10  H   UNK N   1      36.538   9.789  13.011  0.00  0.00     0.210 HD
ENDBRANCH   3   9
BRANCH   5  11
HETATM   11  O   UNK N   1      34.361  14.489  10.785  0.00  0.00    -0.318 OA
BRANCH  11  12
HETATM   12  C   UNK N   1      34.478  15.172   9.555  0.00  0.00     0.217 C 
HETATM   13  C   UNK N   1      35.363  16.392   9.877  0.00  0.00     0.214 C 
HETATM   14  C   UNK N   1      34.887  17.337   8.828  0.00  0.00     0.183 C 
HETATM   15  C   UNK N   1      33.389  17.077   8.928  0.00  0.00     0.181 C 
HETATM   16  O   UNK N   1      33.223  15.681   9.113  0.00  0.00    -0.341 OA
BRANCH  12  17
HETATM   17  C   UNK N   1      35.174  14.361   8.435  0.00  0.00     0.235 C 
BRANCH  17  18
HETATM   18  O   UNK N   1      34.436  13.247   8.037  0.00  0.00    -0.395 OA
HETATM   19  H   UNK N   1      33.620  13.000   8.499  0.00  0.00     0.209 HD
ENDBRANCH  17  18
ENDBRANCH  12  17
BRANCH  13  20
HETATM   20  O   UNK N   1      35.039  16.909  11.143  0.00  0.00    -0.387 OA
HETATM   21  H   UNK N   1      35.008  17.746  11.631  0.00  0.00     0.210 HD
ENDBRANCH  13  20
BRANCH  14  22
HETATM   22  O   UNK N   1      35.232  18.666   9.087  0.00  0.00    -0.390 OA
HETATM   23  H   UNK N   1      35.115  19.153   9.918  0.00  0.00     0.210 HD
ENDBRANCH  14  22
BRANCH  15  24
HETATM   24  C   UNK N   1      32.623  17.596   7.715  0.00  0.00     0.213 C 
BRANCH  24  25
HETATM   25  O   UNK N   1      33.471  17.997   6.701  0.00  0.00    -0.319 OA
BRANCH  25  26
HETATM   26  C   UNK N   1      33.616  17.317   5.542  0.00  0.00     0.258 C 
HETATM   27  O   UNK N   1      34.474  16.444   5.469  0.00  0.00    -0.265 OA
BRANCH  26  28
HETATM   28  C   UNK N   1      32.754  17.628   4.353  0.00  0.00     0.111 C 
BRANCH  28  29
HETATM   29  C   UNK N   1      32.487  16.440   3.451  0.00  0.00     0.010 C 
BRANCH  29  30
HETATM   30  C   UNK N   1      31.028  16.484   3.048  0.00  0.00     0.000 C 
BRANCH  30  31
HETATM   31  C   UNK N   1      30.220  17.181   4.133  0.00  0.00     0.000 C 
BRANCH  31  32
HETATM   32  C   UNK N   1      28.730  17.065   3.874  0.00  0.00    -0.000 C 
BRANCH  32  33
HETATM   33  C   UNK N   1      27.946  17.872   4.892  0.00  0.00    -0.005 C 
HETATM   34  C   UNK N   1      28.189  19.351   4.670  0.00  0.00     0.005 C 
ENDBRANCH  32  33
ENDBRANCH  31  32
ENDBRANCH  30  31
ENDBRANCH  29  30
ENDBRANCH  28  29
ENDBRANCH  26  28
ENDBRANCH  25  26
ENDBRANCH  24  25
ENDBRANCH  15  24
ENDBRANCH  11  12
ENDBRANCH   5  11
BRANCH   2  35
HETATM   35  O   UNK N   1      37.790  11.933  14.215  0.00  0.00    -0.390 OA
HETATM   36  H   UNK N   1      38.544  12.528  14.347  0.00  0.00     0.210 HD
ENDBRANCH   2  35
BRANCH   1  37
HETATM   37  C   UNK N   1      36.464  14.541  14.787  0.00  0.00     0.198 C 
BRANCH  37  38
HETATM   38  O   UNK N   1      37.689  14.573  15.449  0.00  0.00    -0.398 OA
HETATM   39  H   UNK N   1      38.528  14.809  15.023  0.00  0.00     0.209 HD
ENDBRANCH  37  38
ENDBRANCH   1  37
TORSDOF 19
ENDMDL
MODEL 9
REMARK VINA RESULT:      -5.9      6.998     11.165
REMARK  19 active torsions:
REMARK  status: ('A' for Active; 'I' for Inactive)
REMARK    1  A    between atoms: C_3  and  C_2 
REMARK    2  A    between atoms: C_4  and  C_3 
REMARK    3  A    between atoms: C_5  and  C_4 
REMARK    4  A    between atoms: C_6  and  C_5 
REMARK    5  A    between atoms: C_7  and  C_6 
REMARK    6  A    between atoms: C_13  and  C_7 
REMARK    7  A    between atoms: C_11  and  C_8 
REMARK    8  A    between atoms: O_21  and  C_8 
REMARK    9  A    between atoms: C_12  and  C_9 
REMARK   10  A    between atoms: O_29  and  C_9 
REMARK   11  A    between atoms: C_20  and  C_10 
REMARK   12  A    between atoms: O_22  and  C_10 
REMARK   13  A    between atoms: O_29  and  C_13 
REMARK   14  A    between atoms: C_14  and  O_24 
REMARK   15  A    between atoms: C_15  and  O_25 
REMARK   16  A    between atoms: C_16  and  O_26 
REMARK   17  A    between atoms: C_18  and  O_28 
REMARK   18  A    between atoms: C_19  and  O_32 
REMARK   19  A    between atoms: C_20  and  O_32 
ROOT
HETATM    1  C   UNK N   1      34.895  13.854   8.387  0.00  0.00     0.179 C 
HETATM    2  C   UNK N   1      34.395  15.308   8.509  0.00  0.00     0.180 C 
HETATM    3  C   UNK N   1      34.879  15.889   9.847  0.00  0.00     0.183 C 
HETATM    4  C   UNK N   1      34.438  14.974  11.008  0.00  0.00     0.204 C 
HETATM    5  C   UNK N   1      34.976  13.544  10.716  0.00  0.00     0.295 C 
HETATM    6  O   UNK N   1      33.043  14.953  11.102  0.00  0.00    -0.388 OA
HETATM    7  O   UNK N   1      34.434  13.106   9.484  0.00  0.00    -0.348 OA
HETATM    8  H   UNK N   1      32.090  15.085  11.220  0.00  0.00     0.210 HD
ENDROOT
BRANCH   3   9
HETATM    9  O   UNK N   1      34.378  17.181  10.025  0.00  0.00    -0.390 OA
HETATM   10  H   UNK N   1      33.470  17.429  10.257  0.00  0.00     0.210 HD
ENDBRANCH   3   9
BRANCH   5  11
HETATM   11  O   UNK N   1      34.581  12.530  11.614  0.00  0.00    -0.318 OA
BRANCH  11  12
HETATM   12  C   UNK N   1      35.283  12.295  12.816  0.00  0.00     0.217 C 
HETATM   13  C   UNK N   1      34.725  10.953  13.330  0.00  0.00     0.214 C 
HETATM   14  C   UNK N   1      34.956  11.123  14.791  0.00  0.00     0.183 C 
HETATM   15  C   UNK N   1      34.503  12.569  14.943  0.00  0.00     0.181 C 
HETATM   16  O   UNK N   1      34.976  13.272  13.806  0.00  0.00    -0.341 OA
BRANCH  12  17
HETATM   17  C   UNK N   1      36.813  12.141  12.645  0.00  0.00     0.235 C 
BRANCH  17  18
HETATM   18  O   UNK N   1      37.500  13.341  12.820  0.00  0.00    -0.395 OA
HETATM   19  H   UNK N   1      37.573  13.983  12.096  0.00  0.00     0.209 HD
ENDBRANCH  17  18
ENDBRANCH  12  17
BRANCH  13  20
HETATM   20  O   UNK N   1      33.343  10.876  13.087  0.00  0.00    -0.387 OA
HETATM   21  H   UNK N   1      32.601  10.255  13.147  0.00  0.00     0.210 HD
ENDBRANCH  13  20
BRANCH  14  22
HETATM   22  O   UNK N   1      34.216  10.230  15.572  0.00  0.00    -0.390 OA
HETATM   23  H   UNK N   1      33.746  10.421  16.399  0.00  0.00     0.210 HD
ENDBRANCH  14  22
BRANCH  15  24
HETATM   24  C   UNK N   1      34.976  13.197  16.250  0.00  0.00     0.213 C 
BRANCH  24  25
HETATM   25  O   UNK N   1      34.903  12.308  17.307  0.00  0.00    -0.319 OA
BRANCH  25  26
HETATM   26  C   UNK N   1      35.191  12.647  18.583  0.00  0.00     0.258 C 
HETATM   27  O   UNK N   1      35.333  13.832  18.865  0.00  0.00    -0.265 OA
BRANCH  26  28
HETATM   28  C   UNK N   1      35.349  11.596  19.642  0.00  0.00     0.111 C 
BRANCH  28  29
HETATM   29  C   UNK N   1      36.049  10.337  19.170  0.00  0.00     0.010 C 
BRANCH  29  30
HETATM   30  C   UNK N   1      34.984   9.308  18.850  0.00  0.00     0.000 C 
BRANCH  30  31
HETATM   31  C   UNK N   1      34.062   9.140  20.050  0.00  0.00     0.000 C 
BRANCH  31  32
HETATM   32  C   UNK N   1      32.917   8.195  19.739  0.00  0.00    -0.000 C 
BRANCH  32  33
HETATM   33  C   UNK N   1      31.629   8.691  20.368  0.00  0.00    -0.005 C 
HETATM   34  C   UNK N   1      30.488   7.767  19.993  0.00  0.00     0.005 C 
ENDBRANCH  32  33
ENDBRANCH  31  32
ENDBRANCH  30  31
ENDBRANCH  29  30
ENDBRANCH  28  29
ENDBRANCH  26  28
ENDBRANCH  25  26
ENDBRANCH  24  25
ENDBRANCH  15  24
ENDBRANCH  11  12
ENDBRANCH   5  11
BRANCH   2  35
HETATM   35  O   UNK N   1      34.876  16.082   7.448  0.00  0.00    -0.390 OA
HETATM   36  H   UNK N   1      35.824  16.208   7.290  0.00  0.00     0.210 HD
ENDBRANCH   2  35
BRANCH   1  37
HETATM   37  C   UNK N   1      34.329  13.167   7.146  0.00  0.00     0.198 C 
BRANCH  37  38
HETATM   38  O   UNK N   1      34.606  11.801   7.149  0.00  0.00    -0.398 OA
HETATM   39  H   UNK N   1      34.907  11.309   6.370  0.00  0.00     0.209 HD
ENDBRANCH  37  38
ENDBRANCH   1  37
TORSDOF 19
ENDMDL
