REMARK  9 active torsions:
REMARK  status: ('A' for Active; 'I' for Inactive)
REMARK       I    between atoms: N_1  and  C_2 
REMARK    1  A    between atoms: N_8  and  C_16 
REMARK    2  A    between atoms: C_12  and  O_13 
REMARK    3  A    between atoms: C_20  and  C_22 
REMARK       I    between atoms: C_22  and  N_24 
REMARK    4  A    between atoms: N_24  and  C_25 
REMARK    5  A    between atoms: C_25  and  C_26 
REMARK    6  A    between atoms: C_31  and  S_32 
REMARK    7  A    between atoms: S_32  and  C_33 
REMARK    8  A    between atoms: C_38  and  C_39 
REMARK    9  A    between atoms: C_39  and  O_40 
ROOT
HETATM    1  C   UNK N   1      -1.086   0.318  -0.012  0.00  0.00     0.075 A 
HETATM    2  C   UNK N   1      -1.794  -0.812   0.423  0.00  0.00     0.033 A 
HETATM    3  C   UNK N   1      -3.206  -0.761   0.442  0.00  0.00     0.003 A 
HETATM    4  C   UNK N   1      -3.886   0.408   0.029  0.00  0.00     0.017 A 
HETATM    5  C   UNK N   1      -3.144   1.499  -0.458  0.00  0.00     0.034 A 
HETATM    6  C   UNK N   1      -1.778   1.420  -0.462  0.00  0.00     0.050 A 
ENDROOT
BRANCH   5   7
HETATM    7  C   UNK N   1      -3.694   2.769  -0.973  0.00  0.00     0.252 C 
HETATM    8  O   UNK N   1      -3.066   3.369  -1.832  0.00  0.00    -0.268 OA
HETATM    9  N   UNK N   1      -4.790   3.360  -0.471  0.00  0.00    -0.353 N 
HETATM   10  H   UNK N   1      -5.111   4.171  -0.927  0.00  0.00     0.163 HD
BRANCH   9  11
HETATM   11  C   UNK N   1      -5.533   2.915   0.669  0.00  0.00     0.162 C 
BRANCH  11  12
HETATM   12  C   UNK N   1      -6.914   3.286   0.355  0.00  0.00    -0.023 A 
HETATM   13  C   UNK N   1      -7.717   2.279  -0.190  0.00  0.00     0.010 A 
HETATM   14  C   UNK N   1      -9.013   2.557  -0.606  0.00  0.00     0.001 A 
HETATM   15  C   UNK N   1      -9.508   3.855  -0.499  0.00  0.00     0.001 A 
HETATM   16  C   UNK N   1      -8.716   4.869   0.051  0.00  0.00     0.019 A 
HETATM   17  C   UNK N   1      -7.406   4.615   0.481  0.00  0.00     0.013 A 
BRANCH  17  18
HETATM   18  S   UNK N   1      -6.555   5.992   1.356  0.00  0.00    -0.089 SA
BRANCH  18  19
HETATM   19  C   UNK N   1      -4.903   6.331   0.660  0.00  0.00     0.014 A 
HETATM   20  C   UNK N   1      -3.853   5.511   1.097  0.00  0.00     0.019 A 
HETATM   21  C   UNK N   1      -2.533   5.747   0.711  0.00  0.00     0.001 A 
HETATM   22  C   UNK N   1      -2.230   6.834  -0.102  0.00  0.00     0.001 A 
HETATM   23  C   UNK N   1      -3.247   7.690  -0.520  0.00  0.00     0.011 A 
HETATM   24  C   UNK N   1      -4.583   7.472  -0.148  0.00  0.00    -0.018 A 
BRANCH  24  25
HETATM   25  C   UNK N   1      -5.553   8.526  -0.618  0.00  0.00     0.204 C 
BRANCH  25  26
HETATM   26  O   UNK N   1      -6.828   8.423  -0.072  0.00  0.00    -0.396 OA
HETATM   27  H   UNK N   1      -7.335   9.158   0.308  0.00  0.00     0.209 HD
ENDBRANCH  25  26
ENDBRANCH  24  25
ENDBRANCH  18  19
ENDBRANCH  17  18
ENDBRANCH  11  12
ENDBRANCH   9  11
ENDBRANCH   5   7
BRANCH   1  28
HETATM   28  N   UNK N   1       0.332   0.459   0.044  0.00  0.00    -0.195 N 
HETATM   29  N   UNK N   1       1.250  -0.496   0.190  0.00  0.00    -0.261 N 
HETATM   30  C   UNK N   1       2.429   0.160   0.152  0.00  0.00     0.170 A 
ATOM     31  HN  UNK N   1       1.096  -1.498   0.305  1.00  0.00     0.191 HD
HETATM   32  N   UNK N   1       3.686  -0.339   0.217  0.00  0.00    -0.173 N 
HETATM   33  C   UNK N   1       2.193   1.476   0.011  0.00  0.00     0.147 A 
HETATM   34  C   UNK N   1       4.731   0.554   0.141  0.00  0.00     0.679 A 
ATOM     35  HN  UNK N   1       3.852  -1.340   0.318  1.00  0.00     0.186 HD
HETATM   36  N   UNK N   1       6.057   0.085   0.173  0.00  0.00    -0.234 N 
HETATM   37  N   UNK N   1       4.492   1.906   0.023  0.00  0.00    -0.168 N 
HETATM   38  H   UNK N   1       6.236  -0.882   0.196  0.00  0.00     0.174 HD
HETATM   39  H   UNK N   1       6.805   0.725   0.173  0.00  0.00     0.174 HD
HETATM   40  C   UNK N   1       3.219   2.388  -0.042  0.00  0.00     0.187 A 
ATOM     41  HN  UNK N   1       5.279   2.554  -0.017  1.00  0.00     0.186 HD
HETATM   42  N   UNK N   1       0.886   1.666  -0.063  0.00  0.00    -0.272 N 
ATOM     43  HN  UNK N   1       0.401   2.555  -0.179  1.00  0.00     0.189 HD
BRANCH  40  44
HETATM   44  O   UNK N   1       2.978   3.706  -0.156  0.00  0.00    -0.344 OA
HETATM   45  H   UNK N   1       3.690   4.310  -0.236  0.00  0.00     0.219 HD
ENDBRANCH  40  44
ENDBRANCH   1  28
TORSDOF 9
