MODEL 1
REMARK VINA RESULT:      -4.0      0.000      0.000
REMARK  7 active torsions:
REMARK  status: ('A' for Active; 'I' for Inactive)
REMARK    1  A    between atoms: C_2  and  N_1 
REMARK    2  A    between atoms: C_2  and  C_3 
REMARK    3  A    between atoms: C_2  and  C_7 
REMARK    4  A    between atoms: C_3  and  C_4 
REMARK    5  A    between atoms: C_4  and  C_5 
REMARK    6  A    between atoms: C_5  and  O_6 
REMARK    7  A    between atoms: C_7  and  O_8 
ROOT
HETATM    1  C   UNK N   1      33.945  17.263   8.975  0.00  0.00     0.173 C 
ENDROOT
BRANCH   1   2
HETATM    2  N   UNK N   1      34.615  16.995  10.234  0.00  0.00    -0.418 N 
HETATM    3  H   UNK N   1      34.678  16.039  10.586  0.00  0.00     0.150 HD
HETATM    4  H   UNK N   1      35.024  17.763  10.768  0.00  0.00     0.150 HD
ENDBRANCH   1   2
BRANCH   1   5
HETATM    5  C   UNK N   1      32.652  16.487   8.740  0.00  0.00     0.037 C 
BRANCH   5   6
HETATM    6  C   UNK N   1      31.441  17.360   8.446  0.00  0.00     0.028 C 
BRANCH   6   7
HETATM    7  C   UNK N   1      30.840  17.121   7.060  0.00  0.00     0.164 C 
BRANCH   7   8
HETATM    8  O   UNK N   1      31.779  17.266   6.034  0.00  0.00    -0.401 OA
HETATM    9  H   UNK N   1      31.513  17.656   5.186  0.00  0.00     0.209 HD
ENDBRANCH   7   8
ENDBRANCH   6   7
ENDBRANCH   5   6
ENDBRANCH   1   5
BRANCH   1  10
HETATM   10  C   UNK N   1      34.600  18.264   8.060  0.00  0.00     0.163 C 
HETATM   11  O   UNK N   1      35.251  19.194   8.508  0.00  0.00    -0.648 OA
BRANCH  10  12
HETATM   12  O   UNK N   1      34.467  18.132   6.726  0.00  0.00    -0.775 OA
HETATM   13  H   UNK N   1      34.070  18.817   6.225  0.00  0.00     0.167 HD
ENDBRANCH  10  12
ENDBRANCH   1  10
TORSDOF 7
ENDMDL
MODEL 2
REMARK VINA RESULT:      -4.0     11.789     12.340
REMARK  7 active torsions:
REMARK  status: ('A' for Active; 'I' for Inactive)
REMARK    1  A    between atoms: C_2  and  N_1 
REMARK    2  A    between atoms: C_2  and  C_3 
REMARK    3  A    between atoms: C_2  and  C_7 
REMARK    4  A    between atoms: C_3  and  C_4 
REMARK    5  A    between atoms: C_4  and  C_5 
REMARK    6  A    between atoms: C_5  and  O_6 
REMARK    7  A    between atoms: C_7  and  O_8 
ROOT
HETATM    1  C   UNK N   1      23.747  12.044  11.119  0.00  0.00     0.173 C 
ENDROOT
BRANCH   1   2
HETATM    2  N   UNK N   1      25.071  12.635  11.044  0.00  0.00    -0.418 N 
HETATM    3  H   UNK N   1      25.626  12.753  11.891  0.00  0.00     0.150 HD
HETATM    4  H   UNK N   1      25.445  12.932  10.143  0.00  0.00     0.150 HD
ENDBRANCH   1   2
BRANCH   1   5
HETATM    5  C   UNK N   1      23.123  11.657   9.781  0.00  0.00     0.037 C 
BRANCH   5   6
HETATM    6  C   UNK N   1      22.500  12.819   9.021  0.00  0.00     0.028 C 
BRANCH   6   7
HETATM    7  C   UNK N   1      21.522  13.642   9.860  0.00  0.00     0.164 C 
BRANCH   7   8
HETATM    8  O   UNK N   1      20.413  12.899  10.278  0.00  0.00    -0.401 OA
HETATM    9  H   UNK N   1      20.141  12.916  11.209  0.00  0.00     0.209 HD
ENDBRANCH   7   8
ENDBRANCH   6   7
ENDBRANCH   5   6
ENDBRANCH   1   5
BRANCH   1  10
HETATM   10  C   UNK N   1      23.155  11.885  12.495  0.00  0.00     0.163 C 
HETATM   11  O   UNK N   1      23.819  12.102  13.495  0.00  0.00    -0.648 OA
BRANCH  10  12
HETATM   12  O   UNK N   1      21.872  11.496  12.625  0.00  0.00    -0.775 OA
HETATM   13  H   UNK N   1      21.505  10.880  12.022  0.00  0.00     0.167 HD
ENDBRANCH  10  12
ENDBRANCH   1  10
TORSDOF 7
ENDMDL
MODEL 3
REMARK VINA RESULT:      -4.0      2.244      3.753
REMARK  7 active torsions:
REMARK  status: ('A' for Active; 'I' for Inactive)
REMARK    1  A    between atoms: C_2  and  N_1 
REMARK    2  A    between atoms: C_2  and  C_3 
REMARK    3  A    between atoms: C_2  and  C_7 
REMARK    4  A    between atoms: C_3  and  C_4 
REMARK    5  A    between atoms: C_4  and  C_5 
REMARK    6  A    between atoms: C_5  and  O_6 
REMARK    7  A    between atoms: C_7  and  O_8 
ROOT
HETATM    1  C   UNK N   1      33.673  17.245   8.856  0.00  0.00     0.173 C 
ENDROOT
BRANCH   1   2
HETATM    2  N   UNK N   1      32.251  17.527   8.935  0.00  0.00    -0.418 N 
HETATM    3  H   UNK N   1      31.607  17.091   8.276  0.00  0.00     0.150 HD
HETATM    4  H   UNK N   1      31.896  18.161   9.652  0.00  0.00     0.150 HD
ENDBRANCH   1   2
BRANCH   1   5
HETATM    5  C   UNK N   1      34.148  16.034   9.655  0.00  0.00     0.037 C 
BRANCH   5   6
HETATM    6  C   UNK N   1      35.393  15.362   9.095  0.00  0.00     0.028 C 
BRANCH   6   7
HETATM    7  C   UNK N   1      36.440  15.035  10.160  0.00  0.00     0.164 C 
BRANCH   7   8
HETATM    8  O   UNK N   1      36.882  16.170  10.847  0.00  0.00    -0.401 OA
HETATM    9  H   UNK N   1      36.432  16.450  11.660  0.00  0.00     0.209 HD
ENDBRANCH   7   8
ENDBRANCH   6   7
ENDBRANCH   5   6
ENDBRANCH   1   5
BRANCH   1  10
HETATM   10  C   UNK N   1      34.499  18.171   8.004  0.00  0.00     0.163 C 
HETATM   11  O   UNK N   1      35.179  19.050   8.507  0.00  0.00    -0.648 OA
BRANCH  10  12
HETATM   12  O   UNK N   1      34.489  18.028   6.664  0.00  0.00    -0.775 OA
HETATM   13  H   UNK N   1      34.187  18.728   6.120  0.00  0.00     0.167 HD
ENDBRANCH  10  12
ENDBRANCH   1  10
TORSDOF 7
ENDMDL
MODEL 4
REMARK VINA RESULT:      -3.9      3.002      3.964
REMARK  7 active torsions:
REMARK  status: ('A' for Active; 'I' for Inactive)
REMARK    1  A    between atoms: C_2  and  N_1 
REMARK    2  A    between atoms: C_2  and  C_3 
REMARK    3  A    between atoms: C_2  and  C_7 
REMARK    4  A    between atoms: C_3  and  C_4 
REMARK    5  A    between atoms: C_4  and  C_5 
REMARK    6  A    between atoms: C_5  and  O_6 
REMARK    7  A    between atoms: C_7  and  O_8 
ROOT
HETATM    1  C   UNK N   1      34.206  17.228   9.144  0.00  0.00     0.173 C 
ENDROOT
BRANCH   1   2
HETATM    2  N   UNK N   1      32.797  16.885   9.086  0.00  0.00    -0.418 N 
HETATM    3  H   UNK N   1      32.513  15.930   8.868  0.00  0.00     0.150 HD
HETATM    4  H   UNK N   1      32.091  17.600   9.262  0.00  0.00     0.150 HD
ENDBRANCH   1   2
BRANCH   1   5
HETATM    5  C   UNK N   1      35.021  16.478  10.195  0.00  0.00     0.037 C 
BRANCH   5   6
HETATM    6  C   UNK N   1      34.353  15.218  10.725  0.00  0.00     0.028 C 
BRANCH   6   7
HETATM    7  C   UNK N   1      35.155  14.520  11.824  0.00  0.00     0.164 C 
BRANCH   7   8
HETATM    8  O   UNK N   1      34.414  13.539  12.492  0.00  0.00    -0.401 OA
HETATM    9  H   UNK N   1      33.867  13.782  13.255  0.00  0.00     0.209 HD
ENDBRANCH   7   8
ENDBRANCH   6   7
ENDBRANCH   5   6
ENDBRANCH   1   5
BRANCH   1  10
HETATM   10  C   UNK N   1      34.690  18.271   8.172  0.00  0.00     0.163 C 
HETATM   11  O   UNK N   1      35.289  19.261   8.558  0.00  0.00    -0.648 OA
BRANCH  10  12
HETATM   12  O   UNK N   1      34.457  18.110   6.855  0.00  0.00    -0.775 OA
HETATM   13  H   UNK N   1      34.668  18.798   6.254  0.00  0.00     0.167 HD
ENDBRANCH  10  12
ENDBRANCH   1  10
TORSDOF 7
ENDMDL
MODEL 5
REMARK VINA RESULT:      -3.9     13.071     14.114
REMARK  7 active torsions:
REMARK  status: ('A' for Active; 'I' for Inactive)
REMARK    1  A    between atoms: C_2  and  N_1 
REMARK    2  A    between atoms: C_2  and  C_3 
REMARK    3  A    between atoms: C_2  and  C_7 
REMARK    4  A    between atoms: C_3  and  C_4 
REMARK    5  A    between atoms: C_4  and  C_5 
REMARK    6  A    between atoms: C_5  and  O_6 
REMARK    7  A    between atoms: C_7  and  O_8 
ROOT
HETATM    1  C   UNK N   1      20.777  19.944   2.001  0.00  0.00     0.173 C 
ENDROOT
BRANCH   1   2
HETATM    2  N   UNK N   1      20.540  20.472   0.670  0.00  0.00    -0.418 N 
HETATM    3  H   UNK N   1      20.669  21.466   0.485  0.00  0.00     0.150 HD
HETATM    4  H   UNK N   1      20.243  19.847  -0.081  0.00  0.00     0.150 HD
ENDBRANCH   1   2
BRANCH   1   5
HETATM    5  C   UNK N   1      19.854  18.806   2.431  0.00  0.00     0.037 C 
BRANCH   5   6
HETATM    6  C   UNK N   1      20.418  17.415   2.186  0.00  0.00     0.028 C 
BRANCH   6   7
HETATM    7  C   UNK N   1      19.926  16.779   0.885  0.00  0.00     0.164 C 
BRANCH   7   8
HETATM    8  O   UNK N   1      20.278  17.524  -0.245  0.00  0.00    -0.401 OA
HETATM    9  H   UNK N   1      20.003  17.226  -1.126  0.00  0.00     0.209 HD
ENDBRANCH   7   8
ENDBRANCH   6   7
ENDBRANCH   5   6
ENDBRANCH   1   5
BRANCH   1  10
HETATM   10  C   UNK N   1      21.894  20.575   2.790  0.00  0.00     0.163 C 
HETATM   11  O   UNK N   1      22.641  19.898   3.475  0.00  0.00    -0.648 OA
BRANCH  10  12
HETATM   12  O   UNK N   1      22.072  21.910   2.738  0.00  0.00    -0.775 OA
HETATM   13  H   UNK N   1      22.924  22.275   2.875  0.00  0.00     0.167 HD
ENDBRANCH  10  12
ENDBRANCH   1  10
TORSDOF 7
ENDMDL
MODEL 6
REMARK VINA RESULT:      -3.9      2.070      2.671
REMARK  7 active torsions:
REMARK  status: ('A' for Active; 'I' for Inactive)
REMARK    1  A    between atoms: C_2  and  N_1 
REMARK    2  A    between atoms: C_2  and  C_3 
REMARK    3  A    between atoms: C_2  and  C_7 
REMARK    4  A    between atoms: C_3  and  C_4 
REMARK    5  A    between atoms: C_4  and  C_5 
REMARK    6  A    between atoms: C_5  and  O_6 
REMARK    7  A    between atoms: C_7  and  O_8 
ROOT
HETATM    1  C   UNK N   1      34.717  16.915   9.004  0.00  0.00     0.173 C 
ENDROOT
BRANCH   1   2
HETATM    2  N   UNK N   1      34.894  17.205  10.415  0.00  0.00    -0.418 N 
HETATM    3  H   UNK N   1      34.080  17.368  11.008  0.00  0.00     0.150 HD
HETATM    4  H   UNK N   1      35.832  17.246  10.813  0.00  0.00     0.150 HD
ENDBRANCH   1   2
BRANCH   1   5
HETATM    5  C   UNK N   1      34.582  15.436   8.649  0.00  0.00     0.037 C 
BRANCH   5   6
HETATM    6  C   UNK N   1      33.156  14.987   8.367  0.00  0.00     0.028 C 
BRANCH   6   7
HETATM    7  C   UNK N   1      32.189  15.268   9.518  0.00  0.00     0.164 C 
BRANCH   7   8
HETATM    8  O   UNK N   1      32.725  14.933  10.765  0.00  0.00    -0.401 OA
HETATM    9  H   UNK N   1      32.434  14.124  11.216  0.00  0.00     0.209 HD
ENDBRANCH   7   8
ENDBRANCH   6   7
ENDBRANCH   5   6
ENDBRANCH   1   5
BRANCH   1  10
HETATM   10  C   UNK N   1      34.689  18.095   8.069  0.00  0.00     0.163 C 
HETATM   11  O   UNK N   1      34.310  17.976   6.916  0.00  0.00    -0.648 OA
BRANCH  10  12
HETATM   12  O   UNK N   1      35.088  19.303   8.512  0.00  0.00    -0.775 OA
HETATM   13  H   UNK N   1      35.105  20.035   7.927  0.00  0.00     0.167 HD
ENDBRANCH  10  12
ENDBRANCH   1  10
TORSDOF 7
ENDMDL
MODEL 7
REMARK VINA RESULT:      -3.9     14.328     14.933
REMARK  7 active torsions:
REMARK  status: ('A' for Active; 'I' for Inactive)
REMARK    1  A    between atoms: C_2  and  N_1 
REMARK    2  A    between atoms: C_2  and  C_3 
REMARK    3  A    between atoms: C_2  and  C_7 
REMARK    4  A    between atoms: C_3  and  C_4 
REMARK    5  A    between atoms: C_4  and  C_5 
REMARK    6  A    between atoms: C_5  and  O_6 
REMARK    7  A    between atoms: C_7  and  O_8 
ROOT
HETATM    1  C   UNK N   1      20.248  17.548   2.123  0.00  0.00     0.173 C 
ENDROOT
BRANCH   1   2
HETATM    2  N   UNK N   1      20.878  16.643   3.066  0.00  0.00    -0.418 N 
HETATM    3  H   UNK N   1      21.271  17.004   3.935  0.00  0.00     0.150 HD
HETATM    4  H   UNK N   1      20.927  15.645   2.860  0.00  0.00     0.150 HD
ENDBRANCH   1   2
BRANCH   1   5
HETATM    5  C   UNK N   1      20.013  18.968   2.631  0.00  0.00     0.037 C 
BRANCH   5   6
HETATM    6  C   UNK N   1      21.091  19.965   2.229  0.00  0.00     0.028 C 
BRANCH   6   7
HETATM    7  C   UNK N   1      20.628  20.970   1.174  0.00  0.00     0.164 C 
BRANCH   7   8
HETATM    8  O   UNK N   1      20.628  20.432  -0.117  0.00  0.00    -0.401 OA
HETATM    9  H   UNK N   1      19.880  20.600  -0.712  0.00  0.00     0.209 HD
ENDBRANCH   7   8
ENDBRANCH   6   7
ENDBRANCH   5   6
ENDBRANCH   1   5
BRANCH   1  10
HETATM   10  C   UNK N   1      19.906  16.984   0.769  0.00  0.00     0.163 C 
HETATM   11  O   UNK N   1      20.380  17.459  -0.249  0.00  0.00    -0.648 OA
BRANCH  10  12
HETATM   12  O   UNK N   1      19.061  15.938   0.680  0.00  0.00    -0.775 OA
HETATM   13  H   UNK N   1      18.659  15.593   1.452  0.00  0.00     0.167 HD
ENDBRANCH  10  12
ENDBRANCH   1  10
TORSDOF 7
ENDMDL
MODEL 8
REMARK VINA RESULT:      -3.8     11.882     13.802
REMARK  7 active torsions:
REMARK  status: ('A' for Active; 'I' for Inactive)
REMARK    1  A    between atoms: C_2  and  N_1 
REMARK    2  A    between atoms: C_2  and  C_3 
REMARK    3  A    between atoms: C_2  and  C_7 
REMARK    4  A    between atoms: C_3  and  C_4 
REMARK    5  A    between atoms: C_4  and  C_5 
REMARK    6  A    between atoms: C_5  and  O_6 
REMARK    7  A    between atoms: C_7  and  O_8 
ROOT
HETATM    1  C   UNK N   1      20.286  19.069   2.230  0.00  0.00     0.173 C 
ENDROOT
BRANCH   1   2
HETATM    2  N   UNK N   1      18.859  18.828   2.342  0.00  0.00    -0.418 N 
HETATM    3  H   UNK N   1      18.368  18.323   1.605  0.00  0.00     0.150 HD
HETATM    4  H   UNK N   1      18.348  19.165   3.159  0.00  0.00     0.150 HD
ENDBRANCH   1   2
BRANCH   1   5
HETATM    5  C   UNK N   1      21.176  18.141   3.053  0.00  0.00     0.037 C 
BRANCH   5   6
HETATM    6  C   UNK N   1      21.950  18.835   4.163  0.00  0.00     0.028 C 
BRANCH   6   7
HETATM    7  C   UNK N   1      23.386  19.191   3.775  0.00  0.00     0.164 C 
BRANCH   7   8
HETATM    8  O   UNK N   1      23.512  20.512   3.333  0.00  0.00    -0.401 OA
HETATM    9  H   UNK N   1      24.366  20.832   3.002  0.00  0.00     0.209 HD
ENDBRANCH   7   8
ENDBRANCH   6   7
ENDBRANCH   5   6
ENDBRANCH   1   5
BRANCH   1  10
HETATM   10  C   UNK N   1      20.713  20.195   1.325  0.00  0.00     0.163 C 
HETATM   11  O   UNK N   1      21.126  21.248   1.782  0.00  0.00    -0.648 OA
BRANCH  10  12
HETATM   12  O   UNK N   1      20.639  20.038  -0.011  0.00  0.00    -0.775 OA
HETATM   13  H   UNK N   1      20.402  19.207  -0.372  0.00  0.00     0.167 HD
ENDBRANCH  10  12
ENDBRANCH   1  10
TORSDOF 7
ENDMDL
MODEL 9
REMARK VINA RESULT:      -3.8      2.105      2.993
REMARK  7 active torsions:
REMARK  status: ('A' for Active; 'I' for Inactive)
REMARK    1  A    between atoms: C_2  and  N_1 
REMARK    2  A    between atoms: C_2  and  C_3 
REMARK    3  A    between atoms: C_2  and  C_7 
REMARK    4  A    between atoms: C_3  and  C_4 
REMARK    5  A    between atoms: C_4  and  C_5 
REMARK    6  A    between atoms: C_5  and  O_6 
REMARK    7  A    between atoms: C_7  and  O_8 
ROOT
HETATM    1  C   UNK N   1      34.639  17.014   9.028  0.00  0.00     0.173 C 
ENDROOT
BRANCH   1   2
HETATM    2  N   UNK N   1      34.906  17.192  10.444  0.00  0.00    -0.418 N 
HETATM    3  H   UNK N   1      34.329  16.714  11.136  0.00  0.00     0.150 HD
HETATM    4  H   UNK N   1      35.670  17.797  10.746  0.00  0.00     0.150 HD
ENDBRANCH   1   2
BRANCH   1   5
HETATM    5  C   UNK N   1      34.260  15.597   8.604  0.00  0.00     0.037 C 
BRANCH   5   6
HETATM    6  C   UNK N   1      35.431  14.752   8.124  0.00  0.00     0.028 C 
BRANCH   6   7
HETATM    7  C   UNK N   1      35.429  14.511   6.614  0.00  0.00     0.164 C 
BRANCH   7   8
HETATM    8  O   UNK N   1      35.407  15.700   5.879  0.00  0.00    -0.401 OA
HETATM    9  H   UNK N   1      34.701  16.348   6.026  0.00  0.00     0.209 HD
ENDBRANCH   7   8
ENDBRANCH   6   7
ENDBRANCH   5   6
ENDBRANCH   1   5
BRANCH   1  10
HETATM   10  C   UNK N   1      34.766  18.236   8.157  0.00  0.00     0.163 C 
HETATM   11  O   UNK N   1      34.347  18.238   7.012  0.00  0.00    -0.648 OA
BRANCH  10  12
HETATM   12  O   UNK N   1      35.352  19.345   8.649  0.00  0.00    -0.775 OA
HETATM   13  H   UNK N   1      35.783  19.317   9.481  0.00  0.00     0.167 HD
ENDBRANCH  10  12
ENDBRANCH   1  10
TORSDOF 7
ENDMDL
