REMARK  6 active torsions:
REMARK  status: ('A' for Active; 'I' for Inactive)
REMARK    1  A    between atoms: C_2  and  C_4 
REMARK    2  A    between atoms: C_4  and  S_5 
REMARK    3  A    between atoms: S_5  and  C_6 
REMARK    4  A    between atoms: C_6  and  C_7 
REMARK    5  A    between atoms: C_7  and  S_8 
REMARK    6  A    between atoms: S_8  and  O_9 
ROOT
HETATM    1  C   UNK N   1       3.665  -1.837   0.347  0.00  0.00     0.091 C 
ENDROOT
BRANCH   1   2
HETATM    2  S   UNK N   1       2.808  -0.475  -0.499  0.00  0.00    -0.161 SA
BRANCH   2   3
HETATM    3  C   UNK N   1       1.384  -0.584   0.623  0.00  0.00     0.151 C 
BRANCH   3   4
HETATM    4  C   UNK N   1       0.372  -1.546   0.090  0.00  0.00     0.132 C 
HETATM    5  C   UNK N   1      -1.018  -1.084  -0.181  0.00  0.00     0.091 C 
HETATM    6  O   UNK N   1       0.671  -2.711  -0.099  0.00  0.00    -0.298 OA
ENDBRANCH   3   4
ENDBRANCH   2   3
ENDBRANCH   1   2
BRANCH   1   7
HETATM    7  C   UNK N   1       5.005  -2.095  -0.323  0.00  0.00     0.165 C 
BRANCH   7   8
HETATM    8  S   UNK N   1       6.351  -1.282   0.597  0.00  0.00     0.094 S 
HETATM    9  O   UNK N   1       6.949  -2.456  -0.193  0.00  0.00    -0.601 OA
HETATM   10  O   UNK N   1       5.947  -0.358  -0.562  0.00  0.00    -0.601 OA
BRANCH   8  11
HETATM   11  O   UNK N   1       7.850  -0.630   0.075  0.00  0.00    -0.296 OA
HETATM   12  H   UNK N   1       8.593  -1.179  -0.220  0.00  0.00     0.232 HD
ENDBRANCH   8  11
ENDBRANCH   7   8
ENDBRANCH   1   7
TORSDOF 6
