REMARK  16 active torsions:
REMARK  status: ('A' for Active; 'I' for Inactive)
REMARK    1  A    between atoms: C_2  and  C_1 
REMARK    2  A    between atoms: C_3  and  C_1 
REMARK    3  A    between atoms: C_4  and  C_2 
REMARK    4  A    between atoms: C_10  and  C_3 
REMARK    5  A    between atoms: C_11  and  C_4 
REMARK    6  A    between atoms: C_7  and  C_5 
REMARK    7  A    between atoms: C_10  and  C_5 
REMARK    8  A    between atoms: C_8  and  C_6 
REMARK    9  A    between atoms: O_13  and  C_6 
REMARK   10  A    between atoms: S_16  and  C_7 
REMARK   11  A    between atoms: S_17  and  C_8 
REMARK   12  A    between atoms: N_12  and  C_9 
REMARK   13  A    between atoms: S_16  and  C_9 
REMARK   14  A    between atoms: C_10  and  S_18 
REMARK   15  A    between atoms: O_15  and  C_11 
REMARK   16  A    between atoms: S_18  and  S_17 
ROOT
HETATM    1  C   UNK N   1      -0.530   1.181  -0.509  0.00  0.00     0.059 C 
ENDROOT
BRANCH   1   2
HETATM    2  C   UNK N   1      -1.319   0.958   0.788  0.00  0.00     0.016 C 
BRANCH   2   3
HETATM    3  C   UNK N   1      -2.143  -0.327   0.770  0.00  0.00     0.002 C 
BRANCH   3   4
HETATM    4  C   UNK N   1      -3.243  -0.260  -0.274  0.00  0.00     0.010 C 
BRANCH   4   5
HETATM    5  C   UNK N   1      -4.018  -1.565  -0.280  0.00  0.00     0.110 C 
BRANCH   5   6
HETATM    6  C   UNK N   1      -5.471  -1.354   0.021  0.00  0.00     0.139 C 
HETATM    7  O   UNK N   1      -6.219  -2.317   0.065  0.00  0.00    -0.650 OA
BRANCH   6   8
HETATM    8  O   UNK N   1      -5.961  -0.119   0.246  0.00  0.00    -0.776 OA
HETATM    9  H   UNK N   1      -5.388   0.606   0.402  0.00  0.00     0.167 HD
ENDBRANCH   6   8
ENDBRANCH   5   6
ENDBRANCH   4   5
ENDBRANCH   3   4
ENDBRANCH   2   3
ENDBRANCH   1   2
BRANCH   1  10
HETATM   10  C   UNK N   1       0.189   2.530  -0.527  0.00  0.00     0.026 C 
BRANCH  10  11
HETATM   11  C   UNK N   1       1.225   2.698   0.573  0.00  0.00     0.076 C 
BRANCH  11  12
HETATM   12  S   UNK N   1       2.177   4.212   0.269  0.00  0.00    -0.150 SA
BRANCH  12  13
HETATM   13  C   UNK N   1       3.527   3.309  -0.543  0.00  0.00     0.185 C 
BRANCH  13  14
HETATM   14  N   UNK N   1       4.714   3.358   0.291  0.00  0.00    -0.422 N 
HETATM   15  H   UNK N   1       5.161   2.653   0.877  0.00  0.00     0.150 HD
HETATM   16  H   UNK N   1       5.187   4.261   0.291  0.00  0.00     0.150 HD
ENDBRANCH  13  14
ENDBRANCH  12  13
ENDBRANCH  11  12
ENDBRANCH  10  11
ENDBRANCH   1  10
BRANCH   1  17
HETATM   17  S   UNK N   1       0.600  -0.203  -0.947  0.00  0.00    -0.093 SA
BRANCH  17  18
HETATM   18  S   UNK N   1       1.541  -0.431   0.959  0.00  0.00    -0.095 SA
BRANCH  18  19
HETATM   19  C   UNK N   1       2.245  -2.041   0.508  0.00  0.00     0.112 C 
BRANCH  19  20
HETATM   20  C   UNK N   1       3.642  -1.840  -0.042  0.00  0.00     0.175 C 
BRANCH  20  21
HETATM   21  O   UNK N   1       4.237  -3.079  -0.272  0.00  0.00    -0.400 OA
HETATM   22  H   UNK N   1       3.696  -3.869  -0.432  0.00  0.00     0.209 HD
ENDBRANCH  20  21
ENDBRANCH  19  20
ENDBRANCH  18  19
ENDBRANCH  17  18
ENDBRANCH   1  17
TORSDOF 16
