MODEL 1
REMARK VINA RESULT:      -4.4      0.000      0.000
REMARK  5 active torsions:
REMARK  status: ('A' for Active; 'I' for Inactive)
REMARK    1  A    between atoms: C_2  and  C_4 
REMARK    2  A    between atoms: C_4  and  C_5 
REMARK    3  A    between atoms: C_5  and  N_6 
REMARK    4  A    between atoms: C_5  and  C_7 
REMARK       I    between atoms: C_7  and  N_9 
REMARK    5  A    between atoms: N_9  and  O_10 
ROOT
HETATM    1  C   UNK N   1      33.509  16.726   8.745  0.00  0.00     0.169 C 
ENDROOT
BRANCH   1   2
HETATM    2  C   UNK N   1      33.821  17.843   7.746  0.00  0.00     0.038 C 
BRANCH   2   3
HETATM    3  C   UNK N   1      33.986  17.318   6.324  0.00  0.00    -0.020 C 
HETATM    4  C   UNK N   1      32.647  17.364   5.618  0.00  0.00     0.009 C 
HETATM    5  C   UNK N   1      34.493  15.888   6.318  0.00  0.00     0.009 C 
ENDBRANCH   2   3
ENDBRANCH   1   2
BRANCH   1   6
HETATM    6  N   UNK N   1      32.125  16.836   9.179  0.00  0.00    -0.418 N 
HETATM    7  H   UNK N   1      31.795  17.556   9.822  0.00  0.00     0.150 HD
HETATM    8  H   UNK N   1      31.450  16.158   8.824  0.00  0.00     0.150 HD
ENDBRANCH   1   6
BRANCH   1   9
HETATM    9  C   UNK N   1      34.488  16.744   9.910  0.00  0.00     0.263 C 
HETATM   10  O   UNK N   1      35.441  17.507   9.865  0.00  0.00    -0.269 OA
HETATM   11  N   UNK N   1      34.388  15.898  10.969  0.00  0.00    -0.236 N 
HETATM   12  H   UNK N   1      35.054  15.964  11.690  0.00  0.00     0.197 HD
BRANCH  11  13
HETATM   13  O   UNK N   1      33.420  14.977  11.069  0.00  0.00    -0.287 OA
HETATM   14  H   UNK N   1      32.635  15.030  10.501  0.00  0.00     0.244 HD
ENDBRANCH  11  13
ENDBRANCH   1   9
TORSDOF 5
ENDMDL
MODEL 2
REMARK VINA RESULT:      -4.2     12.389     13.293
REMARK  5 active torsions:
REMARK  status: ('A' for Active; 'I' for Inactive)
REMARK    1  A    between atoms: C_2  and  C_4 
REMARK    2  A    between atoms: C_4  and  C_5 
REMARK    3  A    between atoms: C_5  and  N_6 
REMARK    4  A    between atoms: C_5  and  C_7 
REMARK       I    between atoms: C_7  and  N_9 
REMARK    5  A    between atoms: N_9  and  O_10 
ROOT
HETATM    1  C   UNK N   1      44.630  22.101   3.217  0.00  0.00     0.169 C 
ENDROOT
BRANCH   1   2
HETATM    2  C   UNK N   1      43.522  21.165   3.706  0.00  0.00     0.038 C 
BRANCH   2   3
HETATM    3  C   UNK N   1      43.274  20.009   2.743  0.00  0.00    -0.020 C 
HETATM    4  C   UNK N   1      41.857  19.507   2.923  0.00  0.00     0.009 C 
HETATM    5  C   UNK N   1      44.234  18.863   2.996  0.00  0.00     0.009 C 
ENDBRANCH   2   3
ENDBRANCH   1   2
BRANCH   1   6
HETATM    6  N   UNK N   1      45.681  22.176   4.220  0.00  0.00    -0.418 N 
HETATM    7  H   UNK N   1      46.199  21.361   4.549  0.00  0.00     0.150 HD
HETATM    8  H   UNK N   1      45.910  23.088   4.615  0.00  0.00     0.150 HD
ENDBRANCH   1   6
BRANCH   1   9
HETATM    9  C   UNK N   1      44.071  23.469   2.855  0.00  0.00     0.263 C 
HETATM   10  O   UNK N   1      42.867  23.585   2.683  0.00  0.00    -0.269 OA
HETATM   11  N   UNK N   1      44.861  24.555   2.646  0.00  0.00    -0.236 N 
HETATM   12  H   UNK N   1      44.434  25.412   2.418  0.00  0.00     0.197 HD
BRANCH  11  13
HETATM   13  O   UNK N   1      46.196  24.506   2.739  0.00  0.00    -0.287 OA
HETATM   14  H   UNK N   1      46.640  23.671   2.953  0.00  0.00     0.244 HD
ENDBRANCH  11  13
ENDBRANCH   1   9
TORSDOF 5
ENDMDL
MODEL 3
REMARK VINA RESULT:      -4.1      4.874      7.265
REMARK  5 active torsions:
REMARK  status: ('A' for Active; 'I' for Inactive)
REMARK    1  A    between atoms: C_2  and  C_4 
REMARK    2  A    between atoms: C_4  and  C_5 
REMARK    3  A    between atoms: C_5  and  N_6 
REMARK    4  A    between atoms: C_5  and  C_7 
REMARK       I    between atoms: C_7  and  N_9 
REMARK    5  A    between atoms: N_9  and  O_10 
ROOT
HETATM    1  C   UNK N   1      36.249  14.095  12.907  0.00  0.00     0.169 C 
ENDROOT
BRANCH   1   2
HETATM    2  C   UNK N   1      35.490  13.004  13.666  0.00  0.00     0.038 C 
BRANCH   2   3
HETATM    3  C   UNK N   1      35.887  12.937  15.136  0.00  0.00    -0.020 C 
HETATM    4  C   UNK N   1      36.650  11.653  15.388  0.00  0.00     0.009 C 
HETATM    5  C   UNK N   1      34.670  12.968  16.040  0.00  0.00     0.009 C 
ENDBRANCH   2   3
ENDBRANCH   1   2
BRANCH   1   6
HETATM    6  N   UNK N   1      36.809  15.046  13.855  0.00  0.00    -0.418 N 
HETATM    7  H   UNK N   1      36.751  14.928  14.866  0.00  0.00     0.150 HD
HETATM    8  H   UNK N   1      37.282  15.872  13.490  0.00  0.00     0.150 HD
ENDBRANCH   1   6
BRANCH   1   9
HETATM    9  C   UNK N   1      35.359  14.761  11.869  0.00  0.00     0.263 C 
HETATM   10  O   UNK N   1      34.180  14.445  11.815  0.00  0.00    -0.269 OA
HETATM   11  N   UNK N   1      35.833  15.645  10.951  0.00  0.00    -0.236 N 
HETATM   12  H   UNK N   1      35.201  16.042  10.309  0.00  0.00     0.197 HD
BRANCH  11  13
HETATM   13  O   UNK N   1      37.124  15.996  10.885  0.00  0.00    -0.287 OA
HETATM   14  H   UNK N   1      37.690  15.924  11.670  0.00  0.00     0.244 HD
ENDBRANCH  11  13
ENDBRANCH   1   9
TORSDOF 5
ENDMDL
MODEL 4
REMARK VINA RESULT:      -4.1      2.080      2.813
REMARK  5 active torsions:
REMARK  status: ('A' for Active; 'I' for Inactive)
REMARK    1  A    between atoms: C_2  and  C_4 
REMARK    2  A    between atoms: C_4  and  C_5 
REMARK    3  A    between atoms: C_5  and  N_6 
REMARK    4  A    between atoms: C_5  and  C_7 
REMARK       I    between atoms: C_7  and  N_9 
REMARK    5  A    between atoms: N_9  and  O_10 
ROOT
HETATM    1  C   UNK N   1      32.728  17.023   8.000  0.00  0.00     0.169 C 
ENDROOT
BRANCH   1   2
HETATM    2  C   UNK N   1      32.094  17.139   6.612  0.00  0.00     0.038 C 
BRANCH   2   3
HETATM    3  C   UNK N   1      30.688  16.551   6.567  0.00  0.00    -0.020 C 
HETATM    4  C   UNK N   1      30.751  15.153   5.989  0.00  0.00     0.009 C 
HETATM    5  C   UNK N   1      29.764  17.394   5.709  0.00  0.00     0.009 C 
ENDBRANCH   2   3
ENDBRANCH   1   2
BRANCH   1   6
HETATM    6  N   UNK N   1      31.805  17.538   9.001  0.00  0.00    -0.418 N 
HETATM    7  H   UNK N   1      31.114  16.957   9.475  0.00  0.00     0.150 HD
HETATM    8  H   UNK N   1      31.852  18.528   9.239  0.00  0.00     0.150 HD
ENDBRANCH   1   6
BRANCH   1   9
HETATM    9  C   UNK N   1      34.081  17.716   8.044  0.00  0.00     0.263 C 
HETATM   10  O   UNK N   1      34.509  18.235   7.024  0.00  0.00    -0.269 OA
HETATM   11  N   UNK N   1      34.869  17.724   9.152  0.00  0.00    -0.236 N 
HETATM   12  H   UNK N   1      35.733  18.194   9.113  0.00  0.00     0.197 HD
BRANCH  11  13
HETATM   13  O   UNK N   1      34.516  17.118  10.293  0.00  0.00    -0.287 OA
HETATM   14  H   UNK N   1      34.039  17.610  10.980  0.00  0.00     0.244 HD
ENDBRANCH  11  13
ENDBRANCH   1   9
TORSDOF 5
ENDMDL
MODEL 5
REMARK VINA RESULT:      -4.0     11.486     12.364
REMARK  5 active torsions:
REMARK  status: ('A' for Active; 'I' for Inactive)
REMARK    1  A    between atoms: C_2  and  C_4 
REMARK    2  A    between atoms: C_4  and  C_5 
REMARK    3  A    between atoms: C_5  and  N_6 
REMARK    4  A    between atoms: C_5  and  C_7 
REMARK       I    between atoms: C_7  and  N_9 
REMARK    5  A    between atoms: N_9  and  O_10 
ROOT
HETATM    1  C   UNK N   1      23.015  12.551   9.680  0.00  0.00     0.169 C 
ENDROOT
BRANCH   1   2
HETATM    2  C   UNK N   1      21.675  12.545   8.942  0.00  0.00     0.038 C 
BRANCH   2   3
HETATM    3  C   UNK N   1      21.277  13.932   8.451  0.00  0.00    -0.020 C 
HETATM    4  C   UNK N   1      20.252  14.521   9.397  0.00  0.00     0.009 C 
HETATM    5  C   UNK N   1      20.680  13.875   7.058  0.00  0.00     0.009 C 
ENDBRANCH   2   3
ENDBRANCH   1   2
BRANCH   1   6
HETATM    6  N   UNK N   1      23.930  11.623   9.034  0.00  0.00    -0.418 N 
HETATM    7  H   UNK N   1      24.581  11.029   9.548  0.00  0.00     0.150 HD
HETATM    8  H   UNK N   1      23.921  11.564   8.015  0.00  0.00     0.150 HD
ENDBRANCH   1   6
BRANCH   1   9
HETATM    9  C   UNK N   1      22.828  12.250  11.160  0.00  0.00     0.263 C 
HETATM   10  O   UNK N   1      21.695  12.092  11.588  0.00  0.00    -0.269 OA
HETATM   11  N   UNK N   1      23.862  12.216  12.041  0.00  0.00    -0.236 N 
HETATM   12  H   UNK N   1      23.671  12.012  12.985  0.00  0.00     0.197 HD
BRANCH  11  13
HETATM   13  O   UNK N   1      25.130  12.450  11.677  0.00  0.00    -0.287 OA
HETATM   14  H   UNK N   1      25.540  13.310  11.862  0.00  0.00     0.244 HD
ENDBRANCH  11  13
ENDBRANCH   1   9
TORSDOF 5
ENDMDL
MODEL 6
REMARK VINA RESULT:      -4.0      7.081      8.339
REMARK  5 active torsions:
REMARK  status: ('A' for Active; 'I' for Inactive)
REMARK    1  A    between atoms: C_2  and  C_4 
REMARK    2  A    between atoms: C_4  and  C_5 
REMARK    3  A    between atoms: C_5  and  N_6 
REMARK    4  A    between atoms: C_5  and  C_7 
REMARK       I    between atoms: C_7  and  N_9 
REMARK    5  A    between atoms: N_9  and  O_10 
ROOT
HETATM    1  C   UNK N   1      35.228  12.543  15.393  0.00  0.00     0.169 C 
ENDROOT
BRANCH   1   2
HETATM    2  C   UNK N   1      33.918  11.828  15.058  0.00  0.00     0.038 C 
BRANCH   2   3
HETATM    3  C   UNK N   1      34.142  10.388  14.611  0.00  0.00    -0.020 C 
HETATM    4  C   UNK N   1      35.501   9.924  15.090  0.00  0.00     0.009 C 
HETATM    5  C   UNK N   1      34.087  10.263  13.100  0.00  0.00     0.009 C 
ENDBRANCH   2   3
ENDBRANCH   1   2
BRANCH   1   6
HETATM    6  N   UNK N   1      35.120  13.169  16.702  0.00  0.00    -0.418 N 
HETATM    7  H   UNK N   1      35.896  13.225  17.361  0.00  0.00     0.150 HD
HETATM    8  H   UNK N   1      34.223  13.571  16.974  0.00  0.00     0.150 HD
ENDBRANCH   1   6
BRANCH   1   9
HETATM    9  C   UNK N   1      35.606  13.535  14.303  0.00  0.00     0.263 C 
HETATM   10  O   UNK N   1      34.886  13.629  13.320  0.00  0.00    -0.269 OA
HETATM   11  N   UNK N   1      36.747  14.273  14.340  0.00  0.00    -0.236 N 
HETATM   12  H   UNK N   1      36.929  14.898  13.603  0.00  0.00     0.197 HD
BRANCH  11  13
HETATM   13  O   UNK N   1      37.633  14.182  15.341  0.00  0.00    -0.287 OA
HETATM   14  H   UNK N   1      38.195  13.396  15.426  0.00  0.00     0.244 HD
ENDBRANCH  11  13
ENDBRANCH   1   9
TORSDOF 5
ENDMDL
MODEL 7
REMARK VINA RESULT:      -4.0      4.320      6.439
REMARK  5 active torsions:
REMARK  status: ('A' for Active; 'I' for Inactive)
REMARK    1  A    between atoms: C_2  and  C_4 
REMARK    2  A    between atoms: C_4  and  C_5 
REMARK    3  A    between atoms: C_5  and  N_6 
REMARK    4  A    between atoms: C_5  and  C_7 
REMARK       I    between atoms: C_7  and  N_9 
REMARK    5  A    between atoms: N_9  and  O_10 
ROOT
HETATM    1  C   UNK N   1      35.116  13.923  12.309  0.00  0.00     0.169 C 
ENDROOT
BRANCH   1   2
HETATM    2  C   UNK N   1      36.492  13.674  12.930  0.00  0.00     0.038 C 
BRANCH   2   3
HETATM    3  C   UNK N   1      36.402  13.286  14.401  0.00  0.00    -0.020 C 
HETATM    4  C   UNK N   1      36.921  14.427  15.250  0.00  0.00     0.009 C 
HETATM    5  C   UNK N   1      37.221  12.044  14.697  0.00  0.00     0.009 C 
ENDBRANCH   2   3
ENDBRANCH   1   2
BRANCH   1   6
HETATM    6  N   UNK N   1      34.683  12.731  11.595  0.00  0.00    -0.418 N 
HETATM    7  H   UNK N   1      35.268  12.241  10.918  0.00  0.00     0.150 HD
HETATM    8  H   UNK N   1      33.748  12.369  11.779  0.00  0.00     0.150 HD
ENDBRANCH   1   6
BRANCH   1   9
HETATM    9  C   UNK N   1      35.129  15.160  11.423  0.00  0.00     0.263 C 
HETATM   10  O   UNK N   1      36.173  15.783  11.301  0.00  0.00    -0.269 OA
HETATM   11  N   UNK N   1      34.014  15.644  10.817  0.00  0.00    -0.236 N 
HETATM   12  H   UNK N   1      34.093  16.448  10.254  0.00  0.00     0.197 HD
BRANCH  11  13
HETATM   13  O   UNK N   1      32.811  15.070  10.953  0.00  0.00    -0.287 OA
HETATM   14  H   UNK N   1      32.108  15.520  11.448  0.00  0.00     0.244 HD
ENDBRANCH  11  13
ENDBRANCH   1   9
TORSDOF 5
ENDMDL
MODEL 8
REMARK VINA RESULT:      -3.9      1.737      1.980
REMARK  5 active torsions:
REMARK  status: ('A' for Active; 'I' for Inactive)
REMARK    1  A    between atoms: C_2  and  C_4 
REMARK    2  A    between atoms: C_4  and  C_5 
REMARK    3  A    between atoms: C_5  and  N_6 
REMARK    4  A    between atoms: C_5  and  C_7 
REMARK       I    between atoms: C_7  and  N_9 
REMARK    5  A    between atoms: N_9  and  O_10 
ROOT
HETATM    1  C   UNK N   1      33.888  16.407   8.879  0.00  0.00     0.169 C 
ENDROOT
BRANCH   1   2
HETATM    2  C   UNK N   1      34.387  16.862   7.505  0.00  0.00     0.038 C 
BRANCH   2   3
HETATM    3  C   UNK N   1      33.346  17.686   6.755  0.00  0.00    -0.020 C 
HETATM    4  C   UNK N   1      31.967  17.343   7.279  0.00  0.00     0.009 C 
HETATM    5  C   UNK N   1      33.387  17.403   5.265  0.00  0.00     0.009 C 
ENDBRANCH   2   3
ENDBRANCH   1   2
BRANCH   1   6
HETATM    6  N   UNK N   1      34.543  17.188   9.917  0.00  0.00    -0.418 N 
HETATM    7  H   UNK N   1      34.041  17.810  10.550  0.00  0.00     0.150 HD
HETATM    8  H   UNK N   1      35.555  17.111  10.016  0.00  0.00     0.150 HD
ENDBRANCH   1   6
BRANCH   1   9
HETATM    9  C   UNK N   1      34.084  14.910   9.064  0.00  0.00     0.263 C 
HETATM   10  O   UNK N   1      34.519  14.254   8.130  0.00  0.00    -0.269 OA
HETATM   11  N   UNK N   1      33.732  14.257  10.203  0.00  0.00    -0.236 N 
HETATM   12  H   UNK N   1      33.889  13.287  10.258  0.00  0.00     0.197 HD
BRANCH  11  13
HETATM   13  O   UNK N   1      33.180  14.880  11.252  0.00  0.00    -0.287 OA
HETATM   14  H   UNK N   1      32.900  14.373  12.031  0.00  0.00     0.244 HD
ENDBRANCH  11  13
ENDBRANCH   1   9
TORSDOF 5
ENDMDL
MODEL 9
REMARK VINA RESULT:      -3.9      3.394      5.415
REMARK  5 active torsions:
REMARK  status: ('A' for Active; 'I' for Inactive)
REMARK    1  A    between atoms: C_2  and  C_4 
REMARK    2  A    between atoms: C_4  and  C_5 
REMARK    3  A    between atoms: C_5  and  N_6 
REMARK    4  A    between atoms: C_5  and  C_7 
REMARK       I    between atoms: C_7  and  N_9 
REMARK    5  A    between atoms: N_9  and  O_10 
ROOT
HETATM    1  C   UNK N   1      34.627  15.117  11.280  0.00  0.00     0.169 C 
ENDROOT
BRANCH   1   2
HETATM    2  C   UNK N   1      35.698  14.208  11.888  0.00  0.00     0.038 C 
BRANCH   2   3
HETATM    3  C   UNK N   1      35.311  13.706  13.274  0.00  0.00    -0.020 C 
HETATM    4  C   UNK N   1      36.468  13.926  14.225  0.00  0.00     0.009 C 
HETATM    5  C   UNK N   1      34.971  12.227  13.251  0.00  0.00     0.009 C 
ENDBRANCH   2   3
ENDBRANCH   1   2
BRANCH   1   6
HETATM    6  N   UNK N   1      33.761  14.334  10.412  0.00  0.00    -0.418 N 
HETATM    7  H   UNK N   1      32.831  14.018  10.687  0.00  0.00     0.150 HD
HETATM    8  H   UNK N   1      34.101  14.087   9.482  0.00  0.00     0.150 HD
ENDBRANCH   1   6
BRANCH   1   9
HETATM    9  C   UNK N   1      35.258  16.300  10.560  0.00  0.00     0.263 C 
HETATM   10  O   UNK N   1      36.438  16.545  10.755  0.00  0.00    -0.269 OA
HETATM   11  N   UNK N   1      34.547  17.140   9.761  0.00  0.00    -0.236 N 
HETATM   12  H   UNK N   1      35.018  17.885   9.323  0.00  0.00     0.197 HD
BRANCH  11  13
HETATM   13  O   UNK N   1      33.233  16.993   9.547  0.00  0.00    -0.287 OA
HETATM   14  H   UNK N   1      32.905  16.754   8.666  0.00  0.00     0.244 HD
ENDBRANCH  11  13
ENDBRANCH   1   9
TORSDOF 5
ENDMDL
