MODEL 1
REMARK VINA RESULT:      -4.5      0.000      0.000
REMARK  8 active torsions:
REMARK  status: ('A' for Active; 'I' for Inactive)
REMARK    1  A    between atoms: O_1  and  C_7 
REMARK    2  A    between atoms: C_2  and  C_9 
REMARK    3  A    between atoms: C_3  and  C_2 
REMARK    4  A    between atoms: C_4  and  C_3 
REMARK    5  A    between atoms: C_5  and  C_4 
REMARK    6  A    between atoms: N_6  and  C_5 
REMARK    7  A    between atoms: C_9  and  C_7 
REMARK    8  A    between atoms: C_9  and  N_10 
ROOT
HETATM    1  C   UNK N   1      33.146  17.791   8.581  0.00  0.00     0.173 C 
ENDROOT
BRANCH   1   2
HETATM    2  C   UNK N   1      34.376  18.283   7.867  0.00  0.00     0.163 C 
HETATM    3  O   UNK N   1      34.575  17.986   6.697  0.00  0.00    -0.648 OA
BRANCH   2   4
HETATM    4  O   UNK N   1      35.223  19.128   8.487  0.00  0.00    -0.775 OA
HETATM    5  H   UNK N   1      35.300  19.115   9.421  0.00  0.00     0.167 HD
ENDBRANCH   2   4
ENDBRANCH   1   2
BRANCH   1   6
HETATM    6  C   UNK N   1      32.037  17.371   7.616  0.00  0.00     0.035 C 
BRANCH   6   7
HETATM    7  C   UNK N   1      30.737  17.119   8.364  0.00  0.00     0.004 C 
BRANCH   7   8
HETATM    8  C   UNK N   1      30.206  18.412   8.950  0.00  0.00     0.019 C 
BRANCH   8   9
HETATM    9  C   UNK N   1      28.935  18.127   9.726  0.00  0.00     0.111 C 
BRANCH   9  10
HETATM   10  N   UNK N   1      27.787  18.587   8.966  0.00  0.00    -0.430 N 
HETATM   11  H   UNK N   1      27.664  18.291   7.998  0.00  0.00     0.149 HD
HETATM   12  H   UNK N   1      27.103  19.206   9.401  0.00  0.00     0.149 HD
ENDBRANCH   9  10
ENDBRANCH   8   9
ENDBRANCH   7   8
ENDBRANCH   6   7
ENDBRANCH   1   6
BRANCH   1  13
HETATM   13  N   UNK N   1      33.493  16.689   9.466  0.00  0.00    -0.418 N 
HETATM   14  H   UNK N   1      34.446  16.433   9.724  0.00  0.00     0.150 HD
HETATM   15  H   UNK N   1      32.731  16.134   9.856  0.00  0.00     0.150 HD
ENDBRANCH   1  13
TORSDOF 8
ENDMDL
MODEL 2
REMARK VINA RESULT:      -4.0     10.767     11.429
REMARK  8 active torsions:
REMARK  status: ('A' for Active; 'I' for Inactive)
REMARK    1  A    between atoms: O_1  and  C_7 
REMARK    2  A    between atoms: C_2  and  C_9 
REMARK    3  A    between atoms: C_3  and  C_2 
REMARK    4  A    between atoms: C_4  and  C_3 
REMARK    5  A    between atoms: C_5  and  C_4 
REMARK    6  A    between atoms: N_6  and  C_5 
REMARK    7  A    between atoms: C_9  and  C_7 
REMARK    8  A    between atoms: C_9  and  N_10 
ROOT
HETATM    1  C   UNK N   1      22.888  11.611  10.756  0.00  0.00     0.173 C 
ENDROOT
BRANCH   1   2
HETATM    2  C   UNK N   1      23.745  12.019  11.925  0.00  0.00     0.163 C 
HETATM    3  O   UNK N   1      23.308  11.957  13.066  0.00  0.00    -0.648 OA
BRANCH   2   4
HETATM    4  O   UNK N   1      25.030  12.371  11.729  0.00  0.00    -0.775 OA
HETATM    5  H   UNK N   1      25.250  13.263  11.547  0.00  0.00     0.167 HD
ENDBRANCH   2   4
ENDBRANCH   1   2
BRANCH   1   6
HETATM    6  C   UNK N   1      21.581  12.402  10.684  0.00  0.00     0.035 C 
BRANCH   6   7
HETATM    7  C   UNK N   1      21.751  13.649   9.830  0.00  0.00     0.004 C 
BRANCH   7   8
HETATM    8  C   UNK N   1      20.406  14.291   9.559  0.00  0.00     0.019 C 
BRANCH   8   9
HETATM    9  C   UNK N   1      20.615  15.624   8.867  0.00  0.00     0.111 C 
BRANCH   9  10
HETATM   10  N   UNK N   1      19.363  16.358   8.836  0.00  0.00    -0.430 N 
HETATM   11  H   UNK N   1      19.318  17.269   8.378  0.00  0.00     0.149 HD
HETATM   12  H   UNK N   1      18.530  15.964   9.271  0.00  0.00     0.149 HD
ENDBRANCH   9  10
ENDBRANCH   8   9
ENDBRANCH   7   8
ENDBRANCH   6   7
ENDBRANCH   1   6
BRANCH   1  13
HETATM   13  N   UNK N   1      23.638  11.757   9.516  0.00  0.00    -0.418 N 
HETATM   14  H   UNK N   1      24.125  12.607   9.233  0.00  0.00     0.150 HD
HETATM   15  H   UNK N   1      23.679  10.954   8.889  0.00  0.00     0.150 HD
ENDBRANCH   1  13
TORSDOF 8
ENDMDL
MODEL 3
REMARK VINA RESULT:      -4.0     10.841     12.582
REMARK  8 active torsions:
REMARK  status: ('A' for Active; 'I' for Inactive)
REMARK    1  A    between atoms: O_1  and  C_7 
REMARK    2  A    between atoms: C_2  and  C_9 
REMARK    3  A    between atoms: C_3  and  C_2 
REMARK    4  A    between atoms: C_4  and  C_3 
REMARK    5  A    between atoms: C_5  and  C_4 
REMARK    6  A    between atoms: N_6  and  C_5 
REMARK    7  A    between atoms: C_9  and  C_7 
REMARK    8  A    between atoms: C_9  and  N_10 
ROOT
HETATM    1  C   UNK N   1      20.538  19.353   2.193  0.00  0.00     0.173 C 
ENDROOT
BRANCH   1   2
HETATM    2  C   UNK N   1      20.786  20.505   1.256  0.00  0.00     0.163 C 
HETATM    3  O   UNK N   1      21.253  21.555   1.673  0.00  0.00    -0.648 OA
BRANCH   2   4
HETATM    4  O   UNK N   1      20.577  20.355  -0.067  0.00  0.00    -0.775 OA
HETATM    5  H   UNK N   1      21.297  20.391  -0.664  0.00  0.00     0.167 HD
ENDBRANCH   2   4
ENDBRANCH   1   2
BRANCH   1   6
HETATM    6  C   UNK N   1      21.148  19.582   3.576  0.00  0.00     0.035 C 
BRANCH   6   7
HETATM    7  C   UNK N   1      22.424  18.772   3.744  0.00  0.00     0.004 C 
BRANCH   7   8
HETATM    8  C   UNK N   1      23.640  19.650   3.529  0.00  0.00     0.019 C 
BRANCH   8   9
HETATM    9  C   UNK N   1      24.773  19.164   4.411  0.00  0.00     0.111 C 
BRANCH   9  10
HETATM   10  N   UNK N   1      24.254  18.246   5.409  0.00  0.00    -0.430 N 
HETATM   11  H   UNK N   1      23.849  18.608   6.272  0.00  0.00     0.149 HD
HETATM   12  H   UNK N   1      24.296  17.240   5.247  0.00  0.00     0.149 HD
ENDBRANCH   9  10
ENDBRANCH   8   9
ENDBRANCH   7   8
ENDBRANCH   6   7
ENDBRANCH   1   6
BRANCH   1  13
HETATM   13  N   UNK N   1      19.108  19.101   2.303  0.00  0.00    -0.418 N 
HETATM   14  H   UNK N   1      18.399  19.528   1.706  0.00  0.00     0.150 HD
HETATM   15  H   UNK N   1      18.794  18.455   3.026  0.00  0.00     0.150 HD
ENDBRANCH   1  13
TORSDOF 8
ENDMDL
MODEL 4
REMARK VINA RESULT:      -4.0      9.208     10.079
REMARK  8 active torsions:
REMARK  status: ('A' for Active; 'I' for Inactive)
REMARK    1  A    between atoms: O_1  and  C_7 
REMARK    2  A    between atoms: C_2  and  C_9 
REMARK    3  A    between atoms: C_3  and  C_2 
REMARK    4  A    between atoms: C_4  and  C_3 
REMARK    5  A    between atoms: C_5  and  C_4 
REMARK    6  A    between atoms: N_6  and  C_5 
REMARK    7  A    between atoms: C_9  and  C_7 
REMARK    8  A    between atoms: C_9  and  N_10 
ROOT
HETATM    1  C   UNK N   1      36.683  13.715  15.037  0.00  0.00     0.173 C 
ENDROOT
BRANCH   1   2
HETATM    2  C   UNK N   1      35.985  14.107  13.762  0.00  0.00     0.163 C 
HETATM    3  O   UNK N   1      34.915  13.599  13.458  0.00  0.00    -0.648 OA
BRANCH   2   4
HETATM    4  O   UNK N   1      36.493  15.087  12.990  0.00  0.00    -0.775 OA
HETATM    5  H   UNK N   1      36.148  15.238  12.132  0.00  0.00     0.167 HD
ENDBRANCH   2   4
ENDBRANCH   1   2
BRANCH   1   6
HETATM    6  C   UNK N   1      35.704  13.450  16.182  0.00  0.00     0.035 C 
BRANCH   6   7
HETATM    7  C   UNK N   1      35.704  11.976  16.560  0.00  0.00     0.004 C 
BRANCH   7   8
HETATM    8  C   UNK N   1      35.310  11.804  18.013  0.00  0.00     0.019 C 
BRANCH   8   9
HETATM    9  C   UNK N   1      35.177  13.167  18.663  0.00  0.00     0.111 C 
BRANCH   9  10
HETATM   10  N   UNK N   1      35.142  13.016  20.107  0.00  0.00    -0.430 N 
HETATM   11  H   UNK N   1      34.816  13.786  20.692  0.00  0.00     0.149 HD
HETATM   12  H   UNK N   1      35.443  12.142  20.536  0.00  0.00     0.149 HD
ENDBRANCH   9  10
ENDBRANCH   8   9
ENDBRANCH   7   8
ENDBRANCH   6   7
ENDBRANCH   1   6
BRANCH   1  13
HETATM   13  N   UNK N   1      37.522  12.548  14.805  0.00  0.00    -0.418 N 
HETATM   14  H   UNK N   1      38.124  12.422  13.991  0.00  0.00     0.150 HD
HETATM   15  H   UNK N   1      37.507  11.806  15.504  0.00  0.00     0.150 HD
ENDBRANCH   1  13
TORSDOF 8
ENDMDL
MODEL 5
REMARK VINA RESULT:      -4.0     16.186     16.858
REMARK  8 active torsions:
REMARK  status: ('A' for Active; 'I' for Inactive)
REMARK    1  A    between atoms: O_1  and  C_7 
REMARK    2  A    between atoms: C_2  and  C_9 
REMARK    3  A    between atoms: C_3  and  C_2 
REMARK    4  A    between atoms: C_4  and  C_3 
REMARK    5  A    between atoms: C_5  and  C_4 
REMARK    6  A    between atoms: N_6  and  C_5 
REMARK    7  A    between atoms: C_9  and  C_7 
REMARK    8  A    between atoms: C_9  and  N_10 
ROOT
HETATM    1  C   UNK N   1      25.501  24.507  -5.268  0.00  0.00     0.173 C 
ENDROOT
BRANCH   1   2
HETATM    2  C   UNK N   1      26.623  24.457  -4.265  0.00  0.00     0.163 C 
HETATM    3  O   UNK N   1      27.727  24.901  -4.546  0.00  0.00    -0.648 OA
BRANCH   2   4
HETATM    4  O   UNK N   1      26.393  23.999  -3.019  0.00  0.00    -0.775 OA
HETATM    5  H   UNK N   1      25.527  23.755  -2.760  0.00  0.00     0.167 HD
ENDBRANCH   2   4
ENDBRANCH   1   2
BRANCH   1   6
HETATM    6  C   UNK N   1      25.616  25.703  -6.215  0.00  0.00     0.035 C 
BRANCH   6   7
HETATM    7  C   UNK N   1      24.892  26.913  -5.646  0.00  0.00     0.004 C 
BRANCH   7   8
HETATM    8  C   UNK N   1      25.888  27.953  -5.176  0.00  0.00     0.019 C 
BRANCH   8   9
HETATM    9  C   UNK N   1      25.792  28.098  -3.671  0.00  0.00     0.111 C 
BRANCH   9  10
HETATM   10  N   UNK N   1      26.072  29.472  -3.295  0.00  0.00    -0.430 N 
HETATM   11  H   UNK N   1      25.514  30.232  -3.686  0.00  0.00     0.149 HD
HETATM   12  H   UNK N   1      26.826  29.678  -2.639  0.00  0.00     0.149 HD
ENDBRANCH   9  10
ENDBRANCH   8   9
ENDBRANCH   7   8
ENDBRANCH   6   7
ENDBRANCH   1   6
BRANCH   1  13
HETATM   13  N   UNK N   1      25.452  23.264  -6.022  0.00  0.00    -0.418 N 
HETATM   14  H   UNK N   1      25.965  23.093  -6.888  0.00  0.00     0.150 HD
HETATM   15  H   UNK N   1      24.865  22.512  -5.662  0.00  0.00     0.150 HD
ENDBRANCH   1  13
TORSDOF 8
ENDMDL
MODEL 6
REMARK VINA RESULT:      -3.9     12.191     13.200
REMARK  8 active torsions:
REMARK  status: ('A' for Active; 'I' for Inactive)
REMARK    1  A    between atoms: O_1  and  C_7 
REMARK    2  A    between atoms: C_2  and  C_9 
REMARK    3  A    between atoms: C_3  and  C_2 
REMARK    4  A    between atoms: C_4  and  C_3 
REMARK    5  A    between atoms: C_5  and  C_4 
REMARK    6  A    between atoms: N_6  and  C_5 
REMARK    7  A    between atoms: C_9  and  C_7 
REMARK    8  A    between atoms: C_9  and  N_10 
ROOT
HETATM    1  C   UNK N   1      20.394  19.216   2.302  0.00  0.00     0.173 C 
ENDROOT
BRANCH   1   2
HETATM    2  C   UNK N   1      20.849  20.318   1.382  0.00  0.00     0.163 C 
HETATM    3  O   UNK N   1      21.432  21.297   1.826  0.00  0.00    -0.648 OA
BRANCH   2   4
HETATM    4  O   UNK N   1      20.694  20.189   0.049  0.00  0.00    -0.775 OA
HETATM    5  H   UNK N   1      20.397  20.915  -0.462  0.00  0.00     0.167 HD
ENDBRANCH   2   4
ENDBRANCH   1   2
BRANCH   1   6
HETATM    6  C   UNK N   1      20.944  19.375   3.721  0.00  0.00     0.035 C 
BRANCH   6   7
HETATM    7  C   UNK N   1      21.943  18.273   4.038  0.00  0.00     0.004 C 
BRANCH   7   8
HETATM    8  C   UNK N   1      21.345  16.914   3.733  0.00  0.00     0.019 C 
BRANCH   8   9
HETATM    9  C   UNK N   1      20.406  16.515   4.854  0.00  0.00     0.111 C 
BRANCH   9  10
HETATM   10  N   UNK N   1      19.084  16.254   4.313  0.00  0.00    -0.430 N 
HETATM   11  H   UNK N   1      18.759  15.293   4.204  0.00  0.00     0.149 HD
HETATM   12  H   UNK N   1      18.482  17.031   4.041  0.00  0.00     0.149 HD
ENDBRANCH   9  10
ENDBRANCH   8   9
ENDBRANCH   7   8
ENDBRANCH   6   7
ENDBRANCH   1   6
BRANCH   1  13
HETATM   13  N   UNK N   1      18.940  19.156   2.325  0.00  0.00    -0.418 N 
HETATM   14  H   UNK N   1      18.372  19.239   3.168  0.00  0.00     0.150 HD
HETATM   15  H   UNK N   1      18.456  19.023   1.437  0.00  0.00     0.150 HD
ENDBRANCH   1  13
TORSDOF 8
ENDMDL
MODEL 7
REMARK VINA RESULT:      -3.9      2.386      4.236
REMARK  8 active torsions:
REMARK  status: ('A' for Active; 'I' for Inactive)
REMARK    1  A    between atoms: O_1  and  C_7 
REMARK    2  A    between atoms: C_2  and  C_9 
REMARK    3  A    between atoms: C_3  and  C_2 
REMARK    4  A    between atoms: C_4  and  C_3 
REMARK    5  A    between atoms: C_5  and  C_4 
REMARK    6  A    between atoms: N_6  and  C_5 
REMARK    7  A    between atoms: C_9  and  C_7 
REMARK    8  A    between atoms: C_9  and  N_10 
ROOT
HETATM    1  C   UNK N   1      32.663  17.066   7.863  0.00  0.00     0.173 C 
ENDROOT
BRANCH   1   2
HETATM    2  C   UNK N   1      33.850  17.927   7.522  0.00  0.00     0.163 C 
HETATM    3  O   UNK N   1      34.354  18.654   8.367  0.00  0.00    -0.648 OA
BRANCH   2   4
HETATM    4  O   UNK N   1      34.421  17.837   6.304  0.00  0.00    -0.775 OA
HETATM    5  H   UNK N   1      34.656  17.000   5.956  0.00  0.00     0.167 HD
ENDBRANCH   2   4
ENDBRANCH   1   2
BRANCH   1   6
HETATM    6  C   UNK N   1      33.048  15.604   8.093  0.00  0.00     0.035 C 
BRANCH   6   7
HETATM    7  C   UNK N   1      33.591  15.405   9.500  0.00  0.00     0.004 C 
BRANCH   7   8
HETATM    8  C   UNK N   1      35.053  15.012   9.450  0.00  0.00     0.019 C 
BRANCH   8   9
HETATM    9  C   UNK N   1      35.833  15.851  10.444  0.00  0.00     0.111 C 
BRANCH   9  10
HETATM   10  N   UNK N   1      35.043  17.006  10.831  0.00  0.00    -0.430 N 
HETATM   11  H   UNK N   1      34.119  16.877  11.243  0.00  0.00     0.149 HD
HETATM   12  H   UNK N   1      35.413  17.946  10.692  0.00  0.00     0.149 HD
ENDBRANCH   9  10
ENDBRANCH   8   9
ENDBRANCH   7   8
ENDBRANCH   6   7
ENDBRANCH   1   6
BRANCH   1  13
HETATM   13  N   UNK N   1      31.980  17.602   9.031  0.00  0.00    -0.418 N 
HETATM   14  H   UNK N   1      30.967  17.683   9.121  0.00  0.00     0.150 HD
HETATM   15  H   UNK N   1      32.553  17.917   9.813  0.00  0.00     0.150 HD
ENDBRANCH   1  13
TORSDOF 8
ENDMDL
MODEL 8
REMARK VINA RESULT:      -3.9     11.799     13.245
REMARK  8 active torsions:
REMARK  status: ('A' for Active; 'I' for Inactive)
REMARK    1  A    between atoms: O_1  and  C_7 
REMARK    2  A    between atoms: C_2  and  C_9 
REMARK    3  A    between atoms: C_3  and  C_2 
REMARK    4  A    between atoms: C_4  and  C_3 
REMARK    5  A    between atoms: C_5  and  C_4 
REMARK    6  A    between atoms: N_6  and  C_5 
REMARK    7  A    between atoms: C_9  and  C_7 
REMARK    8  A    between atoms: C_9  and  N_10 
ROOT
HETATM    1  C   UNK N   1      44.294  22.077   3.639  0.00  0.00     0.173 C 
ENDROOT
BRANCH   1   2
HETATM    2  C   UNK N   1      43.831  23.428   3.163  0.00  0.00     0.163 C 
HETATM    3  O   UNK N   1      44.605  24.374   3.131  0.00  0.00    -0.648 OA
BRANCH   2   4
HETATM    4  O   UNK N   1      42.580  23.582   2.687  0.00  0.00    -0.775 OA
HETATM    5  H   UNK N   1      42.163  24.420   2.721  0.00  0.00     0.167 HD
ENDBRANCH   2   4
ENDBRANCH   1   2
BRANCH   1   6
HETATM    6  C   UNK N   1      44.255  21.021   2.533  0.00  0.00     0.035 C 
BRANCH   6   7
HETATM    7  C   UNK N   1      43.464  19.801   2.981  0.00  0.00     0.004 C 
BRANCH   7   8
HETATM    8  C   UNK N   1      42.096  20.214   3.486  0.00  0.00     0.019 C 
BRANCH   8   9
HETATM    9  C   UNK N   1      41.125  20.265   2.322  0.00  0.00     0.111 C 
BRANCH   9  10
HETATM   10  N   UNK N   1      40.437  21.544   2.317  0.00  0.00    -0.430 N 
HETATM   11  H   UNK N   1      39.493  21.616   2.697  0.00  0.00     0.149 HD
HETATM   12  H   UNK N   1      40.898  22.369   1.935  0.00  0.00     0.149 HD
ENDBRANCH   9  10
ENDBRANCH   8   9
ENDBRANCH   7   8
ENDBRANCH   6   7
ENDBRANCH   1   6
BRANCH   1  13
HETATM   13  N   UNK N   1      45.635  22.179   4.196  0.00  0.00    -0.418 N 
HETATM   14  H   UNK N   1      46.063  23.049   4.515  0.00  0.00     0.150 HD
HETATM   15  H   UNK N   1      46.185  21.323   4.273  0.00  0.00     0.150 HD
ENDBRANCH   1  13
TORSDOF 8
ENDMDL
MODEL 9
REMARK VINA RESULT:      -3.8     13.862     14.728
REMARK  8 active torsions:
REMARK  status: ('A' for Active; 'I' for Inactive)
REMARK    1  A    between atoms: O_1  and  C_7 
REMARK    2  A    between atoms: C_2  and  C_9 
REMARK    3  A    between atoms: C_3  and  C_2 
REMARK    4  A    between atoms: C_4  and  C_3 
REMARK    5  A    between atoms: C_5  and  C_4 
REMARK    6  A    between atoms: N_6  and  C_5 
REMARK    7  A    between atoms: C_9  and  C_7 
REMARK    8  A    between atoms: C_9  and  N_10 
ROOT
HETATM    1  C   UNK N   1      44.274  21.878   4.206  0.00  0.00     0.173 C 
ENDROOT
BRANCH   1   2
HETATM    2  C   UNK N   1      43.469  23.036   3.679  0.00  0.00     0.163 C 
HETATM    3  O   UNK N   1      42.689  22.878   2.750  0.00  0.00    -0.648 OA
BRANCH   2   4
HETATM    4  O   UNK N   1      43.538  24.237   4.286  0.00  0.00    -0.775 OA
HETATM    5  H   UNK N   1      42.753  24.687   4.528  0.00  0.00     0.167 HD
ENDBRANCH   2   4
ENDBRANCH   1   2
BRANCH   1   6
HETATM    6  C   UNK N   1      44.001  20.580   3.443  0.00  0.00     0.035 C 
BRANCH   6   7
HETATM    7  C   UNK N   1      45.295  19.991   2.902  0.00  0.00     0.004 C 
BRANCH   7   8
HETATM    8  C   UNK N   1      45.347  18.500   3.165  0.00  0.00     0.019 C 
BRANCH   8   9
HETATM    9  C   UNK N   1      46.781  18.086   3.431  0.00  0.00     0.111 C 
BRANCH   9  10
HETATM   10  N   UNK N   1      47.576  19.260   3.747  0.00  0.00    -0.430 N 
HETATM   11  H   UNK N   1      48.384  19.177   4.364  0.00  0.00     0.149 HD
HETATM   12  H   UNK N   1      47.326  20.166   3.352  0.00  0.00     0.149 HD
ENDBRANCH   9  10
ENDBRANCH   8   9
ENDBRANCH   7   8
ENDBRANCH   6   7
ENDBRANCH   1   6
BRANCH   1  13
HETATM   13  N   UNK N   1      45.693  22.201   4.167  0.00  0.00    -0.418 N 
HETATM   14  H   UNK N   1      46.113  22.882   3.534  0.00  0.00     0.150 HD
HETATM   15  H   UNK N   1      46.309  21.714   4.818  0.00  0.00     0.150 HD
ENDBRANCH   1  13
TORSDOF 8
ENDMDL
