MODEL 1
REMARK VINA RESULT:      -6.7      0.000      0.000
REMARK  8 active torsions:
REMARK  status: ('A' for Active; 'I' for Inactive)
REMARK    1  A    between atoms: C_5  and  C_2 
REMARK    2  A    between atoms: O_25  and  C_2 
REMARK    3  A    between atoms: C_7  and  O_20 
REMARK    4  A    between atoms: C_8  and  O_21 
REMARK    5  A    between atoms: C_11  and  N_19 
REMARK    6  A    between atoms: P_27  and  O_22 
REMARK    7  A    between atoms: P_27  and  O_23 
REMARK    8  A    between atoms: P_27  and  O_25 
ROOT
HETATM    1  C   UNK N   1      34.987  12.381  12.689  0.00  0.00     0.180 C 
HETATM    2  C   UNK N   1      36.504  12.365  12.479  0.00  0.00     0.182 C 
HETATM    3  C   UNK N   1      36.581  13.368  11.347  0.00  0.00     0.198 C 
HETATM    4  C   UNK N   1      35.645  14.417  11.933  0.00  0.00     0.262 C 
HETATM    5  O   UNK N   1      34.536  13.701  12.437  0.00  0.00    -0.353 OA
ENDROOT
BRANCH   4   6
HETATM    6  N   UNK N   1      35.176  15.465  11.027  0.00  0.00    -0.297 N 
HETATM    7  C   UNK N   1      35.507  16.775  10.909  0.00  0.00     0.188 A 
HETATM    8  N   UNK N   1      34.802  17.368   9.895  0.00  0.00    -0.346 N 
HETATM    9  C   UNK N   1      34.037  16.378   9.396  0.00  0.00     0.122 A 
ATOM     10  HN  UNK N   1      34.847  18.340   9.586  1.00  0.00     0.167 HD
HETATM   11  C   UNK N   1      33.126  16.372   8.339  0.00  0.00     0.132 A 
HETATM   12  C   UNK N   1      34.261  15.245  10.081  0.00  0.00     0.142 A 
HETATM   13  N   UNK N   1      32.902  17.450   7.672  0.00  0.00    -0.383 N 
HETATM   14  N   UNK N   1      32.491  15.180   8.041  0.00  0.00    -0.332 N 
HETATM   15  H   UNK N   1      32.238  17.481   6.886  0.00  0.00     0.157 HD
ATOM     16  HN  UNK N   1      33.400  18.302   7.932  1.00  0.00     0.157 HD
HETATM   17  C   UNK N   1      31.533  15.063   6.951  0.00  0.00     0.158 C 
HETATM   18  C   UNK N   1      32.753  14.048   8.772  0.00  0.00     0.185 A 
HETATM   19  N   UNK N   1      33.645  14.078   9.803  0.00  0.00    -0.336 N 
ATOM     20  HN  UNK N   1      33.841  13.239  10.349  1.00  0.00     0.168 HD
ENDBRANCH   4   6
BRANCH   3  21
HETATM   21  O   UNK N   1      37.876  13.842  11.121  0.00  0.00    -0.388 OA
HETATM   22  H   UNK N   1      38.425  14.333  10.490  0.00  0.00     0.210 HD
ENDBRANCH   3  21
BRANCH   2  23
HETATM   23  O   UNK N   1      37.162  12.866  13.614  0.00  0.00    -0.390 OA
HETATM   24  H   UNK N   1      37.526  13.591  14.144  0.00  0.00     0.210 HD
ENDBRANCH   2  23
BRANCH   1  25
HETATM   25  C   UNK N   1      34.544  11.901  14.082  0.00  0.00     0.215 C 
BRANCH  25  26
HETATM   26  O   UNK N   1      34.415  13.010  14.922  0.00  0.00    -0.294 OA
BRANCH  26  27
HETATM   27  P   UNK N   1      35.303  12.750  16.395  0.00  0.00     0.390 P 
HETATM   28  O   UNK N   1      36.387  11.639  16.426  0.00  0.00    -0.632 OA
BRANCH  27  29
HETATM   29  O   UNK N   1      34.842  13.443  17.921  0.00  0.00    -0.307 OA
HETATM   30  H   UNK N   1      34.539  14.361  17.987  0.00  0.00     0.222 HD
ENDBRANCH  27  29
BRANCH  27  31
HETATM   31  O   UNK N   1      36.412  14.007  16.028  0.00  0.00    -0.307 OA
HETATM   32  H   UNK N   1      37.004  14.257  15.302  0.00  0.00     0.222 HD
ENDBRANCH  27  31
ENDBRANCH  26  27
ENDBRANCH  25  26
ENDBRANCH   1  25
TORSDOF 8
ENDMDL
MODEL 2
REMARK VINA RESULT:      -6.5      5.597      8.196
REMARK  8 active torsions:
REMARK  status: ('A' for Active; 'I' for Inactive)
REMARK    1  A    between atoms: C_5  and  C_2 
REMARK    2  A    between atoms: O_25  and  C_2 
REMARK    3  A    between atoms: C_7  and  O_20 
REMARK    4  A    between atoms: C_8  and  O_21 
REMARK    5  A    between atoms: C_11  and  N_19 
REMARK    6  A    between atoms: P_27  and  O_22 
REMARK    7  A    between atoms: P_27  and  O_23 
REMARK    8  A    between atoms: P_27  and  O_25 
ROOT
HETATM    1  C   UNK N   1      32.635  16.647   7.464  0.00  0.00     0.180 C 
HETATM    2  C   UNK N   1      33.337  17.986   7.228  0.00  0.00     0.182 C 
HETATM    3  C   UNK N   1      34.206  18.003   8.468  0.00  0.00     0.198 C 
HETATM    4  C   UNK N   1      34.703  16.565   8.393  0.00  0.00     0.262 C 
HETATM    5  O   UNK N   1      33.567  15.782   8.091  0.00  0.00    -0.353 OA
ENDROOT
BRANCH   4   6
HETATM    6  N   UNK N   1      35.362  16.030   9.584  0.00  0.00    -0.297 N 
HETATM    7  C   UNK N   1      35.515  16.527  10.836  0.00  0.00     0.188 A 
HETATM    8  N   UNK N   1      36.206  15.651  11.630  0.00  0.00    -0.346 N 
HETATM    9  C   UNK N   1      36.463  14.602  10.825  0.00  0.00     0.122 A 
ATOM     10  HN  UNK N   1      36.466  15.766  12.610  1.00  0.00     0.167 HD
HETATM   11  C   UNK N   1      37.119  13.396  11.077  0.00  0.00     0.132 A 
HETATM   12  C   UNK N   1      35.962  14.837   9.601  0.00  0.00     0.142 A 
HETATM   13  N   UNK N   1      37.604  13.156  12.244  0.00  0.00    -0.383 N 
HETATM   14  N   UNK N   1      37.218  12.487  10.040  0.00  0.00    -0.332 N 
HETATM   15  H   UNK N   1      38.092  12.277  12.466  0.00  0.00     0.157 HD
ATOM     16  HN  UNK N   1      37.501  13.861  12.975  1.00  0.00     0.157 HD
HETATM   17  C   UNK N   1      37.871  11.195  10.202  0.00  0.00     0.158 C 
HETATM   18  C   UNK N   1      36.689  12.774   8.806  0.00  0.00     0.185 A 
HETATM   19  N   UNK N   1      36.056  13.960   8.581  0.00  0.00    -0.336 N 
ATOM     20  HN  UNK N   1      35.663  14.178   7.666  1.00  0.00     0.168 HD
ENDBRANCH   4   6
BRANCH   3  21
HETATM   21  O   UNK N   1      35.231  18.951   8.407  0.00  0.00    -0.388 OA
HETATM   22  H   UNK N   1      35.408  19.899   8.301  0.00  0.00     0.210 HD
ENDBRANCH   3  21
BRANCH   2  23
HETATM   23  O   UNK N   1      34.138  17.925   6.076  0.00  0.00    -0.390 OA
HETATM   24  H   UNK N   1      34.998  17.898   5.631  0.00  0.00     0.210 HD
ENDBRANCH   2  23
BRANCH   1  25
HETATM   25  C   UNK N   1      32.060  16.008   6.187  0.00  0.00     0.215 C 
BRANCH  25  26
HETATM   26  O   UNK N   1      31.284  16.958   5.517  0.00  0.00    -0.294 OA
BRANCH  26  27
HETATM   27  P   UNK N   1      31.591  16.881   3.807  0.00  0.00     0.390 P 
HETATM   28  O   UNK N   1      33.038  17.126   3.297  0.00  0.00    -0.632 OA
BRANCH  27  29
HETATM   29  O   UNK N   1      30.329  16.853   2.613  0.00  0.00    -0.307 OA
HETATM   30  H   UNK N   1      29.741  16.089   2.517  0.00  0.00     0.222 HD
ENDBRANCH  27  29
BRANCH  27  31
HETATM   31  O   UNK N   1      31.752  15.173   3.845  0.00  0.00    -0.307 OA
HETATM   32  H   UNK N   1      31.754  14.434   3.217  0.00  0.00     0.222 HD
ENDBRANCH  27  31
ENDBRANCH  26  27
ENDBRANCH  25  26
ENDBRANCH   1  25
TORSDOF 8
ENDMDL
MODEL 3
REMARK VINA RESULT:      -6.4      2.827      4.395
REMARK  8 active torsions:
REMARK  status: ('A' for Active; 'I' for Inactive)
REMARK    1  A    between atoms: C_5  and  C_2 
REMARK    2  A    between atoms: O_25  and  C_2 
REMARK    3  A    between atoms: C_7  and  O_20 
REMARK    4  A    between atoms: C_8  and  O_21 
REMARK    5  A    between atoms: C_11  and  N_19 
REMARK    6  A    between atoms: P_27  and  O_22 
REMARK    7  A    between atoms: P_27  and  O_23 
REMARK    8  A    between atoms: P_27  and  O_25 
ROOT
HETATM    1  C   UNK N   1      34.920  14.772  10.099  0.00  0.00     0.180 C 
HETATM    2  C   UNK N   1      35.416  16.220  10.139  0.00  0.00     0.182 C 
HETATM    3  C   UNK N   1      34.655  16.748   8.941  0.00  0.00     0.198 C 
HETATM    4  C   UNK N   1      33.302  16.124   9.262  0.00  0.00     0.262 C 
HETATM    5  O   UNK N   1      33.576  14.794   9.649  0.00  0.00    -0.353 OA
ENDROOT
BRANCH   4   6
HETATM    6  N   UNK N   1      32.303  16.125   8.194  0.00  0.00    -0.297 N 
HETATM    7  C   UNK N   1      32.165  15.361   7.081  0.00  0.00     0.188 A 
HETATM    8  N   UNK N   1      31.052  15.727   6.372  0.00  0.00    -0.346 N 
HETATM    9  C   UNK N   1      30.513  16.731   7.090  0.00  0.00     0.122 A 
ATOM     10  HN  UNK N   1      30.708  15.328   5.498  1.00  0.00     0.167 HD
HETATM   11  C   UNK N   1      29.360  17.489   6.879  0.00  0.00     0.132 A 
HETATM   12  C   UNK N   1      31.269  16.968   8.174  0.00  0.00     0.142 A 
HETATM   13  N   UNK N   1      28.625  17.272   5.845  0.00  0.00    -0.383 N 
HETATM   14  N   UNK N   1      29.045  18.457   7.813  0.00  0.00    -0.332 N 
HETATM   15  H   UNK N   1      27.767  17.810   5.659  0.00  0.00     0.157 HD
ATOM     16  HN  UNK N   1      28.902  16.542   5.188  1.00  0.00     0.157 HD
HETATM   17  C   UNK N   1      27.858  19.293   7.694  0.00  0.00     0.158 C 
HETATM   18  C   UNK N   1      29.850  18.663   8.906  0.00  0.00     0.185 A 
HETATM   19  N   UNK N   1      30.975  17.913   9.090  0.00  0.00    -0.336 N 
ATOM     20  HN  UNK N   1      31.577  18.064   9.899  1.00  0.00     0.168 HD
ENDBRANCH   4   6
BRANCH   3  21
HETATM   21  O   UNK N   1      34.624  18.143   8.881  0.00  0.00    -0.388 OA
HETATM   22  H   UNK N   1      34.034  18.911   8.933  0.00  0.00     0.210 HD
ENDBRANCH   3  21
BRANCH   2  23
HETATM   23  O   UNK N   1      34.976  16.858  11.310  0.00  0.00    -0.390 OA
HETATM   24  H   UNK N   1      35.062  17.527  12.006  0.00  0.00     0.210 HD
ENDBRANCH   2  23
BRANCH   1  25
HETATM   25  C   UNK N   1      35.042  14.032  11.443  0.00  0.00     0.215 C 
BRANCH  25  26
HETATM   26  O   UNK N   1      36.295  14.308  11.999  0.00  0.00    -0.294 OA
BRANCH  26  27
HETATM   27  P   UNK N   1      36.219  14.181  13.732  0.00  0.00     0.390 P 
HETATM   28  O   UNK N   1      35.035  13.406  14.372  0.00  0.00    -0.632 OA
BRANCH  27  29
HETATM   29  O   UNK N   1      37.213  15.125  14.801  0.00  0.00    -0.307 OA
HETATM   30  H   UNK N   1      38.028  15.547  14.491  0.00  0.00     0.222 HD
ENDBRANCH  27  29
BRANCH  27  31
HETATM   31  O   UNK N   1      37.282  12.834  13.747  0.00  0.00    -0.307 OA
HETATM   32  H   UNK N   1      37.240  11.884  13.935  0.00  0.00     0.222 HD
ENDBRANCH  27  31
ENDBRANCH  26  27
ENDBRANCH  25  26
ENDBRANCH   1  25
TORSDOF 8
ENDMDL
MODEL 4
REMARK VINA RESULT:      -6.3      5.102      7.163
REMARK  8 active torsions:
REMARK  status: ('A' for Active; 'I' for Inactive)
REMARK    1  A    between atoms: C_5  and  C_2 
REMARK    2  A    between atoms: O_25  and  C_2 
REMARK    3  A    between atoms: C_7  and  O_20 
REMARK    4  A    between atoms: C_8  and  O_21 
REMARK    5  A    between atoms: C_11  and  N_19 
REMARK    6  A    between atoms: P_27  and  O_22 
REMARK    7  A    between atoms: P_27  and  O_23 
REMARK    8  A    between atoms: P_27  and  O_25 
ROOT
HETATM    1  C   UNK N   1      32.616  16.611   7.468  0.00  0.00     0.180 C 
HETATM    2  C   UNK N   1      33.314  17.947   7.202  0.00  0.00     0.182 C 
HETATM    3  C   UNK N   1      34.176  17.997   8.446  0.00  0.00     0.198 C 
HETATM    4  C   UNK N   1      34.679  16.560   8.409  0.00  0.00     0.262 C 
HETATM    5  O   UNK N   1      33.547  15.765   8.121  0.00  0.00    -0.353 OA
ENDROOT
BRANCH   4   6
HETATM    6  N   UNK N   1      35.333  16.057   9.617  0.00  0.00    -0.297 N 
HETATM    7  C   UNK N   1      35.594  16.636  10.815  0.00  0.00     0.188 A 
HETATM    8  N   UNK N   1      36.227  15.758  11.655  0.00  0.00    -0.346 N 
HETATM    9  C   UNK N   1      36.336  14.625  10.934  0.00  0.00     0.122 A 
ATOM     10  HN  UNK N   1      36.543  15.925  12.611  1.00  0.00     0.167 HD
HETATM   11  C   UNK N   1      36.874  13.381  11.265  0.00  0.00     0.132 A 
HETATM   12  C   UNK N   1      35.806  14.812   9.715  0.00  0.00     0.142 A 
HETATM   13  N   UNK N   1      37.385  13.187  12.430  0.00  0.00    -0.383 N 
HETATM   14  N   UNK N   1      36.829  12.384  10.309  0.00  0.00    -0.332 N 
HETATM   15  H   UNK N   1      37.789  12.281  12.709  0.00  0.00     0.157 HD
ATOM     16  HN  UNK N   1      37.390  13.956  13.101  1.00  0.00     0.157 HD
HETATM   17  C   UNK N   1      37.351  11.048  10.557  0.00  0.00     0.158 C 
HETATM   18  C   UNK N   1      36.277  12.624   9.075  0.00  0.00     0.185 A 
HETATM   19  N   UNK N   1      35.760  13.849   8.772  0.00  0.00    -0.336 N 
ATOM     20  HN  UNK N   1      35.351  14.032   7.856  1.00  0.00     0.168 HD
ENDBRANCH   4   6
BRANCH   3  21
HETATM   21  O   UNK N   1      35.198  18.947   8.367  0.00  0.00    -0.388 OA
HETATM   22  H   UNK N   1      35.483  19.745   7.895  0.00  0.00     0.210 HD
ENDBRANCH   3  21
BRANCH   2  23
HETATM   23  O   UNK N   1      34.121  17.861   6.057  0.00  0.00    -0.390 OA
HETATM   24  H   UNK N   1      34.984  17.831   5.616  0.00  0.00     0.210 HD
ENDBRANCH   2  23
BRANCH   1  25
HETATM   25  C   UNK N   1      32.050  15.939   6.204  0.00  0.00     0.215 C 
BRANCH  25  26
HETATM   26  O   UNK N   1      33.110  15.420   5.455  0.00  0.00    -0.294 OA
BRANCH  26  27
HETATM   27  P   UNK N   1      33.264  13.711   5.744  0.00  0.00     0.390 P 
HETATM   28  O   UNK N   1      33.426  12.761   4.526  0.00  0.00    -0.632 OA
BRANCH  27  29
HETATM   29  O   UNK N   1      32.939  12.972   7.282  0.00  0.00    -0.307 OA
HETATM   30  H   UNK N   1      32.072  12.590   7.486  0.00  0.00     0.222 HD
ENDBRANCH  27  29
BRANCH  27  31
HETATM   31  O   UNK N   1      34.950  13.843   6.033  0.00  0.00    -0.307 OA
HETATM   32  H   UNK N   1      35.748  14.095   5.544  0.00  0.00     0.222 HD
ENDBRANCH  27  31
ENDBRANCH  26  27
ENDBRANCH  25  26
ENDBRANCH   1  25
TORSDOF 8
ENDMDL
MODEL 5
REMARK VINA RESULT:      -6.3      2.927      4.241
REMARK  8 active torsions:
REMARK  status: ('A' for Active; 'I' for Inactive)
REMARK    1  A    between atoms: C_5  and  C_2 
REMARK    2  A    between atoms: O_25  and  C_2 
REMARK    3  A    between atoms: C_7  and  O_20 
REMARK    4  A    between atoms: C_8  and  O_21 
REMARK    5  A    between atoms: C_11  and  N_19 
REMARK    6  A    between atoms: P_27  and  O_22 
REMARK    7  A    between atoms: P_27  and  O_23 
REMARK    8  A    between atoms: P_27  and  O_25 
ROOT
HETATM    1  C   UNK N   1      35.353  10.978  11.796  0.00  0.00     0.180 C 
HETATM    2  C   UNK N   1      35.092  11.281  13.274  0.00  0.00     0.182 C 
HETATM    3  C   UNK N   1      35.449  12.753  13.265  0.00  0.00     0.198 C 
HETATM    4  C   UNK N   1      34.699  13.141  11.998  0.00  0.00     0.262 C 
HETATM    5  O   UNK N   1      34.990  12.131  11.055  0.00  0.00    -0.353 OA
ENDROOT
BRANCH   4   6
HETATM    6  N   UNK N   1      35.007  14.449  11.421  0.00  0.00    -0.297 N 
HETATM    7  C   UNK N   1      36.025  15.319  11.638  0.00  0.00     0.188 A 
HETATM    8  N   UNK N   1      35.897  16.429  10.846  0.00  0.00    -0.346 N 
HETATM    9  C   UNK N   1      34.774  16.207  10.137  0.00  0.00     0.122 A 
ATOM     10  HN  UNK N   1      36.514  17.241  10.804  1.00  0.00     0.167 HD
HETATM   11  C   UNK N   1      34.146  16.975   9.156  0.00  0.00     0.132 A 
HETATM   12  C   UNK N   1      34.243  15.025  10.490  0.00  0.00     0.142 A 
HETATM   13  N   UNK N   1      34.644  18.109   8.807  0.00  0.00    -0.383 N 
HETATM   14  N   UNK N   1      32.994  16.472   8.582  0.00  0.00    -0.332 N 
HETATM   15  H   UNK N   1      34.208  18.701   8.085  0.00  0.00     0.157 HD
ATOM     16  HN  UNK N   1      35.499  18.433   9.260  1.00  0.00     0.157 HD
HETATM   17  C   UNK N   1      32.270  17.187   7.541  0.00  0.00     0.158 C 
HETATM   18  C   UNK N   1      32.489  15.258   8.977  0.00  0.00     0.185 A 
HETATM   19  N   UNK N   1      33.117  14.525   9.941  0.00  0.00    -0.336 N 
ATOM     20  HN  UNK N   1      32.745  13.624  10.238  1.00  0.00     0.168 HD
ENDBRANCH   4   6
BRANCH   3  21
HETATM   21  O   UNK N   1      35.008  13.431  14.404  0.00  0.00    -0.388 OA
HETATM   22  H   UNK N   1      34.232  13.850  14.808  0.00  0.00     0.210 HD
ENDBRANCH   3  21
BRANCH   2  23
HETATM   23  O   UNK N   1      33.732  11.115  13.578  0.00  0.00    -0.390 OA
HETATM   24  H   UNK N   1      32.967  10.569  13.815  0.00  0.00     0.210 HD
ENDBRANCH   2  23
BRANCH   1  25
HETATM   25  C   UNK N   1      34.618   9.731  11.275  0.00  0.00     0.215 C 
BRANCH  25  26
HETATM   26  O   UNK N   1      33.257  10.026  11.153  0.00  0.00    -0.294 OA
BRANCH  26  27
HETATM   27  P   UNK N   1      32.786   9.988   9.479  0.00  0.00     0.390 P 
HETATM   28  O   UNK N   1      31.344   9.536   9.121  0.00  0.00    -0.632 OA
BRANCH  27  29
HETATM   29  O   UNK N   1      33.917  10.125   8.167  0.00  0.00    -0.307 OA
HETATM   30  H   UNK N   1      34.441  10.929   8.034  0.00  0.00     0.222 HD
ENDBRANCH  27  29
BRANCH  27  31
HETATM   31  O   UNK N   1      32.405  11.660   9.478  0.00  0.00    -0.307 OA
HETATM   32  H   UNK N   1      31.637  12.225   9.299  0.00  0.00     0.222 HD
ENDBRANCH  27  31
ENDBRANCH  26  27
ENDBRANCH  25  26
ENDBRANCH   1  25
TORSDOF 8
ENDMDL
MODEL 6
REMARK VINA RESULT:      -6.3      6.757      9.399
REMARK  8 active torsions:
REMARK  status: ('A' for Active; 'I' for Inactive)
REMARK    1  A    between atoms: C_5  and  C_2 
REMARK    2  A    between atoms: O_25  and  C_2 
REMARK    3  A    between atoms: C_7  and  O_20 
REMARK    4  A    between atoms: C_8  and  O_21 
REMARK    5  A    between atoms: C_11  and  N_19 
REMARK    6  A    between atoms: P_27  and  O_22 
REMARK    7  A    between atoms: P_27  and  O_23 
REMARK    8  A    between atoms: P_27  and  O_25 
ROOT
HETATM    1  C   UNK N   1      30.546  17.723   7.722  0.00  0.00     0.180 C 
HETATM    2  C   UNK N   1      29.855  18.082   9.040  0.00  0.00     0.182 C 
HETATM    3  C   UNK N   1      28.439  18.215   8.519  0.00  0.00     0.198 C 
HETATM    4  C   UNK N   1      28.413  16.953   7.665  0.00  0.00     0.262 C 
HETATM    5  O   UNK N   1      29.640  16.939   6.966  0.00  0.00    -0.353 OA
ENDROOT
BRANCH   4   6
HETATM    6  N   UNK N   1      27.309  16.821   6.715  0.00  0.00    -0.297 N 
HETATM    7  C   UNK N   1      26.382  15.848   6.533  0.00  0.00     0.188 A 
HETATM    8  N   UNK N   1      25.529  16.170   5.511  0.00  0.00    -0.346 N 
HETATM    9  C   UNK N   1      25.961  17.371   5.080  0.00  0.00     0.122 A 
ATOM     10  HN  UNK N   1      24.743  15.624   5.156  1.00  0.00     0.167 HD
HETATM   11  C   UNK N   1      25.478  18.209   4.075  0.00  0.00     0.132 A 
HETATM   12  C   UNK N   1      27.029  17.752   5.800  0.00  0.00     0.142 A 
HETATM   13  N   UNK N   1      24.455  17.858   3.378  0.00  0.00    -0.383 N 
HETATM   14  N   UNK N   1      26.129  19.411   3.869  0.00  0.00    -0.332 N 
HETATM   15  H   UNK N   1      24.070  18.452   2.630  0.00  0.00     0.157 HD
ATOM     16  HN  UNK N   1      24.009  16.961   3.573  1.00  0.00     0.157 HD
HETATM   17  C   UNK N   1      25.697  20.362   2.854  0.00  0.00     0.158 C 
HETATM   18  C   UNK N   1      27.218  19.755   4.630  0.00  0.00     0.185 A 
HETATM   19  N   UNK N   1      27.675  18.919   5.606  0.00  0.00    -0.336 N 
ATOM     20  HN  UNK N   1      28.485  19.170   6.172  1.00  0.00     0.168 HD
ENDBRANCH   4   6
BRANCH   3  21
HETATM   21  O   UNK N   1      27.479  18.220   9.534  0.00  0.00    -0.388 OA
HETATM   22  H   UNK N   1      27.364  18.287  10.495  0.00  0.00     0.210 HD
ENDBRANCH   3  21
BRANCH   2  23
HETATM   23  O   UNK N   1      29.939  17.013   9.946  0.00  0.00    -0.390 OA
HETATM   24  H   UNK N   1      29.919  16.069  10.162  0.00  0.00     0.210 HD
ENDBRANCH   2  23
BRANCH   1  25
HETATM   25  C   UNK N   1      31.892  16.998   7.899  0.00  0.00     0.215 C 
BRANCH  25  26
HETATM   26  O   UNK N   1      32.718  17.773   8.719  0.00  0.00    -0.294 OA
BRANCH  26  27
HETATM   27  P   UNK N   1      34.234  18.077   7.922  0.00  0.00     0.390 P 
HETATM   28  O   UNK N   1      35.211  19.110   8.547  0.00  0.00    -0.632 OA
BRANCH  27  29
HETATM   29  O   UNK N   1      34.589  17.532   6.311  0.00  0.00    -0.307 OA
HETATM   30  H   UNK N   1      33.976  16.961   5.824  0.00  0.00     0.222 HD
ENDBRANCH  27  29
BRANCH  27  31
HETATM   31  O   UNK N   1      34.976  16.723   8.669  0.00  0.00    -0.307 OA
HETATM   32  H   UNK N   1      35.732  16.137   8.511  0.00  0.00     0.222 HD
ENDBRANCH  27  31
ENDBRANCH  26  27
ENDBRANCH  25  26
ENDBRANCH   1  25
TORSDOF 8
ENDMDL
MODEL 7
REMARK VINA RESULT:      -6.2      4.932      7.167
REMARK  8 active torsions:
REMARK  status: ('A' for Active; 'I' for Inactive)
REMARK    1  A    between atoms: C_5  and  C_2 
REMARK    2  A    between atoms: O_25  and  C_2 
REMARK    3  A    between atoms: C_7  and  O_20 
REMARK    4  A    between atoms: C_8  and  O_21 
REMARK    5  A    between atoms: C_11  and  N_19 
REMARK    6  A    between atoms: P_27  and  O_22 
REMARK    7  A    between atoms: P_27  and  O_23 
REMARK    8  A    between atoms: P_27  and  O_25 
ROOT
HETATM    1  C   UNK N   1      32.581  17.754   8.522  0.00  0.00     0.180 C 
HETATM    2  C   UNK N   1      33.322  17.790   7.182  0.00  0.00     0.182 C 
HETATM    3  C   UNK N   1      34.293  16.657   7.435  0.00  0.00     0.198 C 
HETATM    4  C   UNK N   1      33.303  15.661   8.025  0.00  0.00     0.262 C 
HETATM    5  O   UNK N   1      32.513  16.399   8.934  0.00  0.00    -0.353 OA
ENDROOT
BRANCH   4   6
HETATM    6  N   UNK N   1      33.863  14.493   8.704  0.00  0.00    -0.297 N 
HETATM    7  C   UNK N   1      33.962  13.192   8.337  0.00  0.00     0.188 A 
HETATM    8  N   UNK N   1      34.582  12.454   9.310  0.00  0.00    -0.346 N 
HETATM    9  C   UNK N   1      34.863  13.347  10.279  0.00  0.00     0.122 A 
ATOM     10  HN  UNK N   1      34.786  11.454   9.303  1.00  0.00     0.167 HD
HETATM   11  C   UNK N   1      35.507  13.191  11.507  0.00  0.00     0.132 A 
HETATM   12  C   UNK N   1      34.426  14.563   9.913  0.00  0.00     0.142 A 
HETATM   13  N   UNK N   1      35.933  12.032  11.870  0.00  0.00    -0.383 N 
HETATM   14  N   UNK N   1      35.671  14.313  12.297  0.00  0.00    -0.332 N 
HETATM   15  H   UNK N   1      36.414  11.881  12.768  0.00  0.00     0.157 HD
ATOM     16  HN  UNK N   1      35.790  11.237  11.247  1.00  0.00     0.157 HD
HETATM   17  C   UNK N   1      36.339  14.261  13.589  0.00  0.00     0.158 C 
HETATM   18  C   UNK N   1      35.204  15.535  11.880  0.00  0.00     0.185 A 
HETATM   19  N   UNK N   1      34.574  15.664  10.677  0.00  0.00    -0.336 N 
ATOM     20  HN  UNK N   1      34.225  16.569  10.364  1.00  0.00     0.168 HD
ENDBRANCH   4   6
BRANCH   3  21
HETATM   21  O   UNK N   1      34.918  16.199   6.272  0.00  0.00    -0.388 OA
HETATM   22  H   UNK N   1      35.565  16.439   5.592  0.00  0.00     0.210 HD
ENDBRANCH   3  21
BRANCH   2  23
HETATM   23  O   UNK N   1      32.453  17.457   6.131  0.00  0.00    -0.390 OA
HETATM   24  H   UNK N   1      31.722  17.657   5.526  0.00  0.00     0.210 HD
ENDBRANCH   2  23
BRANCH   1  25
HETATM   25  C   UNK N   1      31.181  18.391   8.479  0.00  0.00     0.215 C 
BRANCH  25  26
HETATM   26  O   UNK N   1      30.232  17.383   8.287  0.00  0.00    -0.294 OA
BRANCH  26  27
HETATM   27  P   UNK N   1      29.026  17.452   9.539  0.00  0.00     0.390 P 
HETATM   28  O   UNK N   1      29.187  16.533  10.781  0.00  0.00    -0.632 OA
BRANCH  27  29
HETATM   29  O   UNK N   1      27.497  18.254   9.345  0.00  0.00    -0.307 OA
HETATM   30  H   UNK N   1      26.708  17.774   9.051  0.00  0.00     0.222 HD
ENDBRANCH  27  29
BRANCH  27  31
HETATM   31  O   UNK N   1      29.774  18.807  10.278  0.00  0.00    -0.307 OA
HETATM   32  H   UNK N   1      30.086  19.689  10.021  0.00  0.00     0.222 HD
ENDBRANCH  27  31
ENDBRANCH  26  27
ENDBRANCH  25  26
ENDBRANCH   1  25
TORSDOF 8
ENDMDL
MODEL 8
REMARK VINA RESULT:      -6.1      6.047      8.699
REMARK  8 active torsions:
REMARK  status: ('A' for Active; 'I' for Inactive)
REMARK    1  A    between atoms: C_5  and  C_2 
REMARK    2  A    between atoms: O_25  and  C_2 
REMARK    3  A    between atoms: C_7  and  O_20 
REMARK    4  A    between atoms: C_8  and  O_21 
REMARK    5  A    between atoms: C_11  and  N_19 
REMARK    6  A    between atoms: P_27  and  O_22 
REMARK    7  A    between atoms: P_27  and  O_23 
REMARK    8  A    between atoms: P_27  and  O_25 
ROOT
HETATM    1  C   UNK N   1      30.853  17.982   8.321  0.00  0.00     0.180 C 
HETATM    2  C   UNK N   1      29.866  18.130   9.483  0.00  0.00     0.182 C 
HETATM    3  C   UNK N   1      28.624  18.453   8.679  0.00  0.00     0.198 C 
HETATM    4  C   UNK N   1      28.785  17.381   7.608  0.00  0.00     0.262 C 
HETATM    5  O   UNK N   1      30.145  17.418   7.230  0.00  0.00    -0.353 OA
ENDROOT
BRANCH   4   6
HETATM    6  N   UNK N   1      27.945  17.504   6.417  0.00  0.00    -0.297 N 
HETATM    7  C   UNK N   1      28.057  18.273   5.305  0.00  0.00     0.188 A 
HETATM    8  N   UNK N   1      27.021  18.036   4.441  0.00  0.00    -0.346 N 
HETATM    9  C   UNK N   1      26.279  17.097   5.058  0.00  0.00     0.122 A 
ATOM     10  HN  UNK N   1      26.850  18.473   3.534  1.00  0.00     0.167 HD
HETATM   11  C   UNK N   1      25.111  16.447   4.657  0.00  0.00     0.132 A 
HETATM   12  C   UNK N   1      26.833  16.787   6.241  0.00  0.00     0.142 A 
HETATM   13  N   UNK N   1      24.569  16.731   3.525  0.00  0.00    -0.383 N 
HETATM   14  N   UNK N   1      24.576  15.498   5.508  0.00  0.00    -0.332 N 
HETATM   15  H   UNK N   1      23.708  16.270   3.196  0.00  0.00     0.157 HD
ATOM     16  HN  UNK N   1      25.006  17.438   2.933  1.00  0.00     0.157 HD
HETATM   17  C   UNK N   1      23.369  14.753   5.179  0.00  0.00     0.158 C 
HETATM   18  C   UNK N   1      25.179  15.217   6.708  0.00  0.00     0.185 A 
HETATM   19  N   UNK N   1      26.319  15.868   7.082  0.00  0.00    -0.336 N 
ATOM     20  HN  UNK N   1      26.769  15.663   7.974  1.00  0.00     0.168 HD
ENDBRANCH   4   6
BRANCH   3  21
HETATM   21  O   UNK N   1      27.445  18.329   9.417  0.00  0.00    -0.388 OA
HETATM   22  H   UNK N   1      27.068  18.441  10.304  0.00  0.00     0.210 HD
ENDBRANCH   3  21
BRANCH   2  23
HETATM   23  O   UNK N   1      29.706  16.905  10.150  0.00  0.00    -0.390 OA
HETATM   24  H   UNK N   1      29.353  16.361  10.870  0.00  0.00     0.210 HD
ENDBRANCH   2  23
BRANCH   1  25
HETATM   25  C   UNK N   1      32.101  17.149   8.663  0.00  0.00     0.215 C 
BRANCH  25  26
HETATM   26  O   UNK N   1      31.891  15.831   8.248  0.00  0.00    -0.294 OA
BRANCH  26  27
HETATM   27  P   UNK N   1      32.838  14.742   9.219  0.00  0.00     0.390 P 
HETATM   28  O   UNK N   1      34.194  15.238   9.789  0.00  0.00    -0.632 OA
BRANCH  27  29
HETATM   29  O   UNK N   1      32.511  13.038   9.333  0.00  0.00    -0.307 OA
HETATM   30  H   UNK N   1      32.973  12.397   8.771  0.00  0.00     0.222 HD
ENDBRANCH  27  29
BRANCH  27  31
HETATM   31  O   UNK N   1      31.950  15.125  10.635  0.00  0.00    -0.307 OA
HETATM   32  H   UNK N   1      32.038  15.013  11.595  0.00  0.00     0.222 HD
ENDBRANCH  27  31
ENDBRANCH  26  27
ENDBRANCH  25  26
ENDBRANCH   1  25
TORSDOF 8
ENDMDL
MODEL 9
REMARK VINA RESULT:      -6.1     14.368     16.903
REMARK  8 active torsions:
REMARK  status: ('A' for Active; 'I' for Inactive)
REMARK    1  A    between atoms: C_5  and  C_2 
REMARK    2  A    between atoms: O_25  and  C_2 
REMARK    3  A    between atoms: C_7  and  O_20 
REMARK    4  A    between atoms: C_8  and  O_21 
REMARK    5  A    between atoms: C_11  and  N_19 
REMARK    6  A    between atoms: P_27  and  O_22 
REMARK    7  A    between atoms: P_27  and  O_23 
REMARK    8  A    between atoms: P_27  and  O_25 
ROOT
HETATM    1  C   UNK N   1      21.220  16.697   4.469  0.00  0.00     0.180 C 
HETATM    2  C   UNK N   1      19.878  16.175   3.948  0.00  0.00     0.182 C 
HETATM    3  C   UNK N   1      19.594  15.165   5.041  0.00  0.00     0.198 C 
HETATM    4  C   UNK N   1      19.953  16.042   6.234  0.00  0.00     0.262 C 
HETATM    5  O   UNK N   1      21.160  16.687   5.885  0.00  0.00    -0.353 OA
ENDROOT
BRANCH   4   6
HETATM    6  N   UNK N   1      20.114  15.371   7.523  0.00  0.00    -0.297 N 
HETATM    7  C   UNK N   1      19.487  15.536   8.715  0.00  0.00     0.188 A 
HETATM    8  N   UNK N   1      19.974  14.660   9.649  0.00  0.00    -0.346 N 
HETATM    9  C   UNK N   1      20.912  13.954   8.988  0.00  0.00     0.122 A 
ATOM     10  HN  UNK N   1      19.690  14.564  10.624  1.00  0.00     0.167 HD
HETATM   11  C   UNK N   1      21.733  12.908   9.410  0.00  0.00     0.132 A 
HETATM   12  C   UNK N   1      20.995  14.387   7.720  0.00  0.00     0.142 A 
HETATM   13  N   UNK N   1      21.664  12.480  10.622  0.00  0.00    -0.383 N 
HETATM   14  N   UNK N   1      22.602  12.357   8.486  0.00  0.00    -0.332 N 
HETATM   15  H   UNK N   1      22.253  11.709  10.966  0.00  0.00     0.157 HD
ATOM     16  HN  UNK N   1      21.002  12.920  11.262  1.00  0.00     0.157 HD
HETATM   17  C   UNK N   1      23.492  11.254   8.820  0.00  0.00     0.158 C 
HETATM   18  C   UNK N   1      22.651  12.836   7.201  0.00  0.00     0.185 A 
HETATM   19  N   UNK N   1      21.841  13.862   6.811  0.00  0.00    -0.336 N 
ATOM     20  HN  UNK N   1      21.875  14.222   5.858  1.00  0.00     0.168 HD
ENDBRANCH   4   6
BRANCH   3  21
HETATM   21  O   UNK N   1      18.268  14.726   5.051  0.00  0.00    -0.388 OA
HETATM   22  H   UNK N   1      17.398  14.891   5.446  0.00  0.00     0.210 HD
ENDBRANCH   3  21
BRANCH   2  23
HETATM   23  O   UNK N   1      18.913  17.194   3.969  0.00  0.00    -0.390 OA
HETATM   24  H   UNK N   1      18.094  17.606   3.654  0.00  0.00     0.210 HD
ENDBRANCH   2  23
BRANCH   1  25
HETATM   25  C   UNK N   1      21.596  18.093   3.940  0.00  0.00     0.215 C 
BRANCH  25  26
HETATM   26  O   UNK N   1      21.279  18.160   2.581  0.00  0.00    -0.294 OA
BRANCH  26  27
HETATM   27  P   UNK N   1      20.892  19.798   2.139  0.00  0.00     0.390 P 
HETATM   28  O   UNK N   1      20.938  20.197   0.639  0.00  0.00    -0.632 OA
BRANCH  27  29
HETATM   29  O   UNK N   1      20.758  21.090   3.294  0.00  0.00    -0.307 OA
HETATM   30  H   UNK N   1      21.506  21.674   3.487  0.00  0.00     0.222 HD
ENDBRANCH  27  29
BRANCH  27  31
HETATM   31  O   UNK N   1      19.208  19.470   2.137  0.00  0.00    -0.307 OA
HETATM   32  H   UNK N   1      18.451  19.585   1.541  0.00  0.00     0.222 HD
ENDBRANCH  27  31
ENDBRANCH  26  27
ENDBRANCH  25  26
ENDBRANCH   1  25
TORSDOF 8
ENDMDL
