MODEL 1
REMARK VINA RESULT:      -3.4      0.000      0.000
REMARK  1 active torsions:
REMARK  status: ('A' for Active; 'I' for Inactive)
REMARK    1  A    between atoms: S_1  and  C_2 
ROOT
HETATM    1  C   UNK N   1      23.936  12.890   9.740  0.00  0.00     0.066 A 
HETATM    2  C   UNK N   1      22.541  12.875   9.666  0.00  0.00     0.037 A 
HETATM    3  C   UNK N   1      21.805  12.411  10.755  0.00  0.00     0.004 A 
HETATM    4  C   UNK N   1      22.467  11.969  11.901  0.00  0.00     0.017 A 
HETATM    5  C   UNK N   1      23.863  11.998  11.939  0.00  0.00     0.089 A 
HETATM    6  N   UNK N   1      24.565  12.455  10.866  0.00  0.00    -0.361 N 
ATOM      7  HN  UNK N   1      25.584  12.470  10.908  1.00  0.00     0.165 HD
ENDROOT
BRANCH   1   8
HETATM    8  S   UNK N   1      24.890  13.481   8.355  0.00  0.00    -0.126 SA
HETATM    9  H   UNK N   1      24.991  14.816   8.119  0.00  0.00     0.108 HD
ENDBRANCH   1   8
TORSDOF 1
ENDMDL
MODEL 2
REMARK VINA RESULT:      -3.4     19.954     20.564
REMARK  1 active torsions:
REMARK  status: ('A' for Active; 'I' for Inactive)
REMARK    1  A    between atoms: S_1  and  C_2 
ROOT
HETATM    1  C   UNK N   1      25.858  25.315  -5.042  0.00  0.00     0.066 A 
HETATM    2  C   UNK N   1      25.160  26.307  -5.733  0.00  0.00     0.037 A 
HETATM    3  C   UNK N   1      25.038  27.576  -5.169  0.00  0.00     0.004 A 
HETATM    4  C   UNK N   1      25.614  27.838  -3.924  0.00  0.00     0.017 A 
HETATM    5  C   UNK N   1      26.304  26.821  -3.262  0.00  0.00     0.089 A 
HETATM    6  N   UNK N   1      26.412  25.588  -3.829  0.00  0.00    -0.361 N 
ATOM      7  HN  UNK N   1      26.920  24.854  -3.334  1.00  0.00     0.165 HD
ENDROOT
BRANCH   1   8
HETATM    8  S   UNK N   1      26.021  23.688  -5.752  0.00  0.00    -0.126 SA
HETATM    9  H   UNK N   1      25.579  22.599  -5.067  0.00  0.00     0.108 HD
ENDBRANCH   1   8
TORSDOF 1
ENDMDL
MODEL 3
REMARK VINA RESULT:      -3.3      1.943      2.477
REMARK  1 active torsions:
REMARK  status: ('A' for Active; 'I' for Inactive)
REMARK    1  A    between atoms: S_1  and  C_2 
ROOT
HETATM    1  C   UNK N   1      22.223  13.346   9.820  0.00  0.00     0.066 A 
HETATM    2  C   UNK N   1      22.122  12.549  10.962  0.00  0.00     0.037 A 
HETATM    3  C   UNK N   1      23.263  11.920  11.458  0.00  0.00     0.004 A 
HETATM    4  C   UNK N   1      24.487  12.094  10.810  0.00  0.00     0.017 A 
HETATM    5  C   UNK N   1      24.549  12.899   9.670  0.00  0.00     0.089 A 
HETATM    6  N   UNK N   1      23.425  13.505   9.201  0.00  0.00    -0.361 N 
ATOM      7  HN  UNK N   1      23.484  14.090   8.367  1.00  0.00     0.165 HD
ENDROOT
BRANCH   1   8
HETATM    8  S   UNK N   1      20.771  14.157   9.175  0.00  0.00    -0.126 SA
HETATM    9  H   UNK N   1      20.372  13.920   7.897  0.00  0.00     0.108 HD
ENDBRANCH   1   8
TORSDOF 1
ENDMDL
MODEL 4
REMARK VINA RESULT:      -3.2      2.206      2.930
REMARK  1 active torsions:
REMARK  status: ('A' for Active; 'I' for Inactive)
REMARK    1  A    between atoms: S_1  and  C_2 
ROOT
HETATM    1  C   UNK N   1      23.651  12.135  11.170  0.00  0.00     0.066 A 
HETATM    2  C   UNK N   1      22.830  11.554  10.201  0.00  0.00     0.037 A 
HETATM    3  C   UNK N   1      23.106  11.775   8.852  0.00  0.00     0.004 A 
HETATM    4  C   UNK N   1      24.194  12.571   8.489  0.00  0.00     0.017 A 
HETATM    5  C   UNK N   1      24.992  13.134   9.487  0.00  0.00     0.089 A 
HETATM    6  N   UNK N   1      24.708  12.908  10.798  0.00  0.00    -0.361 N 
ATOM      7  HN  UNK N   1      25.300  13.326  11.516  1.00  0.00     0.165 HD
ENDROOT
BRANCH   1   8
HETATM    8  S   UNK N   1      23.310  11.860  12.899  0.00  0.00    -0.126 SA
HETATM    9  H   UNK N   1      23.709  10.706  13.495  0.00  0.00     0.108 HD
ENDBRANCH   1   8
TORSDOF 1
ENDMDL
MODEL 5
REMARK VINA RESULT:      -3.2     10.530     11.546
REMARK  1 active torsions:
REMARK  status: ('A' for Active; 'I' for Inactive)
REMARK    1  A    between atoms: S_1  and  C_2 
ROOT
HETATM    1  C   UNK N   1      34.249  16.831   9.443  0.00  0.00     0.066 A 
HETATM    2  C   UNK N   1      34.532  17.789   8.468  0.00  0.00     0.037 A 
HETATM    3  C   UNK N   1      33.580  18.069   7.488  0.00  0.00     0.004 A 
HETATM    4  C   UNK N   1      32.361  17.390   7.494  0.00  0.00     0.017 A 
HETATM    5  C   UNK N   1      32.113  16.438   8.485  0.00  0.00     0.089 A 
HETATM    6  N   UNK N   1      33.054  16.178   9.433  0.00  0.00    -0.361 N 
ATOM      7  HN  UNK N   1      32.859  15.480  10.151  1.00  0.00     0.165 HD
ENDROOT
BRANCH   1   8
HETATM    8  S   UNK N   1      35.457  16.463  10.702  0.00  0.00    -0.126 SA
HETATM    9  H   UNK N   1      35.568  15.199  11.189  0.00  0.00     0.108 HD
ENDBRANCH   1   8
TORSDOF 1
ENDMDL
MODEL 6
REMARK VINA RESULT:      -3.2     19.614     20.471
REMARK  1 active torsions:
REMARK  status: ('A' for Active; 'I' for Inactive)
REMARK    1  A    between atoms: S_1  and  C_2 
ROOT
HETATM    1  C   UNK N   1      26.442  25.486  -3.976  0.00  0.00     0.066 A 
HETATM    2  C   UNK N   1      26.353  26.724  -3.336  0.00  0.00     0.037 A 
HETATM    3  C   UNK N   1      25.640  27.757  -3.943  0.00  0.00     0.004 A 
HETATM    4  C   UNK N   1      25.027  27.542  -5.178  0.00  0.00     0.017 A 
HETATM    5  C   UNK N   1      25.138  26.291  -5.788  0.00  0.00     0.089 A 
HETATM    6  N   UNK N   1      25.837  25.295  -5.181  0.00  0.00    -0.361 N 
ATOM      7  HN  UNK N   1      25.910  24.385  -5.638  1.00  0.00     0.165 HD
ENDROOT
BRANCH   1   8
HETATM    8  S   UNK N   1      27.350  24.156  -3.210  0.00  0.00    -0.126 SA
HETATM    9  H   UNK N   1      26.895  22.879  -3.306  0.00  0.00     0.108 HD
ENDBRANCH   1   8
TORSDOF 1
ENDMDL
MODEL 7
REMARK VINA RESULT:      -3.1      8.773      9.604
REMARK  1 active torsions:
REMARK  status: ('A' for Active; 'I' for Inactive)
REMARK    1  A    between atoms: S_1  and  C_2 
ROOT
HETATM    1  C   UNK N   1      28.107  18.680   6.399  0.00  0.00     0.066 A 
HETATM    2  C   UNK N   1      28.218  18.953   5.034  0.00  0.00     0.037 A 
HETATM    3  C   UNK N   1      27.669  20.130   4.526  0.00  0.00     0.004 A 
HETATM    4  C   UNK N   1      27.019  21.018   5.384  0.00  0.00     0.017 A 
HETATM    5  C   UNK N   1      26.927  20.711   6.744  0.00  0.00     0.089 A 
HETATM    6  N   UNK N   1      27.468  19.558   7.222  0.00  0.00    -0.361 N 
ATOM      7  HN  UNK N   1      27.394  19.346   8.217  1.00  0.00     0.165 HD
ENDROOT
BRANCH   1   8
HETATM    8  S   UNK N   1      28.803  17.179   7.062  0.00  0.00    -0.126 SA
HETATM    9  H   UNK N   1      28.644  16.879   8.378  0.00  0.00     0.108 HD
ENDBRANCH   1   8
TORSDOF 1
ENDMDL
MODEL 8
REMARK VINA RESULT:      -3.1     20.003     20.867
REMARK  1 active torsions:
REMARK  status: ('A' for Active; 'I' for Inactive)
REMARK    1  A    between atoms: S_1  and  C_2 
ROOT
HETATM    1  C   UNK N   1      26.119  27.614  -4.197  0.00  0.00     0.066 A 
HETATM    2  C   UNK N   1      25.376  27.437  -5.367  0.00  0.00     0.037 A 
HETATM    3  C   UNK N   1      25.145  26.146  -5.840  0.00  0.00     0.004 A 
HETATM    4  C   UNK N   1      25.656  25.051  -5.141  0.00  0.00     0.017 A 
HETATM    5  C   UNK N   1      26.393  25.267  -3.975  0.00  0.00     0.089 A 
HETATM    6  N   UNK N   1      26.609  26.534  -3.529  0.00  0.00    -0.361 N 
ATOM      7  HN  UNK N   1      27.150  26.677  -2.675  1.00  0.00     0.165 HD
ENDROOT
BRANCH   1   8
HETATM    8  S   UNK N   1      26.422  29.259  -3.581  0.00  0.00    -0.126 SA
HETATM    9  H   UNK N   1      26.379  30.322  -4.428  0.00  0.00     0.108 HD
ENDBRANCH   1   8
TORSDOF 1
ENDMDL
MODEL 9
REMARK VINA RESULT:      -3.1      8.196      8.679
REMARK  1 active torsions:
REMARK  status: ('A' for Active; 'I' for Inactive)
REMARK    1  A    between atoms: S_1  and  C_2 
ROOT
HETATM    1  C   UNK N   1      30.813  17.570   8.050  0.00  0.00     0.066 A 
HETATM    2  C   UNK N   1      29.657  17.184   7.367  0.00  0.00     0.037 A 
HETATM    3  C   UNK N   1      28.410  17.463   7.924  0.00  0.00     0.004 A 
HETATM    4  C   UNK N   1      28.332  18.121   9.152  0.00  0.00     0.017 A 
HETATM    5  C   UNK N   1      29.509  18.491   9.806  0.00  0.00     0.089 A 
HETATM    6  N   UNK N   1      30.717  18.211   9.247  0.00  0.00    -0.361 N 
ATOM      7  HN  UNK N   1      31.570  18.487   9.736  1.00  0.00     0.165 HD
ENDROOT
BRANCH   1   8
HETATM    8  S   UNK N   1      32.415  17.220   7.349  0.00  0.00    -0.126 SA
HETATM    9  H   UNK N   1      32.532  16.948   6.022  0.00  0.00     0.108 HD
ENDBRANCH   1   8
TORSDOF 1
ENDMDL
