REMARK  8 active torsions:
REMARK  status: ('A' for Active; 'I' for Inactive)
REMARK    1  A    between atoms: C_9  and  C_5 
REMARK    2  A    between atoms: O_21  and  C_5 
REMARK    3  A    between atoms: C_10  and  O_16 
REMARK    4  A    between atoms: C_11  and  O_17 
REMARK    5  A    between atoms: C_12  and  N_15 
REMARK    6  A    between atoms: P_23  and  O_18 
REMARK    7  A    between atoms: P_23  and  O_19 
REMARK    8  A    between atoms: P_23  and  O_21 
ROOT
HETATM    1  C   UNK N   1       0.625   4.704  -0.403  0.00  0.00     0.180 C 
HETATM    2  C   UNK N   1      -0.501   4.615   0.632  0.00  0.00     0.182 C 
HETATM    3  C   UNK N   1      -1.155   3.290   0.338  0.00  0.00     0.198 C 
HETATM    4  C   UNK N   1      -0.190   2.571  -0.609  0.00  0.00     0.261 C 
HETATM    5  O   UNK N   1       0.605   3.557  -1.235  0.00  0.00    -0.353 OA
ENDROOT
BRANCH   4   6
HETATM    6  N   UNK N   1       0.625   1.507   0.011  0.00  0.00    -0.311 N 
HETATM    7  C   UNK N   1       0.101   0.400   0.606  0.00  0.00     0.186 A 
HETATM    8  N   UNK N   1       1.070  -0.447   1.037  0.00  0.00    -0.350 N 
HETATM    9  C   UNK N   1       2.223   0.150   0.687  0.00  0.00     0.060 A 
ATOM     10  HN  UNK N   1       0.950  -1.338   1.518  1.00  0.00     0.166 HD
HETATM   11  C   UNK N   1       3.515  -0.319   0.891  0.00  0.00     0.032 A 
HETATM   12  C   UNK N   1       1.958   1.329   0.060  0.00  0.00     0.064 A 
HETATM   13  C   UNK N   1       4.576   0.478   0.422  0.00  0.00     0.002 A 
HETATM   14  C   UNK N   1       4.312   1.699  -0.240  0.00  0.00     0.002 A 
HETATM   15  C   UNK N   1       2.987   2.132  -0.434  0.00  0.00     0.032 A 
ENDBRANCH   4   6
BRANCH   3  16
HETATM   16  O   UNK N   1      -1.462   2.580   1.503  0.00  0.00    -0.388 OA
HETATM   17  H   UNK N   1      -1.995   2.518   2.311  0.00  0.00     0.210 HD
ENDBRANCH   3  16
BRANCH   2  18
HETATM   18  O   UNK N   1      -1.425   5.652   0.448  0.00  0.00    -0.390 OA
HETATM   19  H   UNK N   1      -1.123   6.565   0.321  0.00  0.00     0.210 HD
ENDBRANCH   2  18
BRANCH   1  20
HETATM   20  C   UNK N   1       1.995   4.797   0.271  0.00  0.00     0.215 C 
BRANCH  20  21
HETATM   21  O   UNK N   1       2.145   5.972   1.016  0.00  0.00    -0.294 OA
BRANCH  21  22
HETATM   22  P   UNK N   1       3.048   7.046  -0.015  0.00  0.00     0.390 P 
HETATM   23  O   UNK N   1       2.070   8.015   0.701  0.00  0.00    -0.632 OA
BRANCH  22  24
HETATM   24  O   UNK N   1       4.111   8.250   0.640  0.00  0.00    -0.307 OA
HETATM   25  H   UNK N   1       4.991   8.072   1.006  0.00  0.00     0.222 HD
ENDBRANCH  22  24
BRANCH  22  26
HETATM   26  O   UNK N   1       4.140   6.362   1.154  0.00  0.00    -0.307 OA
HETATM   27  H   UNK N   1       4.114   5.645   1.805  0.00  0.00     0.222 HD
ENDBRANCH  22  26
ENDBRANCH  21  22
ENDBRANCH  20  21
ENDBRANCH   1  20
TORSDOF 8
