MODEL 1
REMARK VINA RESULT:      -4.7      0.000      0.000
REMARK  5 active torsions:
REMARK  status: ('A' for Active; 'I' for Inactive)
REMARK    1  A    between atoms: O_1  and  C_2 
REMARK    2  A    between atoms: C_3  and  C_2 
REMARK    3  A    between atoms: C_5  and  O_6 
REMARK    4  A    between atoms: C_7  and  O_8 
REMARK    5  A    between atoms: C_9  and  O_10 
ROOT
HETATM    1  C   UNK N   1      20.530  18.945   3.611  0.00  0.00     0.179 C 
HETATM    2  O   UNK N   1      21.624  19.829   3.733  0.00  0.00    -0.349 OA
HETATM    3  C   UNK N   1      21.779  20.429   2.466  0.00  0.00     0.288 C 
HETATM    4  C   UNK N   1      20.533  20.139   1.670  0.00  0.00     0.204 C 
HETATM    5  C   UNK N   1      20.267  18.756   2.134  0.00  0.00     0.182 C 
ENDROOT
BRANCH   1   6
HETATM    6  C   UNK N   1      20.837  17.622   4.293  0.00  0.00     0.198 C 
BRANCH   6   7
HETATM    7  O   UNK N   1      19.741  16.764   4.202  0.00  0.00    -0.398 OA
HETATM    8  H   UNK N   1      18.864  16.986   4.552  0.00  0.00     0.209 HD
ENDBRANCH   6   7
ENDBRANCH   1   6
BRANCH   5   9
HETATM    9  O   UNK N   1      18.944  18.388   1.890  0.00  0.00    -0.390 OA
HETATM   10  H   UNK N   1      18.429  17.680   2.308  0.00  0.00     0.210 HD
ENDBRANCH   5   9
BRANCH   3  11
HETATM   11  O   UNK N   1      21.942  21.808   2.600  0.00  0.00    -0.369 OA
HETATM   12  H   UNK N   1      22.214  22.450   1.924  0.00  0.00     0.212 HD
ENDBRANCH   3  11
BRANCH   4  13
HETATM   13  O   UNK N   1      20.783  20.183   0.299  0.00  0.00    -0.388 OA
HETATM   14  H   UNK N   1      20.977  19.448  -0.304  0.00  0.00     0.210 HD
ENDBRANCH   4  13
TORSDOF 5
ENDMDL
MODEL 2
REMARK VINA RESULT:      -4.5     14.962     16.251
REMARK  5 active torsions:
REMARK  status: ('A' for Active; 'I' for Inactive)
REMARK    1  A    between atoms: O_1  and  C_2 
REMARK    2  A    between atoms: C_3  and  C_2 
REMARK    3  A    between atoms: C_5  and  O_6 
REMARK    4  A    between atoms: C_7  and  O_8 
REMARK    5  A    between atoms: C_9  and  O_10 
ROOT
HETATM    1  C   UNK N   1      34.840  17.020   8.876  0.00  0.00     0.179 C 
HETATM    2  O   UNK N   1      35.666  17.361   9.969  0.00  0.00    -0.349 OA
HETATM    3  C   UNK N   1      35.306  16.484  11.014  0.00  0.00     0.288 C 
HETATM    4  C   UNK N   1      34.478  15.377  10.414  0.00  0.00     0.204 C 
HETATM    5  C   UNK N   1      33.716  16.162   9.413  0.00  0.00     0.182 C 
ENDROOT
BRANCH   1   6
HETATM    6  C   UNK N   1      34.308  18.273   8.202  0.00  0.00     0.198 C 
BRANCH   6   7
HETATM    7  O   UNK N   1      35.153  19.354   8.450  0.00  0.00    -0.398 OA
HETATM    8  H   UNK N   1      36.117  19.267   8.521  0.00  0.00     0.209 HD
ENDBRANCH   6   7
ENDBRANCH   1   6
BRANCH   5   9
HETATM    9  O   UNK N   1      33.184  15.335   8.423  0.00  0.00    -0.390 OA
HETATM   10  H   UNK N   1      33.088  14.370   8.431  0.00  0.00     0.210 HD
ENDBRANCH   5   9
BRANCH   3  11
HETATM   11  O   UNK N   1      36.446  15.949  11.613  0.00  0.00    -0.369 OA
HETATM   12  H   UNK N   1      37.374  16.192  11.465  0.00  0.00     0.212 HD
ENDBRANCH   3  11
BRANCH   4  13
HETATM   13  O   UNK N   1      33.636  14.800  11.364  0.00  0.00    -0.388 OA
HETATM   14  H   UNK N   1      33.320  13.884  11.414  0.00  0.00     0.210 HD
ENDBRANCH   4  13
TORSDOF 5
ENDMDL
MODEL 3
REMARK VINA RESULT:      -4.5     13.819     14.724
REMARK  5 active torsions:
REMARK  status: ('A' for Active; 'I' for Inactive)
REMARK    1  A    between atoms: O_1  and  C_2 
REMARK    2  A    between atoms: C_3  and  C_2 
REMARK    3  A    between atoms: C_5  and  O_6 
REMARK    4  A    between atoms: C_7  and  O_8 
REMARK    5  A    between atoms: C_9  and  O_10 
ROOT
HETATM    1  C   UNK N   1      33.483  15.944   8.676  0.00  0.00     0.179 C 
HETATM    2  O   UNK N   1      33.106  16.278   7.357  0.00  0.00    -0.349 OA
HETATM    3  C   UNK N   1      33.655  17.554   7.110  0.00  0.00     0.288 C 
HETATM    4  C   UNK N   1      34.662  17.834   8.195  0.00  0.00     0.204 C 
HETATM    5  C   UNK N   1      33.957  17.215   9.343  0.00  0.00     0.182 C 
ENDROOT
BRANCH   1   6
HETATM    6  C   UNK N   1      32.311  15.330   9.424  0.00  0.00     0.198 C 
BRANCH   6   7
HETATM    7  O   UNK N   1      32.661  15.077  10.751  0.00  0.00    -0.398 OA
HETATM    8  H   UNK N   1      33.496  14.656  11.007  0.00  0.00     0.209 HD
ENDBRANCH   6   7
ENDBRANCH   1   6
BRANCH   5   9
HETATM    9  O   UNK N   1      34.839  16.947  10.391  0.00  0.00    -0.390 OA
HETATM   10  H   UNK N   1      35.560  16.299  10.421  0.00  0.00     0.210 HD
ENDBRANCH   5   9
BRANCH   3  11
HETATM   11  O   UNK N   1      34.283  17.579   5.865  0.00  0.00    -0.369 OA
HETATM   12  H   UNK N   1      34.011  17.136   5.045  0.00  0.00     0.212 HD
ENDBRANCH   3  11
BRANCH   4  13
HETATM   13  O   UNK N   1      34.843  19.204   8.380  0.00  0.00    -0.388 OA
HETATM   14  H   UNK N   1      35.295  19.662   9.106  0.00  0.00     0.210 HD
ENDBRANCH   4  13
TORSDOF 5
ENDMDL
MODEL 4
REMARK VINA RESULT:      -4.4     14.388     15.735
REMARK  5 active torsions:
REMARK  status: ('A' for Active; 'I' for Inactive)
REMARK    1  A    between atoms: O_1  and  C_2 
REMARK    2  A    between atoms: C_3  and  C_2 
REMARK    3  A    between atoms: C_5  and  O_6 
REMARK    4  A    between atoms: C_7  and  O_8 
REMARK    5  A    between atoms: C_9  and  O_10 
ROOT
HETATM    1  C   UNK N   1      33.481  17.170   8.594  0.00  0.00     0.179 C 
HETATM    2  O   UNK N   1      33.125  15.905   9.111  0.00  0.00    -0.349 OA
HETATM    3  C   UNK N   1      34.159  15.547  10.001  0.00  0.00     0.288 C 
HETATM    4  C   UNK N   1      34.979  16.783  10.267  0.00  0.00     0.204 C 
HETATM    5  C   UNK N   1      34.941  17.392   8.916  0.00  0.00     0.182 C 
ENDROOT
BRANCH   1   6
HETATM    6  C   UNK N   1      33.229  17.221   7.096  0.00  0.00     0.198 C 
BRANCH   6   7
HETATM    7  O   UNK N   1      34.281  17.871   6.449  0.00  0.00    -0.398 OA
HETATM    8  H   UNK N   1      35.082  18.169   6.908  0.00  0.00     0.209 HD
ENDBRANCH   6   7
ENDBRANCH   1   6
BRANCH   5   9
HETATM    9  O   UNK N   1      35.255  18.750   8.966  0.00  0.00    -0.390 OA
HETATM   10  H   UNK N   1      34.661  19.511   8.863  0.00  0.00     0.210 HD
ENDBRANCH   5   9
BRANCH   3  11
HETATM   11  O   UNK N   1      33.625  15.068  11.197  0.00  0.00    -0.369 OA
HETATM   12  H   UNK N   1      32.692  15.000  11.455  0.00  0.00     0.212 HD
ENDBRANCH   3  11
BRANCH   4  13
HETATM   13  O   UNK N   1      36.281  16.458  10.648  0.00  0.00    -0.388 OA
HETATM   14  H   UNK N   1      36.776  16.760  11.425  0.00  0.00     0.210 HD
ENDBRANCH   4  13
TORSDOF 5
ENDMDL
MODEL 5
REMARK VINA RESULT:      -4.4      0.963      2.431
REMARK  5 active torsions:
REMARK  status: ('A' for Active; 'I' for Inactive)
REMARK    1  A    between atoms: O_1  and  C_2 
REMARK    2  A    between atoms: C_3  and  C_2 
REMARK    3  A    between atoms: C_5  and  O_6 
REMARK    4  A    between atoms: C_7  and  O_8 
REMARK    5  A    between atoms: C_9  and  O_10 
ROOT
HETATM    1  C   UNK N   1      21.075  18.187   2.776  0.00  0.00     0.179 C 
HETATM    2  O   UNK N   1      20.282  18.637   1.698  0.00  0.00    -0.349 OA
HETATM    3  C   UNK N   1      20.581  20.007   1.545  0.00  0.00     0.288 C 
HETATM    4  C   UNK N   1      21.831  20.292   2.338  0.00  0.00     0.204 C 
HETATM    5  C   UNK N   1      21.581  19.411   3.504  0.00  0.00     0.182 C 
ENDROOT
BRANCH   1   6
HETATM    6  C   UNK N   1      20.262  17.291   3.695  0.00  0.00     0.198 C 
BRANCH   6   7
HETATM    7  O   UNK N   1      18.903  17.397   3.399  0.00  0.00    -0.398 OA
HETATM    8  H   UNK N   1      18.362  18.160   3.660  0.00  0.00     0.209 HD
ENDBRANCH   6   7
ENDBRANCH   1   6
BRANCH   5   9
HETATM    9  O   UNK N   1      22.762  19.146   4.197  0.00  0.00    -0.390 OA
HETATM   10  H   UNK N   1      23.620  19.592   4.120  0.00  0.00     0.210 HD
ENDBRANCH   5   9
BRANCH   3  11
HETATM   11  O   UNK N   1      20.797  20.309   0.200  0.00  0.00    -0.369 OA
HETATM   12  H   UNK N   1      21.482  19.959  -0.392  0.00  0.00     0.212 HD
ENDBRANCH   3  11
BRANCH   4  13
HETATM   13  O   UNK N   1      21.901  21.634   2.712  0.00  0.00    -0.388 OA
HETATM   14  H   UNK N   1      22.588  22.081   3.230  0.00  0.00     0.210 HD
ENDBRANCH   4  13
TORSDOF 5
ENDMDL
MODEL 6
REMARK VINA RESULT:      -4.4      1.065      3.380
REMARK  5 active torsions:
REMARK  status: ('A' for Active; 'I' for Inactive)
REMARK    1  A    between atoms: O_1  and  C_2 
REMARK    2  A    between atoms: C_3  and  C_2 
REMARK    3  A    between atoms: C_5  and  O_6 
REMARK    4  A    between atoms: C_7  and  O_8 
REMARK    5  A    between atoms: C_9  and  O_10 
ROOT
HETATM    1  C   UNK N   1      21.079  19.697   2.068  0.00  0.00     0.179 C 
HETATM    2  O   UNK N   1      21.352  20.030   3.413  0.00  0.00    -0.349 OA
HETATM    3  C   UNK N   1      20.682  19.065   4.194  0.00  0.00     0.288 C 
HETATM    4  C   UNK N   1      20.278  17.939   3.278  0.00  0.00     0.204 C 
HETATM    5  C   UNK N   1      19.920  18.726   2.073  0.00  0.00     0.182 C 
ENDROOT
BRANCH   1   6
HETATM    6  C   UNK N   1      20.751  20.947   1.268  0.00  0.00     0.198 C 
BRANCH   6   7
HETATM    7  O   UNK N   1      20.614  20.634  -0.085  0.00  0.00    -0.398 OA
HETATM    8  H   UNK N   1      20.240  19.796  -0.399  0.00  0.00     0.209 HD
ENDBRANCH   6   7
ENDBRANCH   1   6
BRANCH   5   9
HETATM    9  O   UNK N   1      19.918  17.925   0.930  0.00  0.00    -0.390 OA
HETATM   10  H   UNK N   1      19.921  16.956   0.873  0.00  0.00     0.210 HD
ENDBRANCH   5   9
BRANCH   3  11
HETATM   11  O   UNK N   1      21.525  18.581   5.194  0.00  0.00    -0.369 OA
HETATM   12  H   UNK N   1      21.557  18.838   6.129  0.00  0.00     0.212 HD
ENDBRANCH   3  11
BRANCH   4  13
HETATM   13  O   UNK N   1      19.181  17.241   3.781  0.00  0.00    -0.388 OA
HETATM   14  H   UNK N   1      18.285  17.178   3.415  0.00  0.00     0.210 HD
ENDBRANCH   4  13
TORSDOF 5
ENDMDL
MODEL 7
REMARK VINA RESULT:      -4.3     21.848     23.342
REMARK  5 active torsions:
REMARK  status: ('A' for Active; 'I' for Inactive)
REMARK    1  A    between atoms: O_1  and  C_2 
REMARK    2  A    between atoms: C_3  and  C_2 
REMARK    3  A    between atoms: C_5  and  O_6 
REMARK    4  A    between atoms: C_7  and  O_8 
REMARK    5  A    between atoms: C_9  and  O_10 
ROOT
HETATM    1  C   UNK N   1      42.661  22.333   2.700  0.00  0.00     0.179 C 
HETATM    2  O   UNK N   1      43.140  21.091   2.230  0.00  0.00    -0.349 OA
HETATM    3  C   UNK N   1      44.407  20.916   2.825  0.00  0.00     0.288 C 
HETATM    4  C   UNK N   1      44.532  21.926   3.937  0.00  0.00     0.204 C 
HETATM    5  C   UNK N   1      43.837  23.071   3.300  0.00  0.00     0.182 C 
ENDROOT
BRANCH   1   6
HETATM    6  C   UNK N   1      42.032  23.123   1.565  0.00  0.00     0.198 C 
BRANCH   6   7
HETATM    7  O   UNK N   1      41.212  24.132   2.071  0.00  0.00    -0.398 OA
HETATM    8  H   UNK N   1      40.982  24.930   1.570  0.00  0.00     0.209 HD
ENDBRANCH   6   7
ENDBRANCH   1   6
BRANCH   5   9
HETATM    9  O   UNK N   1      43.425  24.004   4.252  0.00  0.00    -0.390 OA
HETATM   10  H   UNK N   1      43.748  24.122   5.159  0.00  0.00     0.210 HD
ENDBRANCH   5   9
BRANCH   3  11
HETATM   11  O   UNK N   1      44.526  19.627   3.344  0.00  0.00    -0.369 OA
HETATM   12  H   UNK N   1      44.058  19.238   4.101  0.00  0.00     0.212 HD
ENDBRANCH   3  11
BRANCH   4  13
HETATM   13  O   UNK N   1      45.867  22.222   4.208  0.00  0.00    -0.388 OA
HETATM   14  H   UNK N   1      46.486  21.749   4.786  0.00  0.00     0.210 HD
ENDBRANCH   4  13
TORSDOF 5
ENDMDL
MODEL 8
REMARK VINA RESULT:      -4.2     14.935     16.006
REMARK  5 active torsions:
REMARK  status: ('A' for Active; 'I' for Inactive)
REMARK    1  A    between atoms: O_1  and  C_2 
REMARK    2  A    between atoms: C_3  and  C_2 
REMARK    3  A    between atoms: C_5  and  O_6 
REMARK    4  A    between atoms: C_7  and  O_8 
REMARK    5  A    between atoms: C_9  and  O_10 
ROOT
HETATM    1  C   UNK N   1      34.963  16.460  10.818  0.00  0.00     0.179 C 
HETATM    2  O   UNK N   1      35.494  17.431   9.942  0.00  0.00    -0.349 OA
HETATM    3  C   UNK N   1      34.677  17.401   8.793  0.00  0.00     0.288 C 
HETATM    4  C   UNK N   1      33.432  16.626   9.138  0.00  0.00     0.204 C 
HETATM    5  C   UNK N   1      34.031  15.586  10.010  0.00  0.00     0.182 C 
ENDROOT
BRANCH   1   6
HETATM    6  C   UNK N   1      36.081  15.645  11.447  0.00  0.00     0.198 C 
BRANCH   6   7
HETATM    7  O   UNK N   1      37.261  15.795  10.718  0.00  0.00    -0.398 OA
HETATM    8  H   UNK N   1      37.975  15.138  10.726  0.00  0.00     0.209 HD
ENDBRANCH   6   7
ENDBRANCH   1   6
BRANCH   5   9
HETATM    9  O   UNK N   1      33.063  14.985  10.815  0.00  0.00    -0.390 OA
HETATM   10  H   UNK N   1      32.814  15.208  11.726  0.00  0.00     0.210 HD
ENDBRANCH   5   9
BRANCH   3  11
HETATM   11  O   UNK N   1      34.334  18.697   8.408  0.00  0.00    -0.369 OA
HETATM   12  H   UNK N   1      34.878  19.348   7.935  0.00  0.00     0.212 HD
ENDBRANCH   3  11
BRANCH   4  13
HETATM   13  O   UNK N   1      32.846  16.070   8.002  0.00  0.00    -0.388 OA
HETATM   14  H   UNK N   1      32.594  16.509   7.175  0.00  0.00     0.210 HD
ENDBRANCH   4  13
TORSDOF 5
ENDMDL
MODEL 9
REMARK VINA RESULT:      -4.2     13.652     14.736
REMARK  5 active torsions:
REMARK  status: ('A' for Active; 'I' for Inactive)
REMARK    1  A    between atoms: O_1  and  C_2 
REMARK    2  A    between atoms: C_3  and  C_2 
REMARK    3  A    between atoms: C_5  and  O_6 
REMARK    4  A    between atoms: C_7  and  O_8 
REMARK    5  A    between atoms: C_9  and  O_10 
ROOT
HETATM    1  C   UNK N   1      34.309  16.759   6.611  0.00  0.00     0.179 C 
HETATM    2  O   UNK N   1      34.377  18.159   6.788  0.00  0.00    -0.349 OA
HETATM    3  C   UNK N   1      34.397  18.370   8.183  0.00  0.00     0.288 C 
HETATM    4  C   UNK N   1      34.686  17.046   8.841  0.00  0.00     0.204 C 
HETATM    5  C   UNK N   1      33.913  16.157   7.940  0.00  0.00     0.182 C 
ENDROOT
BRANCH   1   6
HETATM    6  C   UNK N   1      33.308  16.410   5.523  0.00  0.00     0.198 C 
BRANCH   6   7
HETATM    7  O   UNK N   1      32.010  16.698   5.947  0.00  0.00    -0.398 OA
HETATM    8  H   UNK N   1      31.219  16.395   5.475  0.00  0.00     0.209 HD
ENDBRANCH   6   7
ENDBRANCH   1   6
BRANCH   5   9
HETATM    9  O   UNK N   1      34.339  14.833   8.051  0.00  0.00    -0.390 OA
HETATM   10  H   UNK N   1      33.952  14.117   8.579  0.00  0.00     0.210 HD
ENDBRANCH   5   9
BRANCH   3  11
HETATM   11  O   UNK N   1      35.390  19.290   8.519  0.00  0.00    -0.369 OA
HETATM   12  H   UNK N   1      36.352  19.160   8.530  0.00  0.00     0.212 HD
ENDBRANCH   3  11
BRANCH   4  13
HETATM   13  O   UNK N   1      34.196  17.008  10.146  0.00  0.00    -0.388 OA
HETATM   14  H   UNK N   1      34.689  17.063  10.979  0.00  0.00     0.210 HD
ENDBRANCH   4  13
TORSDOF 5
ENDMDL
