MODEL 1
REMARK VINA RESULT:      -4.0      0.000      0.000
REMARK  8 active torsions:
REMARK  status: ('A' for Active; 'I' for Inactive)
REMARK    1  A    between atoms: C_2  and  C_3 
REMARK    2  A    between atoms: C_3  and  C_4 
REMARK    3  A    between atoms: C_4  and  C_5 
REMARK    4  A    between atoms: C_5  and  C_6 
REMARK    5  A    between atoms: C_6  and  C_7 
REMARK    6  A    between atoms: C_7  and  C_8 
REMARK    7  A    between atoms: C_8  and  C_9 
REMARK    8  A    between atoms: C_9  and  O_10 
ROOT
HETATM    1  C   UNK N   1      20.924  13.009  10.367  0.00  0.00     0.000 C 
ENDROOT
BRANCH   1   2
HETATM    2  C   UNK N   1      21.353  14.256   9.635  0.00  0.00     0.000 C 
BRANCH   2   3
HETATM    3  C   UNK N   1      20.128  15.007   9.172  0.00  0.00     0.000 C 
BRANCH   3   4
HETATM    4  C   UNK N   1      20.576  16.270   8.477  0.00  0.00    -0.000 C 
BRANCH   4   5
HETATM    5  C   UNK N   1      19.555  17.361   8.697  0.00  0.00    -0.005 C 
HETATM    6  C   UNK N   1      18.287  16.742   9.242  0.00  0.00     0.005 C 
ENDBRANCH   4   5
ENDBRANCH   3   4
ENDBRANCH   2   3
ENDBRANCH   1   2
BRANCH   1   7
HETATM    7  C   UNK N   1      22.141  12.161  10.654  0.00  0.00     0.002 C 
BRANCH   7   8
HETATM    8  C   UNK N   1      23.350  12.830  10.046  0.00  0.00     0.026 C 
BRANCH   8   9
HETATM    9  C   UNK N   1      24.598  12.076  10.439  0.00  0.00     0.164 C 
BRANCH   9  10
HETATM   10  O   UNK N   1      24.988  12.472  11.715  0.00  0.00    -0.401 OA
HETATM   11  H   UNK N   1      24.480  12.180  12.488  0.00  0.00     0.209 HD
ENDBRANCH   9  10
ENDBRANCH   8   9
ENDBRANCH   7   8
ENDBRANCH   1   7
TORSDOF 8
ENDMDL
MODEL 2
REMARK VINA RESULT:      -4.0      9.390     11.358
REMARK  8 active torsions:
REMARK  status: ('A' for Active; 'I' for Inactive)
REMARK    1  A    between atoms: C_2  and  C_3 
REMARK    2  A    between atoms: C_3  and  C_4 
REMARK    3  A    between atoms: C_4  and  C_5 
REMARK    4  A    between atoms: C_5  and  C_6 
REMARK    5  A    between atoms: C_6  and  C_7 
REMARK    6  A    between atoms: C_7  and  C_8 
REMARK    7  A    between atoms: C_8  and  C_9 
REMARK    8  A    between atoms: C_9  and  O_10 
ROOT
HETATM    1  C   UNK N   1      30.525  17.191   7.894  0.00  0.00     0.000 C 
ENDROOT
BRANCH   1   2
HETATM    2  C   UNK N   1      31.807  16.562   7.408  0.00  0.00     0.000 C 
BRANCH   2   3
HETATM    3  C   UNK N   1      32.904  17.600   7.418  0.00  0.00     0.000 C 
BRANCH   3   4
HETATM    4  C   UNK N   1      33.646  17.523   6.105  0.00  0.00    -0.000 C 
BRANCH   4   5
HETATM    5  C   UNK N   1      32.856  16.693   5.121  0.00  0.00    -0.005 C 
HETATM    6  C   UNK N   1      32.528  17.545   3.915  0.00  0.00     0.005 C 
ENDBRANCH   4   5
ENDBRANCH   3   4
ENDBRANCH   2   3
ENDBRANCH   1   2
BRANCH   1   7
HETATM    7  C   UNK N   1      30.857  18.337   8.821  0.00  0.00     0.002 C 
BRANCH   7   8
HETATM    8  C   UNK N   1      29.671  18.589   9.720  0.00  0.00     0.026 C 
BRANCH   8   9
HETATM    9  C   UNK N   1      28.600  17.559   9.447  0.00  0.00     0.164 C 
BRANCH   9  10
HETATM   10  O   UNK N   1      27.365  18.195   9.366  0.00  0.00    -0.401 OA
HETATM   11  H   UNK N   1      26.932  18.303   8.505  0.00  0.00     0.209 HD
ENDBRANCH   9  10
ENDBRANCH   8   9
ENDBRANCH   7   8
ENDBRANCH   1   7
TORSDOF 8
ENDMDL
MODEL 3
REMARK VINA RESULT:      -3.9      1.907      2.578
REMARK  8 active torsions:
REMARK  status: ('A' for Active; 'I' for Inactive)
REMARK    1  A    between atoms: C_2  and  C_3 
REMARK    2  A    between atoms: C_3  and  C_4 
REMARK    3  A    between atoms: C_4  and  C_5 
REMARK    4  A    between atoms: C_5  and  C_6 
REMARK    5  A    between atoms: C_6  and  C_7 
REMARK    6  A    between atoms: C_7  and  C_8 
REMARK    7  A    between atoms: C_8  and  C_9 
REMARK    8  A    between atoms: C_9  and  O_10 
ROOT
HETATM    1  C   UNK N   1      21.432  12.244  10.715  0.00  0.00     0.000 C 
ENDROOT
BRANCH   1   2
HETATM    2  C   UNK N   1      20.460  13.286  10.220  0.00  0.00     0.000 C 
BRANCH   2   3
HETATM    3  C   UNK N   1      21.226  14.395   9.538  0.00  0.00     0.000 C 
BRANCH   3   4
HETATM    4  C   UNK N   1      20.792  14.457   8.093  0.00  0.00    -0.000 C 
BRANCH   4   5
HETATM    5  C   UNK N   1      21.623  15.481   7.356  0.00  0.00    -0.005 C 
HETATM    6  C   UNK N   1      22.846  14.799   6.784  0.00  0.00     0.005 C 
ENDBRANCH   4   5
ENDBRANCH   3   4
ENDBRANCH   2   3
ENDBRANCH   1   2
BRANCH   1   7
HETATM    7  C   UNK N   1      22.840  12.770  10.563  0.00  0.00     0.002 C 
BRANCH   7   8
HETATM    8  C   UNK N   1      23.740  12.016  11.512  0.00  0.00     0.026 C 
BRANCH   8   9
HETATM    9  C   UNK N   1      23.039  11.832  12.838  0.00  0.00     0.164 C 
BRANCH   9  10
HETATM   10  O   UNK N   1      23.805  12.411  13.844  0.00  0.00    -0.401 OA
HETATM   11  H   UNK N   1      24.203  13.285  13.707  0.00  0.00     0.209 HD
ENDBRANCH   9  10
ENDBRANCH   8   9
ENDBRANCH   7   8
ENDBRANCH   1   7
TORSDOF 8
ENDMDL
MODEL 4
REMARK VINA RESULT:      -3.9      9.225     10.774
REMARK  8 active torsions:
REMARK  status: ('A' for Active; 'I' for Inactive)
REMARK    1  A    between atoms: C_2  and  C_3 
REMARK    2  A    between atoms: C_3  and  C_4 
REMARK    3  A    between atoms: C_4  and  C_5 
REMARK    4  A    between atoms: C_5  and  C_6 
REMARK    5  A    between atoms: C_6  and  C_7 
REMARK    6  A    between atoms: C_7  and  C_8 
REMARK    7  A    between atoms: C_8  and  C_9 
REMARK    8  A    between atoms: C_9  and  O_10 
ROOT
HETATM    1  C   UNK N   1      22.962  19.141   3.533  0.00  0.00     0.000 C 
ENDROOT
BRANCH   1   2
HETATM    2  C   UNK N   1      24.338  19.472   4.053  0.00  0.00     0.000 C 
BRANCH   2   3
HETATM    3  C   UNK N   1      25.183  20.001   2.919  0.00  0.00     0.000 C 
BRANCH   3   4
HETATM    4  C   UNK N   1      26.493  20.491   3.488  0.00  0.00    -0.000 C 
BRANCH   4   5
HETATM    5  C   UNK N   1      26.589  20.111   4.947  0.00  0.00    -0.005 C 
HETATM    6  C   UNK N   1      27.221  21.254   5.709  0.00  0.00     0.005 C 
ENDBRANCH   4   5
ENDBRANCH   3   4
ENDBRANCH   2   3
ENDBRANCH   1   2
BRANCH   1   7
HETATM    7  C   UNK N   1      22.385  20.358   2.849  0.00  0.00     0.002 C 
BRANCH   7   8
HETATM    8  C   UNK N   1      21.153  19.942   2.083  0.00  0.00     0.026 C 
BRANCH   8   9
HETATM    9  C   UNK N   1      20.723  21.065   1.167  0.00  0.00     0.164 C 
BRANCH   9  10
HETATM   10  O   UNK N   1      20.572  20.568  -0.124  0.00  0.00    -0.401 OA
HETATM   11  H   UNK N   1      19.989  19.810  -0.286  0.00  0.00     0.209 HD
ENDBRANCH   9  10
ENDBRANCH   8   9
ENDBRANCH   7   8
ENDBRANCH   1   7
TORSDOF 8
ENDMDL
MODEL 5
REMARK VINA RESULT:      -3.9     17.081     18.547
REMARK  8 active torsions:
REMARK  status: ('A' for Active; 'I' for Inactive)
REMARK    1  A    between atoms: C_2  and  C_3 
REMARK    2  A    between atoms: C_3  and  C_4 
REMARK    3  A    between atoms: C_4  and  C_5 
REMARK    4  A    between atoms: C_5  and  C_6 
REMARK    5  A    between atoms: C_6  and  C_7 
REMARK    6  A    between atoms: C_7  and  C_8 
REMARK    7  A    between atoms: C_8  and  C_9 
REMARK    8  A    between atoms: C_9  and  O_10 
ROOT
HETATM    1  C   UNK N   1      26.726  24.660  -3.797  0.00  0.00     0.000 C 
ENDROOT
BRANCH   1   2
HETATM    2  C   UNK N   1      27.223  26.084  -3.769  0.00  0.00     0.000 C 
BRANCH   2   3
HETATM    3  C   UNK N   1      26.055  27.014  -3.550  0.00  0.00     0.000 C 
BRANCH   3   4
HETATM    4  C   UNK N   1      25.833  27.809  -4.814  0.00  0.00    -0.000 C 
BRANCH   4   5
HETATM    5  C   UNK N   1      24.789  27.127  -5.668  0.00  0.00    -0.005 C 
HETATM    6  C   UNK N   1      25.469  26.504  -6.867  0.00  0.00     0.005 C 
ENDBRANCH   4   5
ENDBRANCH   3   4
ENDBRANCH   2   3
ENDBRANCH   1   2
BRANCH   1   7
HETATM    7  C   UNK N   1      27.522  23.838  -2.812  0.00  0.00     0.002 C 
BRANCH   7   8
HETATM    8  C   UNK N   1      28.977  23.879  -3.214  0.00  0.00     0.026 C 
BRANCH   8   9
HETATM    9  C   UNK N   1      29.700  22.691  -2.624  0.00  0.00     0.164 C 
BRANCH   9  10
HETATM   10  O   UNK N   1      30.385  23.094  -1.483  0.00  0.00    -0.401 OA
HETATM   11  H   UNK N   1      30.409  24.032  -1.238  0.00  0.00     0.209 HD
ENDBRANCH   9  10
ENDBRANCH   8   9
ENDBRANCH   7   8
ENDBRANCH   1   7
TORSDOF 8
ENDMDL
MODEL 6
REMARK VINA RESULT:      -3.9      8.000      8.785
REMARK  8 active torsions:
REMARK  status: ('A' for Active; 'I' for Inactive)
REMARK    1  A    between atoms: C_2  and  C_3 
REMARK    2  A    between atoms: C_3  and  C_4 
REMARK    3  A    between atoms: C_4  and  C_5 
REMARK    4  A    between atoms: C_5  and  C_6 
REMARK    5  A    between atoms: C_6  and  C_7 
REMARK    6  A    between atoms: C_7  and  C_8 
REMARK    7  A    between atoms: C_8  and  C_9 
REMARK    8  A    between atoms: C_9  and  O_10 
ROOT
HETATM    1  C   UNK N   1      27.388  17.859   5.656  0.00  0.00     0.000 C 
ENDROOT
BRANCH   1   2
HETATM    2  C   UNK N   1      27.443  18.475   4.280  0.00  0.00     0.000 C 
BRANCH   2   3
HETATM    3  C   UNK N   1      27.900  19.909   4.396  0.00  0.00     0.000 C 
BRANCH   3   4
HETATM    4  C   UNK N   1      26.748  20.738   4.911  0.00  0.00    -0.000 C 
BRANCH   4   5
HETATM    5  C   UNK N   1      27.202  21.563   6.093  0.00  0.00    -0.005 C 
HETATM    6  C   UNK N   1      26.336  21.225   7.286  0.00  0.00     0.005 C 
ENDBRANCH   4   5
ENDBRANCH   3   4
ENDBRANCH   2   3
ENDBRANCH   1   2
BRANCH   1   7
HETATM    7  C   UNK N   1      28.791  17.744   6.203  0.00  0.00     0.002 C 
BRANCH   7   8
HETATM    8  C   UNK N   1      28.829  18.381   7.571  0.00  0.00     0.026 C 
BRANCH   8   9
HETATM    9  C   UNK N   1      28.190  17.454   8.579  0.00  0.00     0.164 C 
BRANCH   9  10
HETATM   10  O   UNK N   1      27.372  18.195   9.425  0.00  0.00    -0.401 OA
HETATM   11  H   UNK N   1      27.763  18.722  10.139  0.00  0.00     0.209 HD
ENDBRANCH   9  10
ENDBRANCH   8   9
ENDBRANCH   7   8
ENDBRANCH   1   7
TORSDOF 8
ENDMDL
MODEL 7
REMARK VINA RESULT:      -3.8     14.023     15.343
REMARK  8 active torsions:
REMARK  status: ('A' for Active; 'I' for Inactive)
REMARK    1  A    between atoms: C_2  and  C_3 
REMARK    2  A    between atoms: C_3  and  C_4 
REMARK    3  A    between atoms: C_4  and  C_5 
REMARK    4  A    between atoms: C_5  and  C_6 
REMARK    5  A    between atoms: C_6  and  C_7 
REMARK    6  A    between atoms: C_7  and  C_8 
REMARK    7  A    between atoms: C_8  and  C_9 
REMARK    8  A    between atoms: C_9  and  O_10 
ROOT
HETATM    1  C   UNK N   1      36.578  13.158  14.014  0.00  0.00     0.000 C 
ENDROOT
BRANCH   1   2
HETATM    2  C   UNK N   1      36.101  13.577  15.382  0.00  0.00     0.000 C 
BRANCH   2   3
HETATM    3  C   UNK N   1      34.833  12.828  15.716  0.00  0.00     0.000 C 
BRANCH   3   4
HETATM    4  C   UNK N   1      35.203  11.578  16.479  0.00  0.00    -0.000 C 
BRANCH   4   5
HETATM    5  C   UNK N   1      34.685  10.363  15.747  0.00  0.00    -0.005 C 
HETATM    6  C   UNK N   1      33.666  10.807  14.722  0.00  0.00     0.005 C 
ENDBRANCH   4   5
ENDBRANCH   3   4
ENDBRANCH   2   3
ENDBRANCH   1   2
BRANCH   1   7
HETATM    7  C   UNK N   1      35.532  13.529  12.990  0.00  0.00     0.002 C 
BRANCH   7   8
HETATM    8  C   UNK N   1      36.224  14.116  11.784  0.00  0.00     0.026 C 
BRANCH   8   9
HETATM    9  C   UNK N   1      35.845  15.572  11.641  0.00  0.00     0.164 C 
BRANCH   9  10
HETATM   10  O   UNK N   1      36.804  16.220  10.869  0.00  0.00    -0.401 OA
HETATM   11  H   UNK N   1      36.826  16.084   9.909  0.00  0.00     0.209 HD
ENDBRANCH   9  10
ENDBRANCH   8   9
ENDBRANCH   7   8
ENDBRANCH   1   7
TORSDOF 8
ENDMDL
MODEL 8
REMARK VINA RESULT:      -3.8     14.555     16.267
REMARK  8 active torsions:
REMARK  status: ('A' for Active; 'I' for Inactive)
REMARK    1  A    between atoms: C_2  and  C_3 
REMARK    2  A    between atoms: C_3  and  C_4 
REMARK    3  A    between atoms: C_4  and  C_5 
REMARK    4  A    between atoms: C_5  and  C_6 
REMARK    5  A    between atoms: C_6  and  C_7 
REMARK    6  A    between atoms: C_7  and  C_8 
REMARK    7  A    between atoms: C_8  and  C_9 
REMARK    8  A    between atoms: C_9  and  O_10 
ROOT
HETATM    1  C   UNK N   1      34.563  13.131  16.109  0.00  0.00     0.000 C 
ENDROOT
BRANCH   1   2
HETATM    2  C   UNK N   1      35.198  12.429  17.283  0.00  0.00     0.000 C 
BRANCH   2   3
HETATM    3  C   UNK N   1      35.195  13.353  18.477  0.00  0.00     0.000 C 
BRANCH   3   4
HETATM    4  C   UNK N   1      35.291  12.516  19.730  0.00  0.00    -0.000 C 
BRANCH   4   5
HETATM    5  C   UNK N   1      35.546  11.074  19.360  0.00  0.00    -0.005 C 
HETATM    6  C   UNK N   1      36.656  10.534  20.235  0.00  0.00     0.005 C 
ENDBRANCH   4   5
ENDBRANCH   3   4
ENDBRANCH   2   3
ENDBRANCH   1   2
BRANCH   1   7
HETATM    7  C   UNK N   1      35.192  12.626  14.832  0.00  0.00     0.002 C 
BRANCH   7   8
HETATM    8  C   UNK N   1      36.120  13.690  14.297  0.00  0.00     0.026 C 
BRANCH   8   9
HETATM    9  C   UNK N   1      35.633  14.154  12.944  0.00  0.00     0.164 C 
BRANCH   9  10
HETATM   10  O   UNK N   1      34.490  13.438  12.600  0.00  0.00    -0.401 OA
HETATM   11  H   UNK N   1      34.210  13.391  11.673  0.00  0.00     0.209 HD
ENDBRANCH   9  10
ENDBRANCH   8   9
ENDBRANCH   7   8
ENDBRANCH   1   7
TORSDOF 8
ENDMDL
MODEL 9
REMARK VINA RESULT:      -3.7      9.534     11.327
REMARK  8 active torsions:
REMARK  status: ('A' for Active; 'I' for Inactive)
REMARK    1  A    between atoms: C_2  and  C_3 
REMARK    2  A    between atoms: C_3  and  C_4 
REMARK    3  A    between atoms: C_4  and  C_5 
REMARK    4  A    between atoms: C_5  and  C_6 
REMARK    5  A    between atoms: C_6  and  C_7 
REMARK    6  A    between atoms: C_7  and  C_8 
REMARK    7  A    between atoms: C_8  and  C_9 
REMARK    8  A    between atoms: C_9  and  O_10 
ROOT
HETATM    1  C   UNK N   1      30.171  17.357   7.291  0.00  0.00     0.000 C 
ENDROOT
BRANCH   1   2
HETATM    2  C   UNK N   1      31.248  16.958   6.312  0.00  0.00     0.000 C 
BRANCH   2   3
HETATM    3  C   UNK N   1      30.812  17.330   4.916  0.00  0.00     0.000 C 
BRANCH   3   4
HETATM    4  C   UNK N   1      32.032  17.744   4.128  0.00  0.00    -0.000 C 
BRANCH   4   5
HETATM    5  C   UNK N   1      33.115  16.701   4.282  0.00  0.00    -0.005 C 
HETATM    6  C   UNK N   1      33.338  16.029   2.946  0.00  0.00     0.005 C 
ENDBRANCH   4   5
ENDBRANCH   3   4
ENDBRANCH   2   3
ENDBRANCH   1   2
BRANCH   1   7
HETATM    7  C   UNK N   1      30.817  17.810   8.579  0.00  0.00     0.002 C 
BRANCH   7   8
HETATM    8  C   UNK N   1      29.806  18.602   9.372  0.00  0.00     0.026 C 
BRANCH   8   9
HETATM    9  C   UNK N   1      28.497  18.651   8.620  0.00  0.00     0.164 C 
BRANCH   9  10
HETATM   10  O   UNK N   1      27.486  18.140   9.428  0.00  0.00    -0.401 OA
HETATM   11  H   UNK N   1      27.712  17.602  10.203  0.00  0.00     0.209 HD
ENDBRANCH   9  10
ENDBRANCH   8   9
ENDBRANCH   7   8
ENDBRANCH   1   7
TORSDOF 8
ENDMDL
