MODEL 1
REMARK VINA RESULT:      -4.6      0.000      0.000
REMARK  7 active torsions:
REMARK  status: ('A' for Active; 'I' for Inactive)
REMARK    1  A    between atoms: O_1  and  N_2 
REMARK    2  A    between atoms: N_2  and  C_3 
REMARK    3  A    between atoms: N_2  and  C_9 
REMARK    4  A    between atoms: C_3  and  C_4 
REMARK    5  A    between atoms: C_4  and  P_5 
REMARK    6  A    between atoms: P_5  and  O_6 
REMARK    7  A    between atoms: P_5  and  O_7 
ROOT
HETATM    1  C   UNK N   1      34.572  16.218   8.771  0.00  0.00     0.147 C 
ENDROOT
BRANCH   1   2
HETATM    2  C   UNK N   1      34.983  16.435  10.217  0.00  0.00     0.170 C 
BRANCH   2   3
HETATM    3  N   UNK N   1      34.480  15.379  11.053  0.00  0.00    -0.235 N 
BRANCH   3   4
HETATM    4  O   UNK N   1      33.168  15.099  11.038  0.00  0.00    -0.285 OA
HETATM    5  H   UNK N   1      32.727  14.420  11.573  0.00  0.00     0.245 HD
ENDBRANCH   3   4
BRANCH   3   6
HETATM    6  C   UNK N   1      35.307  14.721  11.897  0.00  0.00     0.376 C 
HETATM    7  O   UNK N   1      34.868  13.901  12.687  0.00  0.00    -0.281 OA
ENDBRANCH   3   6
ENDBRANCH   2   3
ENDBRANCH   1   2
BRANCH   1   8
HETATM    8  P   UNK N   1      34.247  17.859   7.972  0.00  0.00     0.237 P 
HETATM    9  O   UNK N   1      32.807  18.330   8.309  0.00  0.00    -0.653 OA
BRANCH   8  10
HETATM   10  O   UNK N   1      34.304  17.889   6.237  0.00  0.00    -0.329 OA
HETATM   11  H   UNK N   1      35.035  18.044   5.617  0.00  0.00     0.220 HD
ENDBRANCH   8  10
BRANCH   8  12
HETATM   12  O   UNK N   1      35.254  19.148   8.550  0.00  0.00    -0.329 OA
HETATM   13  H   UNK N   1      35.575  19.894   8.019  0.00  0.00     0.220 HD
ENDBRANCH   8  12
ENDBRANCH   1   8
TORSDOF 7
ENDMDL
MODEL 2
REMARK VINA RESULT:      -4.6     15.232     16.435
REMARK  7 active torsions:
REMARK  status: ('A' for Active; 'I' for Inactive)
REMARK    1  A    between atoms: O_1  and  N_2 
REMARK    2  A    between atoms: N_2  and  C_3 
REMARK    3  A    between atoms: N_2  and  C_9 
REMARK    4  A    between atoms: C_3  and  C_4 
REMARK    5  A    between atoms: C_4  and  P_5 
REMARK    6  A    between atoms: P_5  and  O_6 
REMARK    7  A    between atoms: P_5  and  O_7 
ROOT
HETATM    1  C   UNK N   1      21.236  18.716   3.461  0.00  0.00     0.147 C 
ENDROOT
BRANCH   1   2
HETATM    2  C   UNK N   1      20.520  20.054   3.415  0.00  0.00     0.170 C 
BRANCH   2   3
HETATM    3  N   UNK N   1      21.117  20.917   2.431  0.00  0.00    -0.235 N 
BRANCH   3   4
HETATM    4  O   UNK N   1      22.103  21.749   2.800  0.00  0.00    -0.285 OA
HETATM    5  H   UNK N   1      22.961  21.484   3.166  0.00  0.00     0.245 HD
ENDBRANCH   3   4
BRANCH   3   6
HETATM    6  C   UNK N   1      20.645  20.940   1.164  0.00  0.00     0.376 C 
HETATM    7  O   UNK N   1      21.391  20.742   0.217  0.00  0.00    -0.281 OA
ENDBRANCH   3   6
ENDBRANCH   2   3
ENDBRANCH   1   2
BRANCH   1   8
HETATM    8  P   UNK N   1      20.094  17.386   2.856  0.00  0.00     0.237 P 
HETATM    9  O   UNK N   1      20.913  16.118   2.496  0.00  0.00    -0.653 OA
BRANCH   8  10
HETATM   10  O   UNK N   1      19.207  17.741   1.407  0.00  0.00    -0.329 OA
HETATM   11  H   UNK N   1      18.262  17.676   1.196  0.00  0.00     0.220 HD
ENDBRANCH   8  10
BRANCH   8  12
HETATM   12  O   UNK N   1      18.957  16.827   4.041  0.00  0.00    -0.329 OA
HETATM   13  H   UNK N   1      18.038  16.573   3.864  0.00  0.00     0.220 HD
ENDBRANCH   8  12
ENDBRANCH   1   8
TORSDOF 7
ENDMDL
MODEL 3
REMARK VINA RESULT:      -4.6     12.083     12.793
REMARK  7 active torsions:
REMARK  status: ('A' for Active; 'I' for Inactive)
REMARK    1  A    between atoms: O_1  and  N_2 
REMARK    2  A    between atoms: N_2  and  C_3 
REMARK    3  A    between atoms: N_2  and  C_9 
REMARK    4  A    between atoms: C_3  and  C_4 
REMARK    5  A    between atoms: C_4  and  P_5 
REMARK    6  A    between atoms: P_5  and  O_6 
REMARK    7  A    between atoms: P_5  and  O_7 
ROOT
HETATM    1  C   UNK N   1      22.907  13.163   9.866  0.00  0.00     0.147 C 
ENDROOT
BRANCH   1   2
HETATM    2  C   UNK N   1      22.889  11.893  10.696  0.00  0.00     0.170 C 
BRANCH   2   3
HETATM    3  N   UNK N   1      23.707  12.042  11.870  0.00  0.00    -0.235 N 
BRANCH   3   4
HETATM    4  O   UNK N   1      25.020  12.281  11.729  0.00  0.00    -0.285 OA
HETATM    5  H   UNK N   1      25.549  12.095  10.938  0.00  0.00     0.245 HD
ENDBRANCH   3   4
BRANCH   3   6
HETATM    6  C   UNK N   1      23.174  11.873  13.101  0.00  0.00     0.376 C 
HETATM    7  O   UNK N   1      23.749  12.294  14.093  0.00  0.00    -0.281 OA
ENDBRANCH   3   6
ENDBRANCH   2   3
ENDBRANCH   1   2
BRANCH   1   8
HETATM    8  P   UNK N   1      21.167  13.631   9.423  0.00  0.00     0.237 P 
HETATM    9  O   UNK N   1      20.782  12.987   8.064  0.00  0.00    -0.653 OA
BRANCH   8  10
HETATM   10  O   UNK N   1      20.867  15.325   9.187  0.00  0.00    -0.329 OA
HETATM   11  H   UNK N   1      20.470  15.997   9.763  0.00  0.00     0.220 HD
ENDBRANCH   8  10
BRANCH   8  12
HETATM   12  O   UNK N   1      19.965  13.036  10.523  0.00  0.00    -0.329 OA
HETATM   13  H   UNK N   1      20.098  12.878  11.471  0.00  0.00     0.220 HD
ENDBRANCH   8  12
ENDBRANCH   1   8
TORSDOF 7
ENDMDL
MODEL 4
REMARK VINA RESULT:      -4.5      1.308      2.048
REMARK  7 active torsions:
REMARK  status: ('A' for Active; 'I' for Inactive)
REMARK    1  A    between atoms: O_1  and  N_2 
REMARK    2  A    between atoms: N_2  and  C_3 
REMARK    3  A    between atoms: N_2  and  C_9 
REMARK    4  A    between atoms: C_3  and  C_4 
REMARK    5  A    between atoms: C_4  and  P_5 
REMARK    6  A    between atoms: P_5  and  O_6 
REMARK    7  A    between atoms: P_5  and  O_7 
ROOT
HETATM    1  C   UNK N   1      34.808  16.366   8.773  0.00  0.00     0.147 C 
ENDROOT
BRANCH   1   2
HETATM    2  C   UNK N   1      34.903  16.599  10.270  0.00  0.00     0.170 C 
BRANCH   2   3
HETATM    3  N   UNK N   1      35.870  15.714  10.862  0.00  0.00    -0.235 N 
BRANCH   3   4
HETATM    4  O   UNK N   1      37.171  16.040  10.821  0.00  0.00    -0.285 OA
HETATM    5  H   UNK N   1      37.687  16.408  11.555  0.00  0.00     0.245 HD
ENDBRANCH   3   4
BRANCH   3   6
HETATM    6  C   UNK N   1      35.480  14.533  11.394  0.00  0.00     0.376 C 
HETATM    7  O   UNK N   1      34.389  14.421  11.931  0.00  0.00    -0.281 OA
ENDBRANCH   3   6
ENDBRANCH   2   3
ENDBRANCH   1   2
BRANCH   1   8
HETATM    8  P   UNK N   1      34.166  17.901   7.952  0.00  0.00     0.237 P 
HETATM    9  O   UNK N   1      35.029  19.120   8.374  0.00  0.00    -0.653 OA
BRANCH   8  10
HETATM   10  O   UNK N   1      32.546  18.368   8.365  0.00  0.00    -0.329 OA
HETATM   11  H   UNK N   1      31.871  17.940   8.915  0.00  0.00     0.220 HD
ENDBRANCH   8  10
BRANCH   8  12
HETATM   12  O   UNK N   1      34.282  17.887   6.221  0.00  0.00    -0.329 OA
HETATM   13  H   UNK N   1      33.581  17.604   5.613  0.00  0.00     0.220 HD
ENDBRANCH   8  12
ENDBRANCH   1   8
TORSDOF 7
ENDMDL
MODEL 5
REMARK VINA RESULT:      -4.3      1.475      2.499
REMARK  7 active torsions:
REMARK  status: ('A' for Active; 'I' for Inactive)
REMARK    1  A    between atoms: O_1  and  N_2 
REMARK    2  A    between atoms: N_2  and  C_3 
REMARK    3  A    between atoms: N_2  and  C_9 
REMARK    4  A    between atoms: C_3  and  C_4 
REMARK    5  A    between atoms: C_4  and  P_5 
REMARK    6  A    between atoms: P_5  and  O_6 
REMARK    7  A    between atoms: P_5  and  O_7 
ROOT
HETATM    1  C   UNK N   1      33.276  15.880   8.264  0.00  0.00     0.147 C 
ENDROOT
BRANCH   1   2
HETATM    2  C   UNK N   1      34.444  15.246   8.997  0.00  0.00     0.170 C 
BRANCH   2   3
HETATM    3  N   UNK N   1      34.402  15.571  10.398  0.00  0.00    -0.235 N 
BRANCH   3   4
HETATM    4  O   UNK N   1      33.435  15.045  11.165  0.00  0.00    -0.285 OA
HETATM    5  H   UNK N   1      33.524  14.265  11.734  0.00  0.00     0.245 HD
ENDBRANCH   3   4
BRANCH   3   6
HETATM    6  C   UNK N   1      35.285  16.451  10.923  0.00  0.00     0.376 C 
HETATM    7  O   UNK N   1      35.620  17.445  10.298  0.00  0.00    -0.281 OA
ENDBRANCH   3   6
ENDBRANCH   2   3
ENDBRANCH   1   2
BRANCH   1   8
HETATM    8  P   UNK N   1      33.922  17.052   6.979  0.00  0.00     0.237 P 
HETATM    9  O   UNK N   1      35.001  16.342   6.118  0.00  0.00    -0.653 OA
BRANCH   8  10
HETATM   10  O   UNK N   1      34.724  18.472   7.574  0.00  0.00    -0.329 OA
HETATM   11  H   UNK N   1      35.519  18.584   8.119  0.00  0.00     0.220 HD
ENDBRANCH   8  10
BRANCH   8  12
HETATM   12  O   UNK N   1      32.737  17.567   5.821  0.00  0.00    -0.329 OA
HETATM   13  H   UNK N   1      32.197  18.371   5.888  0.00  0.00     0.220 HD
ENDBRANCH   8  12
ENDBRANCH   1   8
TORSDOF 7
ENDMDL
MODEL 6
REMARK VINA RESULT:      -4.3      2.411      4.402
REMARK  7 active torsions:
REMARK  status: ('A' for Active; 'I' for Inactive)
REMARK    1  A    between atoms: O_1  and  N_2 
REMARK    2  A    between atoms: N_2  and  C_3 
REMARK    3  A    between atoms: N_2  and  C_9 
REMARK    4  A    between atoms: C_3  and  C_4 
REMARK    5  A    between atoms: C_4  and  P_5 
REMARK    6  A    between atoms: P_5  and  O_6 
REMARK    7  A    between atoms: P_5  and  O_7 
ROOT
HETATM    1  C   UNK N   1      34.661  15.076   9.374  0.00  0.00     0.147 C 
ENDROOT
BRANCH   1   2
HETATM    2  C   UNK N   1      34.804  16.053   8.221  0.00  0.00     0.170 C 
BRANCH   2   3
HETATM    3  N   UNK N   1      34.052  17.253   8.474  0.00  0.00    -0.235 N 
BRANCH   3   4
HETATM    4  O   UNK N   1      32.896  17.173   9.151  0.00  0.00    -0.285 OA
HETATM    5  H   UNK N   1      32.764  16.713   9.995  0.00  0.00     0.245 HD
ENDBRANCH   3   4
BRANCH   3   6
HETATM    6  C   UNK N   1      34.470  18.439   7.977  0.00  0.00     0.376 C 
HETATM    7  O   UNK N   1      35.289  19.114   8.581  0.00  0.00    -0.281 OA
ENDBRANCH   3   6
ENDBRANCH   2   3
ENDBRANCH   1   2
BRANCH   1   8
HETATM    8  P   UNK N   1      35.576  15.730  10.850  0.00  0.00     0.237 P 
HETATM    9  O   UNK N   1      35.332  14.802  12.070  0.00  0.00    -0.653 OA
BRANCH   8  10
HETATM   10  O   UNK N   1      35.095  17.301  11.412  0.00  0.00    -0.329 OA
HETATM   11  H   UNK N   1      35.432  18.189  11.214  0.00  0.00     0.220 HD
ENDBRANCH   8  10
BRANCH   8  12
HETATM   12  O   UNK N   1      37.301  15.743  10.673  0.00  0.00    -0.329 OA
HETATM   13  H   UNK N   1      37.938  15.451  11.343  0.00  0.00     0.220 HD
ENDBRANCH   8  12
ENDBRANCH   1   8
TORSDOF 7
ENDMDL
MODEL 7
REMARK VINA RESULT:      -4.2      2.476      4.612
REMARK  7 active torsions:
REMARK  status: ('A' for Active; 'I' for Inactive)
REMARK    1  A    between atoms: O_1  and  N_2 
REMARK    2  A    between atoms: N_2  and  C_3 
REMARK    3  A    between atoms: N_2  and  C_9 
REMARK    4  A    between atoms: C_3  and  C_4 
REMARK    5  A    between atoms: C_4  and  P_5 
REMARK    6  A    between atoms: P_5  and  O_6 
REMARK    7  A    between atoms: P_5  and  O_7 
ROOT
HETATM    1  C   UNK N   1      34.736  15.252   9.140  0.00  0.00     0.147 C 
ENDROOT
BRANCH   1   2
HETATM    2  C   UNK N   1      33.733  16.339   8.799  0.00  0.00     0.170 C 
BRANCH   2   3
HETATM    3  N   UNK N   1      34.284  17.254   7.835  0.00  0.00    -0.235 N 
BRANCH   3   4
HETATM    4  O   UNK N   1      34.843  16.770   6.716  0.00  0.00    -0.285 OA
HETATM    5  H   UNK N   1      34.402  16.676   5.857  0.00  0.00     0.245 HD
ENDBRANCH   3   4
BRANCH   3   6
HETATM    6  C   UNK N   1      34.301  18.583   8.086  0.00  0.00     0.376 C 
HETATM    7  O   UNK N   1      35.322  19.132   8.471  0.00  0.00    -0.281 OA
ENDBRANCH   3   6
ENDBRANCH   2   3
ENDBRANCH   1   2
BRANCH   1   8
HETATM    8  P   UNK N   1      35.630  15.708  10.700  0.00  0.00     0.237 P 
HETATM    9  O   UNK N   1      35.237  17.148  11.127  0.00  0.00    -0.653 OA
BRANCH   8  10
HETATM   10  O   UNK N   1      37.362  15.756  10.602  0.00  0.00    -0.329 OA
HETATM   11  H   UNK N   1      38.031  15.054  10.642  0.00  0.00     0.220 HD
ENDBRANCH   8  10
BRANCH   8  12
HETATM   12  O   UNK N   1      35.210  14.736  12.075  0.00  0.00    -0.329 OA
HETATM   13  H   UNK N   1      34.866  13.830  12.040  0.00  0.00     0.220 HD
ENDBRANCH   8  12
ENDBRANCH   1   8
TORSDOF 7
ENDMDL
MODEL 8
REMARK VINA RESULT:      -3.9      3.512      6.121
REMARK  7 active torsions:
REMARK  status: ('A' for Active; 'I' for Inactive)
REMARK    1  A    between atoms: O_1  and  N_2 
REMARK    2  A    between atoms: N_2  and  C_3 
REMARK    3  A    between atoms: N_2  and  C_9 
REMARK    4  A    between atoms: C_3  and  C_4 
REMARK    5  A    between atoms: C_4  and  P_5 
REMARK    6  A    between atoms: P_5  and  O_6 
REMARK    7  A    between atoms: P_5  and  O_7 
ROOT
HETATM    1  C   UNK N   1      36.452  13.677  12.354  0.00  0.00     0.147 C 
ENDROOT
BRANCH   1   2
HETATM    2  C   UNK N   1      35.045  13.627  11.788  0.00  0.00     0.170 C 
BRANCH   2   3
HETATM    3  N   UNK N   1      34.599  14.943  11.416  0.00  0.00    -0.235 N 
BRANCH   3   4
HETATM    4  O   UNK N   1      33.304  15.139  11.123  0.00  0.00    -0.285 OA
HETATM    5  H   UNK N   1      32.925  15.183  10.231  0.00  0.00     0.245 HD
ENDBRANCH   3   4
BRANCH   3   6
HETATM    6  C   UNK N   1      35.485  15.957  11.296  0.00  0.00     0.376 C 
HETATM    7  O   UNK N   1      35.150  17.024  10.805  0.00  0.00    -0.281 OA
ENDBRANCH   3   6
ENDBRANCH   2   3
ENDBRANCH   1   2
BRANCH   1   8
HETATM    8  P   UNK N   1      36.388  13.380  14.185  0.00  0.00     0.237 P 
HETATM    9  O   UNK N   1      34.915  13.426  14.670  0.00  0.00    -0.653 OA
BRANCH   8  10
HETATM   10  O   UNK N   1      37.196  14.552  15.178  0.00  0.00    -0.329 OA
HETATM   11  H   UNK N   1      37.525  15.445  14.985  0.00  0.00     0.220 HD
ENDBRANCH   8  10
BRANCH   8  12
HETATM   12  O   UNK N   1      36.940  11.810  14.674  0.00  0.00    -0.329 OA
HETATM   13  H   UNK N   1      36.400  11.005  14.695  0.00  0.00     0.220 HD
ENDBRANCH   8  12
ENDBRANCH   1   8
TORSDOF 7
ENDMDL
MODEL 9
REMARK VINA RESULT:      -3.9      3.394      4.021
REMARK  7 active torsions:
REMARK  status: ('A' for Active; 'I' for Inactive)
REMARK    1  A    between atoms: O_1  and  N_2 
REMARK    2  A    between atoms: N_2  and  C_3 
REMARK    3  A    between atoms: N_2  and  C_9 
REMARK    4  A    between atoms: C_3  and  C_4 
REMARK    5  A    between atoms: C_4  and  P_5 
REMARK    6  A    between atoms: P_5  and  O_6 
REMARK    7  A    between atoms: P_5  and  O_7 
ROOT
HETATM    1  C   UNK N   1      32.408  18.079   8.339  0.00  0.00     0.147 C 
ENDROOT
BRANCH   1   2
HETATM    2  C   UNK N   1      31.757  16.716   8.491  0.00  0.00     0.170 C 
BRANCH   2   3
HETATM    3  N   UNK N   1      31.567  16.097   7.207  0.00  0.00    -0.235 N 
BRANCH   3   4
HETATM    4  O   UNK N   1      30.984  16.796   6.221  0.00  0.00    -0.285 OA
HETATM    5  H   UNK N   1      30.310  16.461   5.610  0.00  0.00     0.245 HD
ENDBRANCH   3   4
BRANCH   3   6
HETATM    6  C   UNK N   1      31.908  14.803   7.014  0.00  0.00     0.376 C 
HETATM    7  O   UNK N   1      33.081  14.463   6.997  0.00  0.00    -0.281 OA
ENDBRANCH   3   6
ENDBRANCH   2   3
ENDBRANCH   1   2
BRANCH   1   8
HETATM    8  P   UNK N   1      34.205  17.859   7.931  0.00  0.00     0.237 P 
HETATM    9  O   UNK N   1      34.396  17.872   6.390  0.00  0.00    -0.653 OA
BRANCH   8  10
HETATM   10  O   UNK N   1      34.925  16.361   8.432  0.00  0.00    -0.329 OA
HETATM   11  H   UNK N   1      35.352  16.097   9.262  0.00  0.00     0.220 HD
ENDBRANCH   8  10
BRANCH   8  12
HETATM   12  O   UNK N   1      35.227  19.144   8.489  0.00  0.00    -0.329 OA
HETATM   13  H   UNK N   1      36.035  19.452   8.050  0.00  0.00     0.220 HD
ENDBRANCH   8  12
ENDBRANCH   1   8
TORSDOF 7
ENDMDL
