REMARK  9 active torsions:
REMARK  status: ('A' for Active; 'I' for Inactive)
REMARK       I    between atoms: N_1  and  C_2 
REMARK    1  A    between atoms: C_2  and  C_4 
REMARK    2  A    between atoms: C_5  and  C_4 
REMARK    3  A    between atoms: C_19  and  C_39 
REMARK    4  A    between atoms: C_23  and  C_28 
REMARK    5  A    between atoms: C_28  and  C_29 
REMARK    6  A    between atoms: C_42  and  C_43 
REMARK    7  A    between atoms: C_43  and  P_44 
REMARK    8  A    between atoms: P_44  and  O_45 
REMARK    9  A    between atoms: P_44  and  O_46 
ROOT
HETATM    1  C   UNK N   1       0.386 -11.040   1.345  0.00  0.00     0.185 C 
HETATM    2  N   UNK N   1      -0.828 -10.805   0.577  0.00  0.00    -0.345 N 
HETATM    3  C   UNK N   1      -1.962 -11.555   0.654  0.00  0.00     0.246 C 
HETATM    4  O   UNK N   1      -1.991 -12.566   1.347  0.00  0.00    -0.271 OA
HETATM    5  C   UNK N   1      -3.208 -11.123  -0.115  0.00  0.00     0.113 C 
HETATM    6  C   UNK N   1      -2.834 -10.892  -1.590  0.00  0.00     0.041 C 
HETATM    7  C   UNK N   1      -2.324 -12.148  -2.310  0.00  0.00     0.003 C 
HETATM    8  C   UNK N   1      -2.861 -13.448  -1.709  0.00  0.00     0.000 C 
HETATM    9  C   UNK N   1      -4.268 -13.264  -1.148  0.00  0.00     0.003 C 
HETATM   10  C   UNK N   1      -4.332 -12.180  -0.057  0.00  0.00     0.041 C 
HETATM   11  N   UNK N   1      -3.766  -9.869   0.387  0.00  0.00    -0.343 N 
HETATM   12  C   UNK N   1      -3.570  -9.295   1.609  0.00  0.00     0.219 C 
HETATM   13  O   UNK N   1      -2.938  -9.861   2.485  0.00  0.00    -0.274 OA
HETATM   14  C   UNK N   1      -4.140  -7.933   1.893  0.00  0.00     0.116 C 
HETATM   15  C   UNK N   1      -3.685  -6.833   0.914  0.00  0.00     0.049 C 
HETATM   16  C   UNK N   1      -2.471  -7.124   0.081  0.00  0.00    -0.021 C 
HETATM   17  C   UNK N   1      -2.586  -7.605  -1.160  0.00  0.00    -0.029 C 
HETATM   18  C   UNK N   1      -1.433  -8.046  -2.020  0.00  0.00     0.033 C 
HETATM   19  C   UNK N   1      -0.017  -8.050  -1.433  0.00  0.00     0.011 C 
HETATM   20  C   UNK N   1       0.099  -8.323   0.067  0.00  0.00     0.128 C 
HETATM   21  N   UNK N   1       1.378  -8.889   0.393  0.00  0.00    -0.359 N 
HETATM   22  C   UNK N   1       1.547 -10.106   0.978  0.00  0.00     0.240 C 
HETATM   23  O   UNK N   1       2.683 -10.456   1.254  0.00  0.00    -0.271 OA
HETATM   24  H   UNK N   1      -0.829 -10.044  -0.048  0.00  0.00     0.163 HD
HETATM   25  H   UNK N   1      -4.354  -9.379  -0.232  0.00  0.00     0.163 HD
HETATM   26  H   UNK N   1       2.183  -8.364   0.179  0.00  0.00     0.162 HD
ENDROOT
BRANCH  15  27
HETATM   27  C   UNK N   1      -4.807  -6.218   0.148  0.00  0.00    -0.050 A 
HETATM   28  C   UNK N   1      -5.756  -7.020  -0.504  0.00  0.00     0.008 A 
HETATM   29  C   UNK N   1      -6.822  -6.427  -1.181  0.00  0.00     0.008 A 
HETATM   30  C   UNK N   1      -6.922  -5.032  -1.231  0.00  0.00    -0.047 A 
HETATM   31  C   UNK N   1      -5.958  -4.235  -0.609  0.00  0.00     0.008 A 
HETATM   32  C   UNK N   1      -4.902  -4.827   0.079  0.00  0.00     0.008 A 
BRANCH  30  33
HETATM   33  C   UNK N   1      -8.129  -4.377  -1.787  0.00  0.00     0.163 C 
BRANCH  33  34
HETATM   34  P   UNK N   1      -9.505  -4.663  -0.564  0.00  0.00     0.240 P 
HETATM   35  O   UNK N   1     -10.302  -5.945  -0.922  0.00  0.00    -0.653 OA
BRANCH  34  36
HETATM   36  O   UNK N   1      -8.943  -4.965   1.052  0.00  0.00    -0.329 OA
HETATM   37  H   UNK N   1      -8.932  -5.322   1.954  0.00  0.00     0.220 HD
ENDBRANCH  34  36
BRANCH  34  38
HETATM   38  O   UNK N   1     -10.701  -3.412  -0.460  0.00  0.00    -0.329 OA
HETATM   39  H   UNK N   1     -10.429  -2.483  -0.402  0.00  0.00     0.220 HD
ENDBRANCH  34  38
ENDBRANCH  33  34
ENDBRANCH  30  33
ENDBRANCH  15  27
BRANCH  19  40
HETATM   40  C   UNK N   1       0.841  -6.898  -1.948  0.00  0.00     0.046 C 
BRANCH  40  41
HETATM   41  C   UNK N   1       0.687  -5.627  -1.167  0.00  0.00    -0.047 A 
HETATM   42  C   UNK N   1      -0.522  -4.920  -1.198  0.00  0.00     0.008 A 
HETATM   43  C   UNK N   1      -0.668  -3.736  -0.470  0.00  0.00     0.001 A 
HETATM   44  C   UNK N   1       0.395  -3.244   0.291  0.00  0.00     0.012 A 
HETATM   45  C   UNK N   1       1.610  -3.934   0.326  0.00  0.00    -0.025 A 
HETATM   46  C   UNK N   1       2.674  -3.440   1.085  0.00  0.00     0.012 A 
HETATM   47  C   UNK N   1       1.763  -5.133  -0.407  0.00  0.00    -0.020 A 
HETATM   48  C   UNK N   1       3.890  -4.130   1.120  0.00  0.00     0.001 A 
HETATM   49  C   UNK N   1       4.047  -5.316   0.398  0.00  0.00     0.001 A 
HETATM   50  C   UNK N   1       2.989  -5.816  -0.363  0.00  0.00     0.013 A 
ENDBRANCH  40  41
ENDBRANCH  19  40
BRANCH   1  51
HETATM   51  C   UNK N   1       0.815 -12.517   1.355  0.00  0.00     0.137 C 
BRANCH  51  52
HETATM   52  C   UNK N   1       1.061 -13.074  -0.011  0.00  0.00     0.217 C 
HETATM   53  N   UNK N   1       0.290 -14.078  -0.469  0.00  0.00    -0.370 N 
HETATM   54  H   UNK N   1      -0.628 -13.957  -0.804  0.00  0.00     0.159 HD
HETATM   55  H   UNK N   1       0.667 -14.988  -0.469  0.00  0.00     0.159 HD
HETATM   56  O   UNK N   1       1.969 -12.641  -0.701  0.00  0.00    -0.274 OA
ENDBRANCH  51  52
ENDBRANCH   1  51
TORSDOF 9
