MODEL 1
REMARK VINA RESULT:      -6.9      0.000      0.000
REMARK WARNING: 32 MAX_TORS EXCEEDED!!!
REMARK  35 active torsions:
REMARK  status: ('A' for Active; 'I' for Inactive)
REMARK    1  A    between atoms: C_6  and  C_5 
REMARK    2  A    between atoms: C_16  and  C_5 
REMARK    3  A    between atoms: C_21  and  C_6 
REMARK    4  A    between atoms: C_8  and  C_7 
REMARK    5  A    between atoms: C_20  and  C_7 
REMARK    6  A    between atoms: N_36  and  C_8 
REMARK    7  A    between atoms: C_10  and  C_9 
REMARK    8  A    between atoms: N_34  and  C_9 
REMARK    9  A    between atoms: S_68  and  C_10 
REMARK   10  A    between atoms: C_19  and  C_13 
REMARK   11  A    between atoms: O_60  and  C_13 
REMARK   12  A    between atoms: O_58  and  C_17 
REMARK   13  A    between atoms: O_59  and  C_18 
REMARK   14  A    between atoms: N_34  and  C_20 
REMARK   15  A    between atoms: O_45  and  C_20 
REMARK   16  A    between atoms: S_68  and  C_21 
REMARK   17  A    between atoms: O_47  and  C_23 
REMARK   18  A    between atoms: C_24  and  O_48 
REMARK   19  A    between atoms: C_25  and  O_62 
REMARK   20  A    between atoms: N_33  and  C_26 
REMARK   21  A    between atoms: C_28  and  N_44 
REMARK   22  A    between atoms: C_29  and  O_63 
REMARK   23  A    between atoms: C_32  and  C_30 
REMARK   24  A    between atoms: N_36  and  C_30 
REMARK   25  A    between atoms: O_49  and  C_30 
REMARK   26  A    between atoms: O_50  and  C_32 
REMARK   27  A    between atoms: P_65  and  O_51 
REMARK   28  A    between atoms: P_65  and  O_52 
REMARK   29  A    between atoms: P_66  and  O_54 
REMARK   30  A    between atoms: P_67  and  O_56 
REMARK   31  A    between atoms: P_66  and  O_60 
REMARK   32  A    between atoms: P_65  and  O_62 
REMARK   33  A    between atoms: P_67  and  O_63 
REMARK   34  A    between atoms: P_66  and  O_64 
REMARK   35  A    between atoms: P_67  and  O_64 
ROOT
HETATM    1  O   UNK N   1      26.763  12.607   5.247  0.00  0.00    -0.631 OA
HETATM    2  P   UNK N   1      27.525  13.101   3.990  0.00  0.00     0.402 P 
ENDROOT
BRANCH   2   3
HETATM    3  O   UNK N   1      28.602  11.808   3.554  0.00  0.00    -0.307 OA
HETATM    4  H   UNK N   1      28.246  10.966   3.234  0.00  0.00     0.222 HD
ENDBRANCH   2   3
BRANCH   2   5
HETATM    5  O   UNK N   1      26.318  13.449   2.779  0.00  0.00    -0.287 OA
BRANCH   5   6
HETATM    6  C   UNK N   1      25.440  14.352   3.392  0.00  0.00     0.188 A 
HETATM    7  C   UNK N   1      24.184  14.695   2.586  0.00  0.00     0.024 A 
HETATM    8  C   UNK N   1      23.963  13.824   1.357  0.00  0.00     0.021 C 
HETATM    9  C   UNK N   1      22.959  15.130   3.378  0.00  0.00     0.021 C 
HETATM   10  C   UNK N   1      25.362  15.667   2.612  0.00  0.00     0.158 A 
BRANCH  10  11
HETATM   11  C   UNK N   1      25.609  16.792   3.600  0.00  0.00     0.150 C 
BRANCH  11  12
HETATM   12  N   UNK N   1      25.118  17.976   3.431  0.00  0.00    -0.371 N 
ATOM     13  HN  UNK N   1      25.375  18.479   2.582  1.00  0.00     0.161 HD
BRANCH  12  14
HETATM   14  C   UNK N   1      24.228  18.643   4.366  0.00  0.00     0.129 C 
BRANCH  14  15
HETATM   15  C   UNK N   1      22.947  19.177   3.717  0.00  0.00     0.103 C 
BRANCH  15  16
HETATM   16  C   UNK N   1      21.704  18.542   4.243  0.00  0.00     0.112 C 
BRANCH  16  17
HETATM   17  N   UNK N   1      21.548  18.441   5.514  0.00  0.00    -0.374 N 
ATOM     18  HN  UNK N   1      21.359  19.285   6.055  1.00  0.00     0.161 HD
BRANCH  17  19
HETATM   19  C   UNK N   1      21.629  17.184   6.202  0.00  0.00     0.132 C 
BRANCH  19  20
HETATM   20  C   UNK N   1      20.671  17.151   7.386  0.00  0.00     0.102 C 
BRANCH  20  21
HETATM   21  S   UNK N   1      20.594  15.532   8.245  0.00  0.00    -0.086 SA
BRANCH  21  22
HETATM   22  C   UNK N   1      20.310  14.394   6.860  0.00  0.00     0.208 C 
HETATM   23  O   UNK N   1      19.373  14.627   6.112  0.00  0.00    -0.281 OA
BRANCH  22  24
HETATM   24  C   UNK N   1      21.238  13.281   6.544  0.00  0.00     0.063 C 
BRANCH  24  25
HETATM   25  C   UNK N   1      21.467  12.293   7.423  0.00  0.00     0.016 C 
BRANCH  25  26
HETATM   26  C   UNK N   1      22.602  12.367   8.362  0.00  0.00    -0.031 A 
HETATM   27  C   UNK N   1      22.535  11.810   9.644  0.00  0.00     0.051 A 
HETATM   28  C   UNK N   1      23.567  11.991  10.564  0.00  0.00     0.104 A 
HETATM   29  C   UNK N   1      24.672  12.813  10.209  0.00  0.00     0.133 A 
HETATM   30  C   UNK N   1      24.730  13.393   8.912  0.00  0.00     0.104 A 
HETATM   31  C   UNK N   1      23.706  13.133   8.002  0.00  0.00     0.051 A 
BRANCH  28  32
HETATM   32  O   UNK N   1      23.442  11.380  11.772  0.00  0.00    -0.353 OA
HETATM   33  C   UNK N   1      23.053  11.986  12.943  0.00  0.00     0.210 C 
ENDBRANCH  28  32
BRANCH  29  34
HETATM   34  O   UNK N   1      25.655  13.044  11.097  0.00  0.00    -0.356 OA
HETATM   35  H   UNK N   1      26.096  13.871  11.131  0.00  0.00     0.218 HD
ENDBRANCH  29  34
BRANCH  30  36
HETATM   36  O   UNK N   1      25.724  14.224   8.505  0.00  0.00    -0.353 OA
HETATM   37  C   UNK N   1      25.699  15.004   7.371  0.00  0.00     0.210 C 
ENDBRANCH  30  36
ENDBRANCH  25  26
ENDBRANCH  24  25
ENDBRANCH  22  24
ENDBRANCH  21  22
ENDBRANCH  20  21
ENDBRANCH  19  20
ENDBRANCH  17  19
ENDBRANCH  16  17
BRANCH  16  38
HETATM   38  O   UNK N   1      20.767  18.086   3.389  0.00  0.00    -0.350 OA
HETATM   39  H   UNK N   1      20.958  17.415   2.764  0.00  0.00     0.219 HD
ENDBRANCH  16  38
ENDBRANCH  15  16
ENDBRANCH  14  15
ENDBRANCH  12  14
ENDBRANCH  11  12
BRANCH  11  40
HETATM   40  O   UNK N   1      26.385  16.568   4.678  0.00  0.00    -0.347 OA
HETATM   41  H   UNK N   1      27.066  16.530   5.321  0.00  0.00     0.219 HD
ENDBRANCH  11  40
ENDBRANCH  10  11
BRANCH  10  42
HETATM   42  O   UNK N   1      26.101  15.670   1.423  0.00  0.00    -0.378 OA
HETATM   43  H   UNK N   1      26.942  15.909   1.002  0.00  0.00     0.211 HD
ENDBRANCH  10  42
ENDBRANCH   5   6
ENDBRANCH   2   5
BRANCH   2  44
HETATM   44  O   UNK N   1      28.344  14.565   4.457  0.00  0.00    -0.195 OA
BRANCH  44  45
HETATM   45  P   UNK N   1      29.260  15.106   3.078  0.00  0.00     0.401 P 
HETATM   46  O   UNK N   1      28.825  16.577   2.826  0.00  0.00    -0.631 OA
BRANCH  45  47
HETATM   47  O   UNK N   1      28.916  14.236   1.617  0.00  0.00    -0.307 OA
HETATM   48  H   UNK N   1      29.437  13.685   1.013  0.00  0.00     0.222 HD
ENDBRANCH  45  47
BRANCH  45  49
HETATM   49  O   UNK N   1      30.965  15.049   3.419  0.00  0.00    -0.294 OA
BRANCH  49  50
HETATM   50  C   UNK N   1      31.087  14.712   4.761  0.00  0.00     0.215 C 
BRANCH  50  51
HETATM   51  C   UNK N   1      31.542  15.899   5.609  0.00  0.00     0.180 C 
HETATM   52  C   UNK N   1      31.809  15.492   7.079  0.00  0.00     0.197 C 
HETATM   53  C   UNK N   1      31.121  16.603   7.851  0.00  0.00     0.199 C 
HETATM   54  C   UNK N   1      29.911  16.696   6.916  0.00  0.00     0.262 C 
HETATM   55  O   UNK N   1      30.460  16.822   5.626  0.00  0.00    -0.353 OA
BRANCH  52  56
HETATM   56  O   UNK N   1      33.083  14.992   7.468  0.00  0.00    -0.286 OA
BRANCH  56  57
HETATM   57  P   UNK N   1      34.485  15.667   6.656  0.00  0.00     0.391 P 
HETATM   58  O   UNK N   1      35.792  15.181   7.337  0.00  0.00    -0.632 OA
BRANCH  57  59
HETATM   59  O   UNK N   1      34.515  17.397   6.529  0.00  0.00    -0.307 OA
HETATM   60  H   UNK N   1      34.932  18.139   6.996  0.00  0.00     0.222 HD
ENDBRANCH  57  59
BRANCH  57  61
HETATM   61  O   UNK N   1      34.553  14.998   5.054  0.00  0.00    -0.307 OA
HETATM   62  H   UNK N   1      35.080  14.202   4.879  0.00  0.00     0.222 HD
ENDBRANCH  57  61
ENDBRANCH  56  57
ENDBRANCH  52  56
BRANCH  53  63
HETATM   63  O   UNK N   1      31.833  17.805   7.793  0.00  0.00    -0.388 OA
HETATM   64  H   UNK N   1      32.218  18.664   8.027  0.00  0.00     0.210 HD
ENDBRANCH  53  63
BRANCH  54  65
HETATM   65  N   UNK N   1      28.901  17.718   7.192  0.00  0.00    -0.297 N 
HETATM   66  C   UNK N   1      28.460  18.022   8.441  0.00  0.00     0.188 A 
HETATM   67  N   UNK N   1      27.648  19.113   8.432  0.00  0.00    -0.346 N 
HETATM   68  C   UNK N   1      27.611  19.487   7.142  0.00  0.00     0.122 A 
ATOM     69  HN  UNK N   1      27.175  19.549   9.223  1.00  0.00     0.167 HD
HETATM   70  C   UNK N   1      26.998  20.581   6.559  0.00  0.00     0.131 A 
HETATM   71  C   UNK N   1      28.348  18.640   6.393  0.00  0.00     0.142 A 
HETATM   72  N   UNK N   1      27.155  20.761   5.215  0.00  0.00    -0.337 N 
HETATM   73  C   UNK N   1      27.902  19.881   4.467  0.00  0.00     0.183 A 
ATOM     74  HN  UNK N   1      26.712  21.558   4.759  1.00  0.00     0.168 HD
HETATM   75  N   UNK N   1      28.519  18.814   5.062  0.00  0.00    -0.336 N 
ATOM     76  HN  UNK N   1      29.092  18.168   4.518  1.00  0.00     0.168 HD
BRANCH  70  77
HETATM   77  N   UNK N   1      26.271  21.509   7.332  0.00  0.00    -0.383 N 
HETATM   78  H   UNK N   1      26.486  22.469   7.281  0.00  0.00     0.157 HD
HETATM   79  H   UNK N   1      25.547  21.197   7.922  0.00  0.00     0.157 HD
ENDBRANCH  70  77
ENDBRANCH  54  65
ENDBRANCH  50  51
ENDBRANCH  49  50
ENDBRANCH  45  49
ENDBRANCH  44  45
ENDBRANCH   2  44
TORSDOF 35
ENDMDL
MODEL 2
REMARK VINA RESULT:      -6.8      4.946      8.422
REMARK WARNING: 32 MAX_TORS EXCEEDED!!!
REMARK  35 active torsions:
REMARK  status: ('A' for Active; 'I' for Inactive)
REMARK    1  A    between atoms: C_6  and  C_5 
REMARK    2  A    between atoms: C_16  and  C_5 
REMARK    3  A    between atoms: C_21  and  C_6 
REMARK    4  A    between atoms: C_8  and  C_7 
REMARK    5  A    between atoms: C_20  and  C_7 
REMARK    6  A    between atoms: N_36  and  C_8 
REMARK    7  A    between atoms: C_10  and  C_9 
REMARK    8  A    between atoms: N_34  and  C_9 
REMARK    9  A    between atoms: S_68  and  C_10 
REMARK   10  A    between atoms: C_19  and  C_13 
REMARK   11  A    between atoms: O_60  and  C_13 
REMARK   12  A    between atoms: O_58  and  C_17 
REMARK   13  A    between atoms: O_59  and  C_18 
REMARK   14  A    between atoms: N_34  and  C_20 
REMARK   15  A    between atoms: O_45  and  C_20 
REMARK   16  A    between atoms: S_68  and  C_21 
REMARK   17  A    between atoms: O_47  and  C_23 
REMARK   18  A    between atoms: C_24  and  O_48 
REMARK   19  A    between atoms: C_25  and  O_62 
REMARK   20  A    between atoms: N_33  and  C_26 
REMARK   21  A    between atoms: C_28  and  N_44 
REMARK   22  A    between atoms: C_29  and  O_63 
REMARK   23  A    between atoms: C_32  and  C_30 
REMARK   24  A    between atoms: N_36  and  C_30 
REMARK   25  A    between atoms: O_49  and  C_30 
REMARK   26  A    between atoms: O_50  and  C_32 
REMARK   27  A    between atoms: P_65  and  O_51 
REMARK   28  A    between atoms: P_65  and  O_52 
REMARK   29  A    between atoms: P_66  and  O_54 
REMARK   30  A    between atoms: P_67  and  O_56 
REMARK   31  A    between atoms: P_66  and  O_60 
REMARK   32  A    between atoms: P_65  and  O_62 
REMARK   33  A    between atoms: P_67  and  O_63 
REMARK   34  A    between atoms: P_66  and  O_64 
REMARK   35  A    between atoms: P_67  and  O_64 
ROOT
HETATM    1  O   UNK N   1      30.067  17.461   8.385  0.00  0.00    -0.631 OA
HETATM    2  P   UNK N   1      31.435  17.191   7.710  0.00  0.00     0.402 P 
ENDROOT
BRANCH   2   3
HETATM    3  O   UNK N   1      31.865  15.565   8.150  0.00  0.00    -0.307 OA
HETATM    4  H   UNK N   1      32.131  14.932   7.467  0.00  0.00     0.222 HD
ENDBRANCH   2   3
BRANCH   2   5
HETATM    5  O   UNK N   1      31.200  17.416   5.996  0.00  0.00    -0.287 OA
BRANCH   5   6
HETATM    6  C   UNK N   1      31.192  16.122   5.458  0.00  0.00     0.188 A 
HETATM    7  C   UNK N   1      31.880  15.974   4.098  0.00  0.00     0.024 A 
HETATM    8  C   UNK N   1      32.672  17.195   3.651  0.00  0.00     0.021 C 
HETATM    9  C   UNK N   1      32.443  14.600   3.760  0.00  0.00     0.021 C 
HETATM   10  C   UNK N   1      30.357  16.058   4.177  0.00  0.00     0.158 A 
BRANCH  10  11
HETATM   11  C   UNK N   1      29.376  14.911   4.337  0.00  0.00     0.150 C 
BRANCH  11  12
HETATM   12  N   UNK N   1      28.600  14.808   5.365  0.00  0.00    -0.371 N 
ATOM     13  HN  UNK N   1      29.032  14.614   6.268  1.00  0.00     0.161 HD
BRANCH  12  14
HETATM   14  C   UNK N   1      27.154  14.948   5.327  0.00  0.00     0.129 C 
BRANCH  14  15
HETATM   15  C   UNK N   1      26.678  16.403   5.403  0.00  0.00     0.103 C 
BRANCH  15  16
HETATM   16  C   UNK N   1      27.400  17.211   6.428  0.00  0.00     0.112 C 
BRANCH  16  17
HETATM   17  N   UNK N   1      28.095  18.221   6.046  0.00  0.00    -0.374 N 
ATOM     18  HN  UNK N   1      28.894  18.064   5.431  1.00  0.00     0.161 HD
BRANCH  17  19
HETATM   19  C   UNK N   1      27.790  19.563   6.453  0.00  0.00     0.132 C 
BRANCH  19  20
HETATM   20  C   UNK N   1      26.696  20.160   5.576  0.00  0.00     0.102 C 
BRANCH  20  21
HETATM   21  S   UNK N   1      27.018  20.024   3.776  0.00  0.00    -0.086 SA
BRANCH  21  22
HETATM   22  C   UNK N   1      25.364  20.307   3.085  0.00  0.00     0.208 C 
HETATM   23  O   UNK N   1      25.287  20.778   1.960  0.00  0.00    -0.281 OA
BRANCH  22  24
HETATM   24  C   UNK N   1      24.128  19.879   3.783  0.00  0.00     0.063 C 
BRANCH  24  25
HETATM   25  C   UNK N   1      23.885  18.584   4.040  0.00  0.00     0.016 C 
BRANCH  25  26
HETATM   26  C   UNK N   1      22.506  18.097   4.221  0.00  0.00    -0.031 A 
HETATM   27  C   UNK N   1      22.106  17.432   5.386  0.00  0.00     0.051 A 
HETATM   28  C   UNK N   1      20.834  16.870   5.495  0.00  0.00     0.104 A 
HETATM   29  C   UNK N   1      19.959  16.920   4.375  0.00  0.00     0.133 A 
HETATM   30  C   UNK N   1      20.373  17.580   3.187  0.00  0.00     0.104 A 
HETATM   31  C   UNK N   1      21.630  18.183   3.144  0.00  0.00     0.051 A 
BRANCH  28  32
HETATM   32  O   UNK N   1      20.510  16.281   6.677  0.00  0.00    -0.353 OA
HETATM   33  C   UNK N   1      20.069  16.933   7.805  0.00  0.00     0.210 C 
ENDBRANCH  28  32
BRANCH  29  34
HETATM   34  O   UNK N   1      18.746  16.341   4.439  0.00  0.00    -0.356 OA
HETATM   35  H   UNK N   1      18.122  16.441   3.747  0.00  0.00     0.218 HD
ENDBRANCH  29  34
BRANCH  30  36
HETATM   36  O   UNK N   1      19.620  17.637   2.057  0.00  0.00    -0.353 OA
HETATM   37  C   UNK N   1      19.957  17.082   0.844  0.00  0.00     0.210 C 
ENDBRANCH  30  36
ENDBRANCH  25  26
ENDBRANCH  24  25
ENDBRANCH  22  24
ENDBRANCH  21  22
ENDBRANCH  20  21
ENDBRANCH  19  20
ENDBRANCH  17  19
ENDBRANCH  16  17
BRANCH  16  38
HETATM   38  O   UNK N   1      27.314  16.879   7.731  0.00  0.00    -0.350 OA
HETATM   39  H   UNK N   1      27.113  17.517   8.387  0.00  0.00     0.219 HD
ENDBRANCH  16  38
ENDBRANCH  15  16
ENDBRANCH  14  15
ENDBRANCH  12  14
ENDBRANCH  11  12
BRANCH  11  40
HETATM   40  O   UNK N   1      29.323  13.949   3.395  0.00  0.00    -0.347 OA
HETATM   41  H   UNK N   1      29.292  13.149   2.908  0.00  0.00     0.219 HD
ENDBRANCH  11  40
ENDBRANCH  10  11
BRANCH  10  42
HETATM   42  O   UNK N   1      29.850  17.296   3.763  0.00  0.00    -0.378 OA
HETATM   43  H   UNK N   1      29.841  18.253   3.923  0.00  0.00     0.211 HD
ENDBRANCH  10  42
ENDBRANCH   5   6
ENDBRANCH   2   5
BRANCH   2  44
HETATM   44  O   UNK N   1      32.533  18.394   8.326  0.00  0.00    -0.195 OA
BRANCH  44  45
HETATM   45  P   UNK N   1      34.150  17.829   8.009  0.00  0.00     0.401 P 
HETATM   46  O   UNK N   1      35.101  18.947   8.522  0.00  0.00    -0.631 OA
BRANCH  45  47
HETATM   47  O   UNK N   1      34.505  17.617   6.324  0.00  0.00    -0.307 OA
HETATM   48  H   UNK N   1      34.175  17.030   5.627  0.00  0.00     0.222 HD
ENDBRANCH  45  47
BRANCH  45  49
HETATM   49  O   UNK N   1      34.460  16.353   8.875  0.00  0.00    -0.294 OA
BRANCH  49  50
HETATM   50  C   UNK N   1      35.243  16.696   9.970  0.00  0.00     0.215 C 
BRANCH  50  51
HETATM   51  C   UNK N   1      36.256  15.604  10.311  0.00  0.00     0.180 C 
HETATM   52  C   UNK N   1      36.098  14.362   9.400  0.00  0.00     0.197 C 
HETATM   53  C   UNK N   1      36.170  13.220  10.398  0.00  0.00     0.199 C 
HETATM   54  C   UNK N   1      35.348  13.926  11.481  0.00  0.00     0.262 C 
HETATM   55  O   UNK N   1      35.964  15.182  11.637  0.00  0.00    -0.353 OA
BRANCH  52  56
HETATM   56  O   UNK N   1      36.766  14.299   8.145  0.00  0.00    -0.286 OA
BRANCH  56  57
HETATM   57  P   UNK N   1      35.768  14.044   6.724  0.00  0.00     0.391 P 
HETATM   58  O   UNK N   1      36.045  12.645   6.112  0.00  0.00    -0.632 OA
BRANCH  57  59
HETATM   59  O   UNK N   1      35.910  15.248   5.484  0.00  0.00    -0.307 OA
HETATM   60  H   UNK N   1      36.530  15.954   5.243  0.00  0.00     0.222 HD
ENDBRANCH  57  59
BRANCH  57  61
HETATM   61  O   UNK N   1      34.110  13.976   7.237  0.00  0.00    -0.307 OA
HETATM   62  H   UNK N   1      33.415  13.718   6.611  0.00  0.00     0.222 HD
ENDBRANCH  57  61
ENDBRANCH  56  57
ENDBRANCH  52  56
BRANCH  53  63
HETATM   63  O   UNK N   1      37.468  13.015  10.873  0.00  0.00    -0.388 OA
HETATM   64  H   UNK N   1      38.422  13.104  11.026  0.00  0.00     0.210 HD
ENDBRANCH  53  63
BRANCH  54  65
HETATM   65  N   UNK N   1      35.152  13.239  12.757  0.00  0.00    -0.297 N 
HETATM   66  C   UNK N   1      34.530  12.038  12.878  0.00  0.00     0.188 A 
HETATM   67  N   UNK N   1      34.627  11.550  14.143  0.00  0.00    -0.346 N 
HETATM   68  C   UNK N   1      35.341  12.477  14.802  0.00  0.00     0.122 A 
ATOM     69  HN  UNK N   1      34.244  10.678  14.510  1.00  0.00     0.167 HD
HETATM   70  C   UNK N   1      35.808  12.470  16.104  0.00  0.00     0.131 A 
HETATM   71  C   UNK N   1      35.643  13.502  13.977  0.00  0.00     0.142 A 
HETATM   72  N   UNK N   1      36.562  13.529  16.519  0.00  0.00    -0.337 N 
HETATM   73  C   UNK N   1      36.851  14.569  15.665  0.00  0.00     0.183 A 
ATOM     74  HN  UNK N   1      36.916  13.552  17.474  1.00  0.00     0.168 HD
HETATM   75  N   UNK N   1      36.399  14.552  14.373  0.00  0.00    -0.336 N 
ATOM     76  HN  UNK N   1      36.625  15.309  13.727  1.00  0.00     0.168 HD
BRANCH  70  77
HETATM   77  N   UNK N   1      35.552  11.385  16.965  0.00  0.00    -0.383 N 
HETATM   78  H   UNK N   1      35.386  10.487  16.593  0.00  0.00     0.157 HD
HETATM   79  H   UNK N   1      35.537  11.523  17.940  0.00  0.00     0.157 HD
ENDBRANCH  70  77
ENDBRANCH  54  65
ENDBRANCH  50  51
ENDBRANCH  49  50
ENDBRANCH  45  49
ENDBRANCH  44  45
ENDBRANCH   2  44
TORSDOF 35
ENDMDL
MODEL 3
REMARK VINA RESULT:      -6.8      5.089      8.769
REMARK WARNING: 32 MAX_TORS EXCEEDED!!!
REMARK  35 active torsions:
REMARK  status: ('A' for Active; 'I' for Inactive)
REMARK    1  A    between atoms: C_6  and  C_5 
REMARK    2  A    between atoms: C_16  and  C_5 
REMARK    3  A    between atoms: C_21  and  C_6 
REMARK    4  A    between atoms: C_8  and  C_7 
REMARK    5  A    between atoms: C_20  and  C_7 
REMARK    6  A    between atoms: N_36  and  C_8 
REMARK    7  A    between atoms: C_10  and  C_9 
REMARK    8  A    between atoms: N_34  and  C_9 
REMARK    9  A    between atoms: S_68  and  C_10 
REMARK   10  A    between atoms: C_19  and  C_13 
REMARK   11  A    between atoms: O_60  and  C_13 
REMARK   12  A    between atoms: O_58  and  C_17 
REMARK   13  A    between atoms: O_59  and  C_18 
REMARK   14  A    between atoms: N_34  and  C_20 
REMARK   15  A    between atoms: O_45  and  C_20 
REMARK   16  A    between atoms: S_68  and  C_21 
REMARK   17  A    between atoms: O_47  and  C_23 
REMARK   18  A    between atoms: C_24  and  O_48 
REMARK   19  A    between atoms: C_25  and  O_62 
REMARK   20  A    between atoms: N_33  and  C_26 
REMARK   21  A    between atoms: C_28  and  N_44 
REMARK   22  A    between atoms: C_29  and  O_63 
REMARK   23  A    between atoms: C_32  and  C_30 
REMARK   24  A    between atoms: N_36  and  C_30 
REMARK   25  A    between atoms: O_49  and  C_30 
REMARK   26  A    between atoms: O_50  and  C_32 
REMARK   27  A    between atoms: P_65  and  O_51 
REMARK   28  A    between atoms: P_65  and  O_52 
REMARK   29  A    between atoms: P_66  and  O_54 
REMARK   30  A    between atoms: P_67  and  O_56 
REMARK   31  A    between atoms: P_66  and  O_60 
REMARK   32  A    between atoms: P_65  and  O_62 
REMARK   33  A    between atoms: P_67  and  O_63 
REMARK   34  A    between atoms: P_66  and  O_64 
REMARK   35  A    between atoms: P_67  and  O_64 
ROOT
HETATM    1  O   UNK N   1      31.926  14.091   7.091  0.00  0.00    -0.631 OA
HETATM    2  P   UNK N   1      32.925  15.265   6.919  0.00  0.00     0.402 P 
ENDROOT
BRANCH   2   3
HETATM    3  O   UNK N   1      34.386  14.553   6.302  0.00  0.00    -0.307 OA
HETATM    4  H   UNK N   1      35.230  14.712   6.750  0.00  0.00     0.222 HD
ENDBRANCH   2   3
BRANCH   2   5
HETATM    5  O   UNK N   1      32.179  16.399   5.823  0.00  0.00    -0.287 OA
BRANCH   5   6
HETATM    6  C   UNK N   1      31.229  15.649   5.117  0.00  0.00     0.188 A 
HETATM    7  C   UNK N   1      31.438  15.586   3.602  0.00  0.00     0.024 A 
HETATM    8  C   UNK N   1      32.772  16.143   3.122  0.00  0.00     0.021 C 
HETATM    9  C   UNK N   1      30.878  14.367   2.881  0.00  0.00     0.021 C 
HETATM   10  C   UNK N   1      30.398  16.538   4.188  0.00  0.00     0.158 A 
BRANCH  10  11
HETATM   11  C   UNK N   1      28.936  16.245   4.475  0.00  0.00     0.150 C 
BRANCH  11  12
HETATM   12  N   UNK N   1      28.540  15.766   5.608  0.00  0.00    -0.371 N 
ATOM     13  HN  UNK N   1      28.775  14.797   5.821  1.00  0.00     0.161 HD
BRANCH  12  14
HETATM   14  C   UNK N   1      27.782  16.508   6.599  0.00  0.00     0.129 C 
BRANCH  14  15
HETATM   15  C   UNK N   1      28.603  17.583   7.321  0.00  0.00     0.103 C 
BRANCH  15  16
HETATM   16  C   UNK N   1      27.820  18.348   8.334  0.00  0.00     0.112 C 
BRANCH  16  17
HETATM   17  N   UNK N   1      27.428  19.537   8.049  0.00  0.00    -0.374 N 
ATOM     18  HN  UNK N   1      26.797  20.015   8.692  1.00  0.00     0.161 HD
BRANCH  17  19
HETATM   19  C   UNK N   1      27.846  20.219   6.857  0.00  0.00     0.132 C 
BRANCH  19  20
HETATM   20  C   UNK N   1      26.699  20.316   5.858  0.00  0.00     0.102 C 
BRANCH  20  21
HETATM   21  S   UNK N   1      27.188  20.003   4.118  0.00  0.00    -0.086 SA
BRANCH  21  22
HETATM   22  C   UNK N   1      25.615  19.472   3.385  0.00  0.00     0.208 C 
HETATM   23  O   UNK N   1      25.180  20.113   2.441  0.00  0.00    -0.281 OA
BRANCH  22  24
HETATM   24  C   UNK N   1      24.919  18.233   3.810  0.00  0.00     0.063 C 
BRANCH  24  25
HETATM   25  C   UNK N   1      23.784  18.282   4.525  0.00  0.00     0.016 C 
BRANCH  25  26
HETATM   26  C   UNK N   1      22.472  18.155   3.864  0.00  0.00    -0.031 A 
HETATM   27  C   UNK N   1      21.883  16.908   3.629  0.00  0.00     0.051 A 
HETATM   28  C   UNK N   1      20.701  16.795   2.897  0.00  0.00     0.104 A 
HETATM   29  C   UNK N   1      20.127  17.964   2.326  0.00  0.00     0.133 A 
HETATM   30  C   UNK N   1      20.737  19.228   2.552  0.00  0.00     0.104 A 
HETATM   31  C   UNK N   1      21.883  19.303   3.343  0.00  0.00     0.051 A 
BRANCH  28  32
HETATM   32  O   UNK N   1      20.172  15.550   2.752  0.00  0.00    -0.353 OA
HETATM   33  C   UNK N   1      20.489  14.450   3.513  0.00  0.00     0.210 C 
ENDBRANCH  28  32
BRANCH  29  34
HETATM   34  O   UNK N   1      19.016  17.874   1.575  0.00  0.00    -0.356 OA
HETATM   35  H   UNK N   1      18.199  17.600   1.944  0.00  0.00     0.218 HD
ENDBRANCH  29  34
BRANCH  30  36
HETATM   36  O   UNK N   1      20.282  20.389   2.010  0.00  0.00    -0.353 OA
HETATM   37  C   UNK N   1      20.684  20.919   0.805  0.00  0.00     0.210 C 
ENDBRANCH  30  36
ENDBRANCH  25  26
ENDBRANCH  24  25
ENDBRANCH  22  24
ENDBRANCH  21  22
ENDBRANCH  20  21
ENDBRANCH  19  20
ENDBRANCH  17  19
ENDBRANCH  16  17
BRANCH  16  38
HETATM   38  O   UNK N   1      27.533  17.788   9.526  0.00  0.00    -0.350 OA
HETATM   39  H   UNK N   1      26.669  17.487   9.731  0.00  0.00     0.219 HD
ENDBRANCH  16  38
ENDBRANCH  15  16
ENDBRANCH  14  15
ENDBRANCH  12  14
ENDBRANCH  11  12
BRANCH  11  40
HETATM   40  O   UNK N   1      28.017  16.463   3.514  0.00  0.00    -0.347 OA
HETATM   41  H   UNK N   1      27.277  16.723   3.000  0.00  0.00     0.219 HD
ENDBRANCH  11  40
ENDBRANCH  10  11
BRANCH  10  42
HETATM   42  O   UNK N   1      30.802  17.878   4.169  0.00  0.00    -0.378 OA
HETATM   43  H   UNK N   1      30.615  18.777   4.482  0.00  0.00     0.211 HD
ENDBRANCH  10  42
ENDBRANCH   5   6
ENDBRANCH   2   5
BRANCH   2  44
HETATM   44  O   UNK N   1      33.110  15.987   8.493  0.00  0.00    -0.195 OA
BRANCH  44  45
HETATM   45  P   UNK N   1      33.962  17.490   8.274  0.00  0.00     0.401 P 
HETATM   46  O   UNK N   1      32.891  18.610   8.398  0.00  0.00    -0.631 OA
BRANCH  45  47
HETATM   47  O   UNK N   1      34.682  17.671   6.706  0.00  0.00    -0.307 OA
HETATM   48  H   UNK N   1      35.476  17.318   6.276  0.00  0.00     0.222 HD
ENDBRANCH  45  47
BRANCH  45  49
HETATM   49  O   UNK N   1      35.168  17.692   9.512  0.00  0.00    -0.294 OA
BRANCH  49  50
HETATM   50  C   UNK N   1      34.923  16.710  10.463  0.00  0.00     0.215 C 
BRANCH  50  51
HETATM   51  C   UNK N   1      36.153  15.838  10.711  0.00  0.00     0.180 C 
HETATM   52  C   UNK N   1      36.093  14.511   9.914  0.00  0.00     0.197 C 
HETATM   53  C   UNK N   1      36.507  13.490  10.958  0.00  0.00     0.199 C 
HETATM   54  C   UNK N   1      35.734  14.141  12.109  0.00  0.00     0.262 C 
HETATM   55  O   UNK N   1      36.132  15.492  12.090  0.00  0.00    -0.353 OA
BRANCH  52  56
HETATM   56  O   UNK N   1      36.577  14.451   8.578  0.00  0.00    -0.286 OA
BRANCH  56  57
HETATM   57  P   UNK N   1      36.745  12.856   7.863  0.00  0.00     0.391 P 
HETATM   58  O   UNK N   1      35.401  12.086   7.936  0.00  0.00    -0.632 OA
BRANCH  57  59
HETATM   59  O   UNK N   1      38.007  11.868   8.526  0.00  0.00    -0.307 OA
HETATM   60  H   UNK N   1      38.953  11.958   8.726  0.00  0.00     0.222 HD
ENDBRANCH  57  59
BRANCH  57  61
HETATM   61  O   UNK N   1      37.041  13.058   6.163  0.00  0.00    -0.307 OA
HETATM   62  H   UNK N   1      37.052  13.945   5.771  0.00  0.00     0.222 HD
ENDBRANCH  57  61
ENDBRANCH  56  57
ENDBRANCH  52  56
BRANCH  53  63
HETATM   63  O   UNK N   1      37.875  13.548  11.239  0.00  0.00    -0.388 OA
HETATM   64  H   UNK N   1      38.755  13.353  11.599  0.00  0.00     0.210 HD
ENDBRANCH  53  63
BRANCH  54  65
HETATM   65  N   UNK N   1      35.846  13.547  13.441  0.00  0.00    -0.297 N 
HETATM   66  C   UNK N   1      36.523  14.123  14.468  0.00  0.00     0.188 A 
HETATM   67  N   UNK N   1      36.334  13.446  15.633  0.00  0.00    -0.346 N 
HETATM   68  C   UNK N   1      35.506  12.442  15.301  0.00  0.00     0.122 A 
ATOM     69  HN  UNK N   1      36.730  13.654  16.549  1.00  0.00     0.167 HD
HETATM   70  C   UNK N   1      34.917  11.483  16.105  0.00  0.00     0.131 A 
HETATM   71  C   UNK N   1      35.225  12.489  13.982  0.00  0.00     0.142 A 
HETATM   72  N   UNK N   1      34.065  10.592  15.519  0.00  0.00    -0.337 N 
HETATM   73  C   UNK N   1      33.800  10.650  14.170  0.00  0.00     0.183 A 
ATOM     74  HN  UNK N   1      33.620   9.872  16.088  1.00  0.00     0.168 HD
HETATM   75  N   UNK N   1      34.375  11.618  13.391  0.00  0.00    -0.336 N 
ATOM     76  HN  UNK N   1      34.168  11.681  12.394  1.00  0.00     0.168 HD
BRANCH  70  77
HETATM   77  N   UNK N   1      35.152  11.450  17.495  0.00  0.00    -0.383 N 
HETATM   78  H   UNK N   1      35.952  11.886  17.870  0.00  0.00     0.157 HD
HETATM   79  H   UNK N   1      34.517  10.991  18.090  0.00  0.00     0.157 HD
ENDBRANCH  70  77
ENDBRANCH  54  65
ENDBRANCH  50  51
ENDBRANCH  49  50
ENDBRANCH  45  49
ENDBRANCH  44  45
ENDBRANCH   2  44
TORSDOF 35
ENDMDL
MODEL 4
REMARK VINA RESULT:      -6.7      3.425      9.429
REMARK WARNING: 32 MAX_TORS EXCEEDED!!!
REMARK  35 active torsions:
REMARK  status: ('A' for Active; 'I' for Inactive)
REMARK    1  A    between atoms: C_6  and  C_5 
REMARK    2  A    between atoms: C_16  and  C_5 
REMARK    3  A    between atoms: C_21  and  C_6 
REMARK    4  A    between atoms: C_8  and  C_7 
REMARK    5  A    between atoms: C_20  and  C_7 
REMARK    6  A    between atoms: N_36  and  C_8 
REMARK    7  A    between atoms: C_10  and  C_9 
REMARK    8  A    between atoms: N_34  and  C_9 
REMARK    9  A    between atoms: S_68  and  C_10 
REMARK   10  A    between atoms: C_19  and  C_13 
REMARK   11  A    between atoms: O_60  and  C_13 
REMARK   12  A    between atoms: O_58  and  C_17 
REMARK   13  A    between atoms: O_59  and  C_18 
REMARK   14  A    between atoms: N_34  and  C_20 
REMARK   15  A    between atoms: O_45  and  C_20 
REMARK   16  A    between atoms: S_68  and  C_21 
REMARK   17  A    between atoms: O_47  and  C_23 
REMARK   18  A    between atoms: C_24  and  O_48 
REMARK   19  A    between atoms: C_25  and  O_62 
REMARK   20  A    between atoms: N_33  and  C_26 
REMARK   21  A    between atoms: C_28  and  N_44 
REMARK   22  A    between atoms: C_29  and  O_63 
REMARK   23  A    between atoms: C_32  and  C_30 
REMARK   24  A    between atoms: N_36  and  C_30 
REMARK   25  A    between atoms: O_49  and  C_30 
REMARK   26  A    between atoms: O_50  and  C_32 
REMARK   27  A    between atoms: P_65  and  O_51 
REMARK   28  A    between atoms: P_65  and  O_52 
REMARK   29  A    between atoms: P_66  and  O_54 
REMARK   30  A    between atoms: P_67  and  O_56 
REMARK   31  A    between atoms: P_66  and  O_60 
REMARK   32  A    between atoms: P_65  and  O_62 
REMARK   33  A    between atoms: P_67  and  O_63 
REMARK   34  A    between atoms: P_66  and  O_64 
REMARK   35  A    between atoms: P_67  and  O_64 
ROOT
HETATM    1  O   UNK N   1      22.061  18.548   3.446  0.00  0.00    -0.631 OA
HETATM    2  P   UNK N   1      21.665  17.106   3.858  0.00  0.00     0.402 P 
ENDROOT
BRANCH   2   3
HETATM    3  O   UNK N   1      20.967  16.386   2.439  0.00  0.00    -0.307 OA
HETATM    4  H   UNK N   1      20.578  15.499   2.486  0.00  0.00     0.222 HD
ENDBRANCH   2   3
BRANCH   2   5
HETATM    5  O   UNK N   1      23.127  16.322   4.398  0.00  0.00    -0.287 OA
BRANCH   5   6
HETATM    6  C   UNK N   1      24.133  16.806   3.549  0.00  0.00     0.188 A 
HETATM    7  C   UNK N   1      25.463  16.053   3.614  0.00  0.00     0.024 A 
HETATM    8  C   UNK N   1      25.419  14.753   4.406  0.00  0.00     0.021 C 
HETATM    9  C   UNK N   1      26.337  16.095   2.367  0.00  0.00     0.021 C 
HETATM   10  C   UNK N   1      25.304  17.382   4.349  0.00  0.00     0.158 A 
BRANCH  10  11
HETATM   11  C   UNK N   1      25.576  18.774   3.808  0.00  0.00     0.150 C 
BRANCH  11  12
HETATM   12  N   UNK N   1      26.638  19.441   4.127  0.00  0.00    -0.371 N 
ATOM     13  HN  UNK N   1      27.541  18.991   3.982  1.00  0.00     0.161 HD
BRANCH  12  14
HETATM   14  C   UNK N   1      26.635  20.785   4.677  0.00  0.00     0.129 C 
BRANCH  14  15
HETATM   15  C   UNK N   1      27.536  20.945   5.907  0.00  0.00     0.103 C 
BRANCH  15  16
HETATM   16  C   UNK N   1      27.130  20.084   7.056  0.00  0.00     0.112 C 
BRANCH  16  17
HETATM   17  N   UNK N   1      27.542  18.868   7.098  0.00  0.00    -0.374 N 
ATOM     18  HN  UNK N   1      27.196  18.207   6.402  1.00  0.00     0.161 HD
BRANCH  17  19
HETATM   19  C   UNK N   1      28.470  18.404   8.089  0.00  0.00     0.132 C 
BRANCH  19  20
HETATM   20  C   UNK N   1      29.378  17.322   7.516  0.00  0.00     0.102 C 
BRANCH  20  21
HETATM   21  S   UNK N   1      28.587  16.280   6.230  0.00  0.00    -0.086 SA
BRANCH  21  22
HETATM   22  C   UNK N   1      29.233  17.026   4.706  0.00  0.00     0.208 C 
HETATM   23  O   UNK N   1      29.224  18.244   4.617  0.00  0.00    -0.281 OA
BRANCH  22  24
HETATM   24  C   UNK N   1      29.872  16.220   3.637  0.00  0.00     0.063 C 
BRANCH  24  25
HETATM   25  C   UNK N   1      31.049  16.579   3.102  0.00  0.00     0.016 C 
BRANCH  25  26
HETATM   26  C   UNK N   1      32.312  16.320   3.817  0.00  0.00    -0.031 A 
HETATM   27  C   UNK N   1      32.955  15.079   3.752  0.00  0.00     0.051 A 
HETATM   28  C   UNK N   1      34.081  14.808   4.528  0.00  0.00     0.104 A 
HETATM   29  C   UNK N   1      34.539  15.792   5.448  0.00  0.00     0.133 A 
HETATM   30  C   UNK N   1      33.875  17.046   5.525  0.00  0.00     0.104 A 
HETATM   31  C   UNK N   1      32.790  17.297   4.685  0.00  0.00     0.051 A 
BRANCH  28  32
HETATM   32  O   UNK N   1      34.671  13.593   4.372  0.00  0.00    -0.353 OA
HETATM   33  C   UNK N   1      35.695  13.303   3.501  0.00  0.00     0.210 C 
ENDBRANCH  28  32
BRANCH  29  34
HETATM   34  O   UNK N   1      35.593  15.536   6.243  0.00  0.00    -0.356 OA
HETATM   35  H   UNK N   1      35.556  15.692   7.166  0.00  0.00     0.218 HD
ENDBRANCH  29  34
BRANCH  30  36
HETATM   36  O   UNK N   1      34.217  18.024   6.403  0.00  0.00    -0.353 OA
HETATM   37  C   UNK N   1      34.000  17.990   7.762  0.00  0.00     0.210 C 
ENDBRANCH  30  36
ENDBRANCH  25  26
ENDBRANCH  24  25
ENDBRANCH  22  24
ENDBRANCH  21  22
ENDBRANCH  20  21
ENDBRANCH  19  20
ENDBRANCH  17  19
ENDBRANCH  16  17
BRANCH  16  38
HETATM   38  O   UNK N   1      26.347  20.586   8.030  0.00  0.00    -0.350 OA
HETATM   39  H   UNK N   1      25.656  20.082   8.413  0.00  0.00     0.219 HD
ENDBRANCH  16  38
ENDBRANCH  15  16
ENDBRANCH  14  15
ENDBRANCH  12  14
ENDBRANCH  11  12
BRANCH  11  40
HETATM   40  O   UNK N   1      24.676  19.355   2.991  0.00  0.00    -0.347 OA
HETATM   41  H   UNK N   1      24.191  19.709   2.271  0.00  0.00     0.219 HD
ENDBRANCH  11  40
ENDBRANCH  10  11
BRANCH  10  42
HETATM   42  O   UNK N   1      25.176  17.235   5.735  0.00  0.00    -0.378 OA
HETATM   43  H   UNK N   1      25.519  17.496   6.604  0.00  0.00     0.211 HD
ENDBRANCH  10  42
ENDBRANCH   5   6
ENDBRANCH   2   5
BRANCH   2  44
HETATM   44  O   UNK N   1      20.547  17.265   5.183  0.00  0.00    -0.195 OA
BRANCH  44  45
HETATM   45  P   UNK N   1      21.451  17.840   6.556  0.00  0.00     0.401 P 
HETATM   46  O   UNK N   1      20.497  18.795   7.327  0.00  0.00    -0.631 OA
BRANCH  45  47
HETATM   47  O   UNK N   1      22.850  18.777   6.137  0.00  0.00    -0.307 OA
HETATM   48  H   UNK N   1      23.017  19.518   5.534  0.00  0.00     0.222 HD
ENDBRANCH  45  47
BRANCH  45  49
HETATM   49  O   UNK N   1      21.908  16.512   7.584  0.00  0.00    -0.294 OA
BRANCH  49  50
HETATM   50  C   UNK N   1      20.741  16.069   8.194  0.00  0.00     0.215 C 
BRANCH  50  51
HETATM   51  C   UNK N   1      20.577  14.554   8.077  0.00  0.00     0.180 C 
HETATM   52  C   UNK N   1      21.942  13.824   8.037  0.00  0.00     0.197 C 
HETATM   53  C   UNK N   1      21.746  12.837   6.900  0.00  0.00     0.199 C 
HETATM   54  C   UNK N   1      20.966  13.805   6.005  0.00  0.00     0.262 C 
HETATM   55  O   UNK N   1      19.942  14.311   6.828  0.00  0.00    -0.353 OA
BRANCH  52  56
HETATM   56  O   UNK N   1      22.596  13.452   9.244  0.00  0.00    -0.286 OA
BRANCH  56  57
HETATM   57  P   UNK N   1      24.263  12.918   9.115  0.00  0.00     0.391 P 
HETATM   58  O   UNK N   1      24.324  11.433   8.671  0.00  0.00    -0.632 OA
BRANCH  57  59
HETATM   59  O   UNK N   1      25.230  13.129  10.539  0.00  0.00    -0.307 OA
HETATM   60  H   UNK N   1      25.096  13.114  11.501  0.00  0.00     0.222 HD
ENDBRANCH  57  59
BRANCH  57  61
HETATM   61  O   UNK N   1      25.008  13.793   7.811  0.00  0.00    -0.307 OA
HETATM   62  H   UNK N   1      24.926  13.475   6.899  0.00  0.00     0.222 HD
ENDBRANCH  57  61
ENDBRANCH  56  57
ENDBRANCH  52  56
BRANCH  53  63
HETATM   63  O   UNK N   1      20.909  11.777   7.261  0.00  0.00    -0.388 OA
HETATM   64  H   UNK N   1      20.468  10.913   7.284  0.00  0.00     0.210 HD
ENDBRANCH  53  63
BRANCH  54  65
HETATM   65  N   UNK N   1      20.458  13.307   4.727  0.00  0.00    -0.297 N 
HETATM   66  C   UNK N   1      19.157  12.978   4.511  0.00  0.00     0.188 A 
HETATM   67  N   UNK N   1      18.923  12.701   3.200  0.00  0.00    -0.346 N 
HETATM   68  C   UNK N   1      20.114  12.884   2.606  0.00  0.00     0.122 A 
ATOM     69  HN  UNK N   1      18.044  12.419   2.766  1.00  0.00     0.167 HD
HETATM   70  C   UNK N   1      20.450  12.816   1.266  0.00  0.00     0.131 A 
HETATM   71  C   UNK N   1      21.042  13.231   3.523  0.00  0.00     0.142 A 
HETATM   72  N   UNK N   1      21.739  13.096   0.915  0.00  0.00    -0.337 N 
HETATM   73  C   UNK N   1      22.673  13.438   1.866  0.00  0.00     0.183 A 
ATOM     74  HN  UNK N   1      22.015  13.050  -0.066  1.00  0.00     0.168 HD
HETATM   75  N   UNK N   1      22.319  13.521   3.186  0.00  0.00    -0.336 N 
ATOM     76  HN  UNK N   1      23.000  13.793   3.896  1.00  0.00     0.168 HD
BRANCH  70  77
HETATM   77  N   UNK N   1      19.485  12.511   0.285  0.00  0.00    -0.383 N 
HETATM   78  H   UNK N   1      18.526  12.611   0.489  0.00  0.00     0.157 HD
HETATM   79  H   UNK N   1      19.768  12.197  -0.603  0.00  0.00     0.157 HD
ENDBRANCH  70  77
ENDBRANCH  54  65
ENDBRANCH  50  51
ENDBRANCH  49  50
ENDBRANCH  45  49
ENDBRANCH  44  45
ENDBRANCH   2  44
TORSDOF 35
ENDMDL
MODEL 5
REMARK VINA RESULT:      -6.7      3.152      8.575
REMARK WARNING: 32 MAX_TORS EXCEEDED!!!
REMARK  35 active torsions:
REMARK  status: ('A' for Active; 'I' for Inactive)
REMARK    1  A    between atoms: C_6  and  C_5 
REMARK    2  A    between atoms: C_16  and  C_5 
REMARK    3  A    between atoms: C_21  and  C_6 
REMARK    4  A    between atoms: C_8  and  C_7 
REMARK    5  A    between atoms: C_20  and  C_7 
REMARK    6  A    between atoms: N_36  and  C_8 
REMARK    7  A    between atoms: C_10  and  C_9 
REMARK    8  A    between atoms: N_34  and  C_9 
REMARK    9  A    between atoms: S_68  and  C_10 
REMARK   10  A    between atoms: C_19  and  C_13 
REMARK   11  A    between atoms: O_60  and  C_13 
REMARK   12  A    between atoms: O_58  and  C_17 
REMARK   13  A    between atoms: O_59  and  C_18 
REMARK   14  A    between atoms: N_34  and  C_20 
REMARK   15  A    between atoms: O_45  and  C_20 
REMARK   16  A    between atoms: S_68  and  C_21 
REMARK   17  A    between atoms: O_47  and  C_23 
REMARK   18  A    between atoms: C_24  and  O_48 
REMARK   19  A    between atoms: C_25  and  O_62 
REMARK   20  A    between atoms: N_33  and  C_26 
REMARK   21  A    between atoms: C_28  and  N_44 
REMARK   22  A    between atoms: C_29  and  O_63 
REMARK   23  A    between atoms: C_32  and  C_30 
REMARK   24  A    between atoms: N_36  and  C_30 
REMARK   25  A    between atoms: O_49  and  C_30 
REMARK   26  A    between atoms: O_50  and  C_32 
REMARK   27  A    between atoms: P_65  and  O_51 
REMARK   28  A    between atoms: P_65  and  O_52 
REMARK   29  A    between atoms: P_66  and  O_54 
REMARK   30  A    between atoms: P_67  and  O_56 
REMARK   31  A    between atoms: P_66  and  O_60 
REMARK   32  A    between atoms: P_65  and  O_62 
REMARK   33  A    between atoms: P_67  and  O_63 
REMARK   34  A    between atoms: P_66  and  O_64 
REMARK   35  A    between atoms: P_67  and  O_64 
ROOT
HETATM    1  O   UNK N   1      31.125  16.585   5.560  0.00  0.00    -0.631 OA
HETATM    2  P   UNK N   1      30.789  15.076   5.436  0.00  0.00     0.402 P 
ENDROOT
BRANCH   2   3
HETATM    3  O   UNK N   1      31.316  14.606   3.848  0.00  0.00    -0.307 OA
HETATM    4  H   UNK N   1      31.154  15.189   3.090  0.00  0.00     0.222 HD
ENDBRANCH   2   3
BRANCH   2   5
HETATM    5  O   UNK N   1      31.640  14.267   6.726  0.00  0.00    -0.287 OA
BRANCH   5   6
HETATM    6  C   UNK N   1      32.686  15.134   7.070  0.00  0.00     0.188 A 
HETATM    7  C   UNK N   1      33.902  14.468   7.719  0.00  0.00     0.024 A 
HETATM    8  C   UNK N   1      33.892  12.946   7.674  0.00  0.00     0.021 C 
HETATM    9  C   UNK N   1      35.241  15.175   7.554  0.00  0.00     0.021 C 
HETATM   10  C   UNK N   1      32.879  15.197   8.588  0.00  0.00     0.158 A 
BRANCH  10  11
HETATM   11  C   UNK N   1      32.878  16.664   8.980  0.00  0.00     0.150 C 
BRANCH  11  12
HETATM   12  N   UNK N   1      31.953  17.479   8.593  0.00  0.00    -0.371 N 
ATOM     13  HN  UNK N   1      32.222  18.239   7.968  1.00  0.00     0.161 HD
BRANCH  12  14
HETATM   14  C   UNK N   1      30.557  17.391   8.984  0.00  0.00     0.129 C 
BRANCH  14  15
HETATM   15  C   UNK N   1      29.728  18.614   8.577  0.00  0.00     0.103 C 
BRANCH  15  16
HETATM   16  C   UNK N   1      28.274  18.320   8.419  0.00  0.00     0.112 C 
BRANCH  16  17
HETATM   17  N   UNK N   1      27.767  18.306   7.239  0.00  0.00    -0.374 N 
ATOM     18  HN  UNK N   1      27.345  17.443   6.895  1.00  0.00     0.161 HD
BRANCH  17  19
HETATM   19  C   UNK N   1      27.773  19.460   6.386  0.00  0.00     0.132 C 
BRANCH  19  20
HETATM   20  C   UNK N   1      27.548  19.061   4.933  0.00  0.00     0.102 C 
BRANCH  20  21
HETATM   21  S   UNK N   1      27.109  20.458   3.829  0.00  0.00    -0.086 SA
BRANCH  21  22
HETATM   22  C   UNK N   1      25.484  19.939   3.208  0.00  0.00     0.208 C 
HETATM   23  O   UNK N   1      24.997  20.570   2.283  0.00  0.00    -0.281 OA
BRANCH  22  24
HETATM   24  C   UNK N   1      24.799  18.719   3.701  0.00  0.00     0.063 C 
BRANCH  24  25
HETATM   25  C   UNK N   1      23.851  18.786   4.648  0.00  0.00     0.016 C 
BRANCH  25  26
HETATM   26  C   UNK N   1      22.573  18.068   4.488  0.00  0.00    -0.031 A 
HETATM   27  C   UNK N   1      21.834  18.135   3.302  0.00  0.00     0.051 A 
HETATM   28  C   UNK N   1      20.571  17.552   3.206  0.00  0.00     0.104 A 
HETATM   29  C   UNK N   1      20.004  16.938   4.357  0.00  0.00     0.133 A 
HETATM   30  C   UNK N   1      20.749  16.886   5.565  0.00  0.00     0.104 A 
HETATM   31  C   UNK N   1      22.034  17.426   5.599  0.00  0.00     0.051 A 
BRANCH  28  32
HETATM   32  O   UNK N   1      19.938  17.624   2.004  0.00  0.00    -0.353 OA
HETATM   33  C   UNK N   1      20.018  16.691   0.997  0.00  0.00     0.210 C 
ENDBRANCH  28  32
BRANCH  29  34
HETATM   34  O   UNK N   1      18.767  16.413   4.302  0.00  0.00    -0.356 OA
HETATM   35  H   UNK N   1      18.559  15.610   4.739  0.00  0.00     0.218 HD
ENDBRANCH  29  34
BRANCH  30  36
HETATM   36  O   UNK N   1      20.268  16.359   6.722  0.00  0.00    -0.353 OA
HETATM   37  C   UNK N   1      20.200  17.014   7.930  0.00  0.00     0.210 C 
ENDBRANCH  30  36
ENDBRANCH  25  26
ENDBRANCH  24  25
ENDBRANCH  22  24
ENDBRANCH  21  22
ENDBRANCH  20  21
ENDBRANCH  19  20
ENDBRANCH  17  19
ENDBRANCH  16  17
BRANCH  16  38
HETATM   38  O   UNK N   1      27.515  18.072   9.505  0.00  0.00    -0.350 OA
HETATM   39  H   UNK N   1      27.275  17.199   9.746  0.00  0.00     0.219 HD
ENDBRANCH  16  38
ENDBRANCH  15  16
ENDBRANCH  14  15
ENDBRANCH  12  14
ENDBRANCH  11  12
BRANCH  11  40
HETATM   40  O   UNK N   1      33.884  17.148   9.734  0.00  0.00    -0.347 OA
HETATM   41  H   UNK N   1      34.489  17.671  10.223  0.00  0.00     0.219 HD
ENDBRANCH  11  40
ENDBRANCH  10  11
BRANCH  10  42
HETATM   42  O   UNK N   1      32.046  14.330   9.305  0.00  0.00    -0.378 OA
HETATM   43  H   UNK N   1      31.936  13.817  10.121  0.00  0.00     0.211 HD
ENDBRANCH  10  42
ENDBRANCH   5   6
ENDBRANCH   2   5
BRANCH   2  44
HETATM   44  O   UNK N   1      29.070  14.935   5.672  0.00  0.00    -0.195 OA
BRANCH  44  45
HETATM   45  P   UNK N   1      28.310  15.268   4.140  0.00  0.00     0.401 P 
HETATM   46  O   UNK N   1      28.381  13.941   3.331  0.00  0.00    -0.631 OA
BRANCH  45  47
HETATM   47  O   UNK N   1      29.130  16.465   3.190  0.00  0.00    -0.307 OA
HETATM   48  H   UNK N   1      30.048  16.769   3.123  0.00  0.00     0.222 HD
ENDBRANCH  45  47
BRANCH  45  49
HETATM   49  O   UNK N   1      26.647  15.724   4.371  0.00  0.00    -0.294 OA
BRANCH  49  50
HETATM   50  C   UNK N   1      26.324  15.383   5.678  0.00  0.00     0.215 C 
BRANCH  50  51
HETATM   51  C   UNK N   1      25.777  13.960   5.778  0.00  0.00     0.180 C 
HETATM   52  C   UNK N   1      24.664  13.692   4.735  0.00  0.00     0.197 C 
HETATM   53  C   UNK N   1      23.605  12.991   5.567  0.00  0.00     0.199 C 
HETATM   54  C   UNK N   1      23.791  13.873   6.805  0.00  0.00     0.262 C 
HETATM   55  O   UNK N   1      25.175  13.847   7.061  0.00  0.00    -0.353 OA
BRANCH  52  56
HETATM   56  O   UNK N   1      24.996  13.251   3.424  0.00  0.00    -0.286 OA
BRANCH  56  57
HETATM   57  P   UNK N   1      24.390  14.208   2.084  0.00  0.00     0.391 P 
HETATM   58  O   UNK N   1      23.051  14.892   2.468  0.00  0.00    -0.632 OA
BRANCH  57  59
HETATM   59  O   UNK N   1      24.188  13.356   0.586  0.00  0.00    -0.307 OA
HETATM   60  H   UNK N   1      24.625  13.321  -0.279  0.00  0.00     0.222 HD
ENDBRANCH  57  59
BRANCH  57  61
HETATM   61  O   UNK N   1      25.493  15.525   1.821  0.00  0.00    -0.307 OA
HETATM   62  H   UNK N   1      25.207  16.439   1.974  0.00  0.00     0.222 HD
ENDBRANCH  57  61
ENDBRANCH  56  57
ENDBRANCH  52  56
BRANCH  53  63
HETATM   63  O   UNK N   1      23.968  11.679   5.884  0.00  0.00    -0.388 OA
HETATM   64  H   UNK N   1      24.104  10.720   5.836  0.00  0.00     0.210 HD
ENDBRANCH  53  63
BRANCH  54  65
HETATM   65  N   UNK N   1      22.999  13.567   7.996  0.00  0.00    -0.297 N 
HETATM   66  C   UNK N   1      21.641  13.536   8.010  0.00  0.00     0.188 A 
HETATM   67  N   UNK N   1      21.163  13.068   9.194  0.00  0.00    -0.346 N 
HETATM   68  C   UNK N   1      22.266  12.794   9.910  0.00  0.00     0.122 A 
ATOM     69  HN  UNK N   1      20.190  12.952   9.475  1.00  0.00     0.167 HD
HETATM   70  C   UNK N   1      22.383  12.221  11.163  0.00  0.00     0.131 A 
HETATM   71  C   UNK N   1      23.370  13.109   9.200  0.00  0.00     0.142 A 
HETATM   72  N   UNK N   1      23.639  12.003  11.652  0.00  0.00    -0.337 N 
HETATM   73  C   UNK N   1      24.752  12.341  10.917  0.00  0.00     0.183 A 
ATOM     74  HN  UNK N   1      23.754  11.585  12.575  1.00  0.00     0.168 HD
HETATM   75  N   UNK N   1      24.620  12.888   9.669  0.00  0.00    -0.336 N 
ATOM     76  HN  UNK N   1      25.440  13.122   9.109  1.00  0.00     0.168 HD
BRANCH  70  77
HETATM   77  N   UNK N   1      21.245  11.833  11.899  0.00  0.00    -0.383 N 
HETATM   78  H   UNK N   1      21.278  11.811  12.883  0.00  0.00     0.157 HD
HETATM   79  H   UNK N   1      20.417  11.583  11.428  0.00  0.00     0.157 HD
ENDBRANCH  70  77
ENDBRANCH  54  65
ENDBRANCH  50  51
ENDBRANCH  49  50
ENDBRANCH  45  49
ENDBRANCH  44  45
ENDBRANCH   2  44
TORSDOF 35
ENDMDL
MODEL 6
REMARK VINA RESULT:      -6.6      7.216     11.776
REMARK WARNING: 32 MAX_TORS EXCEEDED!!!
REMARK  35 active torsions:
REMARK  status: ('A' for Active; 'I' for Inactive)
REMARK    1  A    between atoms: C_6  and  C_5 
REMARK    2  A    between atoms: C_16  and  C_5 
REMARK    3  A    between atoms: C_21  and  C_6 
REMARK    4  A    between atoms: C_8  and  C_7 
REMARK    5  A    between atoms: C_20  and  C_7 
REMARK    6  A    between atoms: N_36  and  C_8 
REMARK    7  A    between atoms: C_10  and  C_9 
REMARK    8  A    between atoms: N_34  and  C_9 
REMARK    9  A    between atoms: S_68  and  C_10 
REMARK   10  A    between atoms: C_19  and  C_13 
REMARK   11  A    between atoms: O_60  and  C_13 
REMARK   12  A    between atoms: O_58  and  C_17 
REMARK   13  A    between atoms: O_59  and  C_18 
REMARK   14  A    between atoms: N_34  and  C_20 
REMARK   15  A    between atoms: O_45  and  C_20 
REMARK   16  A    between atoms: S_68  and  C_21 
REMARK   17  A    between atoms: O_47  and  C_23 
REMARK   18  A    between atoms: C_24  and  O_48 
REMARK   19  A    between atoms: C_25  and  O_62 
REMARK   20  A    between atoms: N_33  and  C_26 
REMARK   21  A    between atoms: C_28  and  N_44 
REMARK   22  A    between atoms: C_29  and  O_63 
REMARK   23  A    between atoms: C_32  and  C_30 
REMARK   24  A    between atoms: N_36  and  C_30 
REMARK   25  A    between atoms: O_49  and  C_30 
REMARK   26  A    between atoms: O_50  and  C_32 
REMARK   27  A    between atoms: P_65  and  O_51 
REMARK   28  A    between atoms: P_65  and  O_52 
REMARK   29  A    between atoms: P_66  and  O_54 
REMARK   30  A    between atoms: P_67  and  O_56 
REMARK   31  A    between atoms: P_66  and  O_60 
REMARK   32  A    between atoms: P_65  and  O_62 
REMARK   33  A    between atoms: P_67  and  O_63 
REMARK   34  A    between atoms: P_66  and  O_64 
REMARK   35  A    between atoms: P_67  and  O_64 
ROOT
HETATM    1  O   UNK N   1      34.452  17.955   6.812  0.00  0.00    -0.631 OA
HETATM    2  P   UNK N   1      33.485  16.747   6.714  0.00  0.00     0.402 P 
ENDROOT
BRANCH   2   3
HETATM    3  O   UNK N   1      34.200  15.664   5.558  0.00  0.00    -0.307 OA
HETATM    4  H   UNK N   1      35.164  15.587   5.496  0.00  0.00     0.222 HD
ENDBRANCH   2   3
BRANCH   2   5
HETATM    5  O   UNK N   1      33.359  16.077   8.320  0.00  0.00    -0.287 OA
BRANCH   5   6
HETATM    6  C   UNK N   1      34.671  15.735   8.675  0.00  0.00     0.188 A 
HETATM    7  C   UNK N   1      34.918  14.243   8.912  0.00  0.00     0.024 A 
HETATM    8  C   UNK N   1      33.768  13.335   8.495  0.00  0.00     0.021 C 
HETATM    9  C   UNK N   1      36.337  13.739   8.688  0.00  0.00     0.021 C 
HETATM   10  C   UNK N   1      34.735  15.183  10.101  0.00  0.00     0.158 A 
BRANCH  10  11
HETATM   11  C   UNK N   1      35.811  15.962  10.836  0.00  0.00     0.150 C 
BRANCH  11  12
HETATM   12  N   UNK N   1      36.572  15.412  11.726  0.00  0.00    -0.371 N 
ATOM     13  HN  UNK N   1      37.517  15.152  11.446  1.00  0.00     0.161 HD
BRANCH  12  14
HETATM   14  C   UNK N   1      36.175  15.138  13.096  0.00  0.00     0.129 C 
BRANCH  14  15
HETATM   15  C   UNK N   1      36.221  13.650  13.461  0.00  0.00     0.103 C 
BRANCH  15  16
HETATM   16  C   UNK N   1      36.664  12.776  12.335  0.00  0.00     0.112 C 
BRANCH  16  17
HETATM   17  N   UNK N   1      35.786  12.083  11.704  0.00  0.00    -0.374 N 
ATOM     18  HN  UNK N   1      34.835  12.444  11.629  1.00  0.00     0.161 HD
BRANCH  17  19
HETATM   19  C   UNK N   1      36.094  10.818  11.100  0.00  0.00     0.132 C 
BRANCH  19  20
HETATM   20  C   UNK N   1      35.885   9.679  12.091  0.00  0.00     0.102 C 
BRANCH  20  21
HETATM   21  S   UNK N   1      37.426   9.083  12.887  0.00  0.00    -0.086 SA
BRANCH  21  22
HETATM   22  C   UNK N   1      37.041   9.312  14.646  0.00  0.00     0.208 C 
HETATM   23  O   UNK N   1      37.975   9.395  15.430  0.00  0.00    -0.281 OA
BRANCH  22  24
HETATM   24  C   UNK N   1      35.656   9.519  15.136  0.00  0.00     0.063 C 
BRANCH  24  25
HETATM   25  C   UNK N   1      35.163  10.751  15.333  0.00  0.00     0.016 C 
BRANCH  25  26
HETATM   26  C   UNK N   1      35.111  11.335  16.686  0.00  0.00    -0.031 A 
HETATM   27  C   UNK N   1      35.337  12.697  16.910  0.00  0.00     0.051 A 
HETATM   28  C   UNK N   1      35.405  13.214  18.203  0.00  0.00     0.104 A 
HETATM   29  C   UNK N   1      35.307  12.324  19.309  0.00  0.00     0.133 A 
HETATM   30  C   UNK N   1      35.094  10.938  19.079  0.00  0.00     0.104 A 
HETATM   31  C   UNK N   1      34.970  10.474  17.769  0.00  0.00     0.051 A 
BRANCH  28  32
HETATM   32  O   UNK N   1      35.584  14.556  18.332  0.00  0.00    -0.353 OA
HETATM   33  C   UNK N   1      36.353  15.346  17.510  0.00  0.00     0.210 C 
ENDBRANCH  28  32
BRANCH  29  34
HETATM   34  O   UNK N   1      35.420  12.791  20.565  0.00  0.00    -0.356 OA
HETATM   35  H   UNK N   1      36.179  13.266  20.842  0.00  0.00     0.218 HD
ENDBRANCH  29  34
BRANCH  30  36
HETATM   36  O   UNK N   1      35.033  10.013  20.072  0.00  0.00    -0.353 OA
HETATM   37  C   UNK N   1      33.912   9.707  20.810  0.00  0.00     0.210 C 
ENDBRANCH  30  36
ENDBRANCH  25  26
ENDBRANCH  24  25
ENDBRANCH  22  24
ENDBRANCH  21  22
ENDBRANCH  20  21
ENDBRANCH  19  20
ENDBRANCH  17  19
ENDBRANCH  16  17
BRANCH  16  38
HETATM   38  O   UNK N   1      37.966  12.726  11.994  0.00  0.00    -0.350 OA
HETATM   39  H   UNK N   1      38.421  11.910  11.915  0.00  0.00     0.219 HD
ENDBRANCH  16  38
ENDBRANCH  15  16
ENDBRANCH  14  15
ENDBRANCH  12  14
ENDBRANCH  11  12
BRANCH  11  40
HETATM   40  O   UNK N   1      35.969  17.275  10.581  0.00  0.00    -0.347 OA
HETATM   41  H   UNK N   1      36.104  18.122  10.203  0.00  0.00     0.219 HD
ENDBRANCH  11  40
ENDBRANCH  10  11
BRANCH  10  42
HETATM   42  O   UNK N   1      33.486  15.054  10.720  0.00  0.00    -0.378 OA
HETATM   43  H   UNK N   1      32.671  15.509  10.984  0.00  0.00     0.211 HD
ENDBRANCH  10  42
ENDBRANCH   5   6
ENDBRANCH   2   5
BRANCH   2  44
HETATM   44  O   UNK N   1      31.947  17.389   6.211  0.00  0.00    -0.195 OA
BRANCH  44  45
HETATM   45  P   UNK N   1      31.068  16.089   5.454  0.00  0.00     0.401 P 
HETATM   46  O   UNK N   1      31.440  14.804   6.247  0.00  0.00    -0.631 OA
BRANCH  45  47
HETATM   47  O   UNK N   1      31.521  15.797   3.805  0.00  0.00    -0.307 OA
HETATM   48  H   UNK N   1      31.656  16.358   3.027  0.00  0.00     0.222 HD
ENDBRANCH  45  47
BRANCH  45  49
HETATM   49  O   UNK N   1      29.354  16.369   5.562  0.00  0.00    -0.294 OA
BRANCH  49  50
HETATM   50  C   UNK N   1      29.002  17.094   4.431  0.00  0.00     0.215 C 
BRANCH  50  51
HETATM   51  C   UNK N   1      28.636  18.538   4.770  0.00  0.00     0.180 C 
HETATM   52  C   UNK N   1      28.204  18.694   6.249  0.00  0.00     0.197 C 
HETATM   53  C   UNK N   1      26.959  19.556   6.132  0.00  0.00     0.199 C 
HETATM   54  C   UNK N   1      26.424  18.861   4.876  0.00  0.00     0.262 C 
HETATM   55  O   UNK N   1      27.504  18.866   3.974  0.00  0.00    -0.353 OA
BRANCH  52  56
HETATM   56  O   UNK N   1      29.176  18.921   7.263  0.00  0.00    -0.286 OA
BRANCH  56  57
HETATM   57  P   UNK N   1      29.075  17.920   8.702  0.00  0.00     0.391 P 
HETATM   58  O   UNK N   1      27.748  17.116   8.710  0.00  0.00    -0.632 OA
BRANCH  57  59
HETATM   59  O   UNK N   1      29.244  18.759  10.210  0.00  0.00    -0.307 OA
HETATM   60  H   UNK N   1      29.829  19.434  10.590  0.00  0.00     0.222 HD
ENDBRANCH  57  59
BRANCH  57  61
HETATM   61  O   UNK N   1      30.318  16.711   8.603  0.00  0.00    -0.307 OA
HETATM   62  H   UNK N   1      30.358  15.996   9.258  0.00  0.00     0.222 HD
ENDBRANCH  57  61
ENDBRANCH  56  57
ENDBRANCH  52  56
BRANCH  53  63
HETATM   63  O   UNK N   1      27.265  20.884   5.821  0.00  0.00    -0.388 OA
HETATM   64  H   UNK N   1      27.452  21.833   5.899  0.00  0.00     0.210 HD
ENDBRANCH  53  63
BRANCH  54  65
HETATM   65  N   UNK N   1      25.194  19.374   4.274  0.00  0.00    -0.297 N 
HETATM   66  C   UNK N   1      25.170  20.186   3.185  0.00  0.00     0.188 A 
HETATM   67  N   UNK N   1      23.901  20.381   2.735  0.00  0.00    -0.346 N 
HETATM   68  C   UNK N   1      23.139  19.654   3.568  0.00  0.00     0.122 A 
ATOM     69  HN  UNK N   1      23.597  20.951   1.945  1.00  0.00     0.167 HD
HETATM   70  C   UNK N   1      21.776  19.422   3.539  0.00  0.00     0.131 A 
HETATM   71  C   UNK N   1      23.911  19.062   4.505  0.00  0.00     0.142 A 
HETATM   72  N   UNK N   1      21.248  18.594   4.488  0.00  0.00    -0.337 N 
HETATM   73  C   UNK N   1      22.050  18.008   5.440  0.00  0.00     0.183 A 
ATOM     74  HN  UNK N   1      20.246  18.408   4.492  1.00  0.00     0.168 HD
HETATM   75  N   UNK N   1      23.401  18.232   5.443  0.00  0.00    -0.336 N 
ATOM     76  HN  UNK N   1      24.006  17.785   6.133  1.00  0.00     0.168 HD
BRANCH  70  77
HETATM   77  N   UNK N   1      20.960  19.984   2.537  0.00  0.00    -0.383 N 
HETATM   78  H   UNK N   1      20.195  20.553   2.787  0.00  0.00     0.157 HD
HETATM   79  H   UNK N   1      21.154  19.809   1.588  0.00  0.00     0.157 HD
ENDBRANCH  70  77
ENDBRANCH  54  65
ENDBRANCH  50  51
ENDBRANCH  49  50
ENDBRANCH  45  49
ENDBRANCH  44  45
ENDBRANCH   2  44
TORSDOF 35
ENDMDL
MODEL 7
REMARK VINA RESULT:      -6.5      7.055     12.105
REMARK WARNING: 32 MAX_TORS EXCEEDED!!!
REMARK  35 active torsions:
REMARK  status: ('A' for Active; 'I' for Inactive)
REMARK    1  A    between atoms: C_6  and  C_5 
REMARK    2  A    between atoms: C_16  and  C_5 
REMARK    3  A    between atoms: C_21  and  C_6 
REMARK    4  A    between atoms: C_8  and  C_7 
REMARK    5  A    between atoms: C_20  and  C_7 
REMARK    6  A    between atoms: N_36  and  C_8 
REMARK    7  A    between atoms: C_10  and  C_9 
REMARK    8  A    between atoms: N_34  and  C_9 
REMARK    9  A    between atoms: S_68  and  C_10 
REMARK   10  A    between atoms: C_19  and  C_13 
REMARK   11  A    between atoms: O_60  and  C_13 
REMARK   12  A    between atoms: O_58  and  C_17 
REMARK   13  A    between atoms: O_59  and  C_18 
REMARK   14  A    between atoms: N_34  and  C_20 
REMARK   15  A    between atoms: O_45  and  C_20 
REMARK   16  A    between atoms: S_68  and  C_21 
REMARK   17  A    between atoms: O_47  and  C_23 
REMARK   18  A    between atoms: C_24  and  O_48 
REMARK   19  A    between atoms: C_25  and  O_62 
REMARK   20  A    between atoms: N_33  and  C_26 
REMARK   21  A    between atoms: C_28  and  N_44 
REMARK   22  A    between atoms: C_29  and  O_63 
REMARK   23  A    between atoms: C_32  and  C_30 
REMARK   24  A    between atoms: N_36  and  C_30 
REMARK   25  A    between atoms: O_49  and  C_30 
REMARK   26  A    between atoms: O_50  and  C_32 
REMARK   27  A    between atoms: P_65  and  O_51 
REMARK   28  A    between atoms: P_65  and  O_52 
REMARK   29  A    between atoms: P_66  and  O_54 
REMARK   30  A    between atoms: P_67  and  O_56 
REMARK   31  A    between atoms: P_66  and  O_60 
REMARK   32  A    between atoms: P_65  and  O_62 
REMARK   33  A    between atoms: P_67  and  O_63 
REMARK   34  A    between atoms: P_66  and  O_64 
REMARK   35  A    between atoms: P_67  and  O_64 
ROOT
HETATM    1  O   UNK N   1      28.910  18.094   7.093  0.00  0.00    -0.631 OA
HETATM    2  P   UNK N   1      28.962  17.368   5.725  0.00  0.00     0.402 P 
ENDROOT
BRANCH   2   3
HETATM    3  O   UNK N   1      29.311  18.600   4.550  0.00  0.00    -0.307 OA
HETATM    4  H   UNK N   1      29.880  19.348   4.785  0.00  0.00     0.222 HD
ENDBRANCH   2   3
BRANCH   2   5
HETATM    5  O   UNK N   1      30.202  16.148   5.854  0.00  0.00    -0.287 OA
BRANCH   5   6
HETATM    6  C   UNK N   1      31.307  16.810   6.407  0.00  0.00     0.188 A 
HETATM    7  C   UNK N   1      32.673  16.341   5.901  0.00  0.00     0.024 A 
HETATM    8  C   UNK N   1      32.618  15.399   4.705  0.00  0.00     0.021 C 
HETATM    9  C   UNK N   1      33.809  17.353   5.955  0.00  0.00     0.021 C 
HETATM   10  C   UNK N   1      32.156  15.861   7.255  0.00  0.00     0.158 A 
BRANCH  10  11
HETATM   11  C   UNK N   1      32.356  16.523   8.607  0.00  0.00     0.150 C 
BRANCH  11  12
HETATM   12  N   UNK N   1      33.319  16.188   9.401  0.00  0.00    -0.371 N 
ATOM     13  HN  UNK N   1      33.177  15.378  10.004  1.00  0.00     0.161 HD
BRANCH  12  14
HETATM   14  C   UNK N   1      34.590  16.884   9.498  0.00  0.00     0.129 C 
BRANCH  14  15
HETATM   15  C   UNK N   1      35.369  16.564  10.778  0.00  0.00     0.103 C 
BRANCH  15  16
HETATM   16  C   UNK N   1      36.055  15.239  10.740  0.00  0.00     0.112 C 
BRANCH  16  17
HETATM   17  N   UNK N   1      36.748  14.869  11.756  0.00  0.00    -0.374 N 
ATOM     18  HN  UNK N   1      37.734  14.643  11.623  1.00  0.00     0.161 HD
BRANCH  17  19
HETATM   19  C   UNK N   1      36.186  14.760  13.072  0.00  0.00     0.132 C 
BRANCH  19  20
HETATM   20  C   UNK N   1      35.403  13.461  13.221  0.00  0.00     0.102 C 
BRANCH  20  21
HETATM   21  S   UNK N   1      36.324  11.964  12.694  0.00  0.00    -0.086 SA
BRANCH  21  22
HETATM   22  C   UNK N   1      36.697  11.183  14.289  0.00  0.00     0.208 C 
HETATM   23  O   UNK N   1      37.860  11.173  14.663  0.00  0.00    -0.281 OA
BRANCH  22  24
HETATM   24  C   UNK N   1      35.636  10.674  15.192  0.00  0.00     0.063 C 
BRANCH  24  25
HETATM   25  C   UNK N   1      35.926  10.203  16.414  0.00  0.00     0.016 C 
BRANCH  25  26
HETATM   26  C   UNK N   1      35.674  11.018  17.616  0.00  0.00    -0.031 A 
HETATM   27  C   UNK N   1      35.287  10.441  18.831  0.00  0.00     0.051 A 
HETATM   28  C   UNK N   1      34.934  11.230  19.925  0.00  0.00     0.104 A 
HETATM   29  C   UNK N   1      34.904  12.644  19.775  0.00  0.00     0.133 A 
HETATM   30  C   UNK N   1      35.280  13.228  18.535  0.00  0.00     0.104 A 
HETATM   31  C   UNK N   1      35.687  12.404  17.487  0.00  0.00     0.051 A 
BRANCH  28  32
HETATM   32  O   UNK N   1      34.614  10.590  21.081  0.00  0.00    -0.353 OA
HETATM   33  C   UNK N   1      33.452   9.892  21.317  0.00  0.00     0.210 C 
ENDBRANCH  28  32
BRANCH  29  34
HETATM   34  O   UNK N   1      34.519  13.424  20.801  0.00  0.00    -0.356 OA
HETATM   35  H   UNK N   1      34.647  13.158  21.690  0.00  0.00     0.218 HD
ENDBRANCH  29  34
BRANCH  30  36
HETATM   36  O   UNK N   1      35.240  14.565  18.292  0.00  0.00    -0.353 OA
HETATM   37  C   UNK N   1      36.244  15.301  17.705  0.00  0.00     0.210 C 
ENDBRANCH  30  36
ENDBRANCH  25  26
ENDBRANCH  24  25
ENDBRANCH  22  24
ENDBRANCH  21  22
ENDBRANCH  20  21
ENDBRANCH  19  20
ENDBRANCH  17  19
ENDBRANCH  16  17
BRANCH  16  38
HETATM   38  O   UNK N   1      35.940  14.452   9.653  0.00  0.00    -0.350 OA
HETATM   39  H   UNK N   1      36.693  14.120   9.206  0.00  0.00     0.219 HD
ENDBRANCH  16  38
ENDBRANCH  15  16
ENDBRANCH  14  15
ENDBRANCH  12  14
ENDBRANCH  11  12
BRANCH  11  40
HETATM   40  O   UNK N   1      31.491  17.473   9.013  0.00  0.00    -0.347 OA
HETATM   41  H   UNK N   1      30.745  18.007   9.204  0.00  0.00     0.219 HD
ENDBRANCH  11  40
ENDBRANCH  10  11
BRANCH  10  42
HETATM   42  O   UNK N   1      31.716  14.532   7.239  0.00  0.00    -0.378 OA
HETATM   43  H   UNK N   1      31.964  13.604   7.376  0.00  0.00     0.211 HD
ENDBRANCH  10  42
ENDBRANCH   5   6
ENDBRANCH   2   5
BRANCH   2  44
HETATM   44  O   UNK N   1      27.405  16.618   5.509  0.00  0.00    -0.195 OA
BRANCH  44  45
HETATM   45  P   UNK N   1      26.286  17.873   5.054  0.00  0.00     0.401 P 
HETATM   46  O   UNK N   1      26.529  18.133   3.541  0.00  0.00    -0.631 OA
BRANCH  45  47
HETATM   47  O   UNK N   1      26.556  19.385   5.861  0.00  0.00    -0.307 OA
HETATM   48  H   UNK N   1      26.403  19.714   6.760  0.00  0.00     0.222 HD
ENDBRANCH  45  47
BRANCH  45  49
HETATM   49  O   UNK N   1      24.647  17.347   5.303  0.00  0.00    -0.294 OA
BRANCH  49  50
HETATM   50  C   UNK N   1      23.961  17.630   4.128  0.00  0.00     0.215 C 
BRANCH  50  51
HETATM   51  C   UNK N   1      22.604  16.930   4.077  0.00  0.00     0.180 C 
HETATM   52  C   UNK N   1      21.432  17.941   4.029  0.00  0.00     0.197 C 
HETATM   53  C   UNK N   1      20.467  17.364   5.050  0.00  0.00     0.199 C 
HETATM   54  C   UNK N   1      21.551  16.952   6.052  0.00  0.00     0.262 C 
HETATM   55  O   UNK N   1      22.475  16.207   5.295  0.00  0.00    -0.353 OA
BRANCH  52  56
HETATM   56  O   UNK N   1      20.978  18.459   2.784  0.00  0.00    -0.286 OA
BRANCH  56  57
HETATM   57  P   UNK N   1      20.968  20.205   2.605  0.00  0.00     0.391 P 
HETATM   58  O   UNK N   1      20.195  20.866   3.777  0.00  0.00    -0.632 OA
BRANCH  57  59
HETATM   59  O   UNK N   1      20.342  20.800   1.101  0.00  0.00    -0.307 OA
HETATM   60  H   UNK N   1      20.662  21.335   0.357  0.00  0.00     0.222 HD
ENDBRANCH  57  59
BRANCH  57  61
HETATM   61  O   UNK N   1      22.600  20.773   2.784  0.00  0.00    -0.307 OA
HETATM   62  H   UNK N   1      22.863  21.266   3.577  0.00  0.00     0.222 HD
ENDBRANCH  57  61
ENDBRANCH  56  57
ENDBRANCH  52  56
BRANCH  53  63
HETATM   63  O   UNK N   1      19.824  16.216   4.579  0.00  0.00    -0.388 OA
HETATM   64  H   UNK N   1      19.161  15.616   4.203  0.00  0.00     0.210 HD
ENDBRANCH  53  63
BRANCH  54  65
HETATM   65  N   UNK N   1      21.137  16.255   7.269  0.00  0.00    -0.297 N 
HETATM   66  C   UNK N   1      20.011  16.559   7.966  0.00  0.00     0.188 A 
HETATM   67  N   UNK N   1      19.778  15.658   8.957  0.00  0.00    -0.346 N 
HETATM   68  C   UNK N   1      20.783  14.775   8.844  0.00  0.00     0.122 A 
ATOM     69  HN  UNK N   1      19.013  15.653   9.632  1.00  0.00     0.167 HD
HETATM   70  C   UNK N   1      21.011  13.605   9.545  0.00  0.00     0.131 A 
HETATM   71  C   UNK N   1      21.612  15.140   7.843  0.00  0.00     0.142 A 
HETATM   72  N   UNK N   1      22.097  12.853   9.199  0.00  0.00    -0.337 N 
HETATM   73  C   UNK N   1      22.935  13.247   8.182  0.00  0.00     0.183 A 
ATOM     74  HN  UNK N   1      22.290  11.987   9.702  1.00  0.00     0.168 HD
HETATM   75  N   UNK N   1      22.684  14.398   7.484  0.00  0.00    -0.336 N 
ATOM     76  HN  UNK N   1      23.289  14.688   6.714  1.00  0.00     0.168 HD
BRANCH  70  77
HETATM   77  N   UNK N   1      20.128  13.175  10.557  0.00  0.00    -0.383 N 
HETATM   78  H   UNK N   1      19.910  13.775  11.307  0.00  0.00     0.157 HD
HETATM   79  H   UNK N   1      19.730  12.276  10.513  0.00  0.00     0.157 HD
ENDBRANCH  70  77
ENDBRANCH  54  65
ENDBRANCH  50  51
ENDBRANCH  49  50
ENDBRANCH  45  49
ENDBRANCH  44  45
ENDBRANCH   2  44
TORSDOF 35
ENDMDL
MODEL 8
REMARK VINA RESULT:      -6.5      2.441      3.813
REMARK WARNING: 32 MAX_TORS EXCEEDED!!!
REMARK  35 active torsions:
REMARK  status: ('A' for Active; 'I' for Inactive)
REMARK    1  A    between atoms: C_6  and  C_5 
REMARK    2  A    between atoms: C_16  and  C_5 
REMARK    3  A    between atoms: C_21  and  C_6 
REMARK    4  A    between atoms: C_8  and  C_7 
REMARK    5  A    between atoms: C_20  and  C_7 
REMARK    6  A    between atoms: N_36  and  C_8 
REMARK    7  A    between atoms: C_10  and  C_9 
REMARK    8  A    between atoms: N_34  and  C_9 
REMARK    9  A    between atoms: S_68  and  C_10 
REMARK   10  A    between atoms: C_19  and  C_13 
REMARK   11  A    between atoms: O_60  and  C_13 
REMARK   12  A    between atoms: O_58  and  C_17 
REMARK   13  A    between atoms: O_59  and  C_18 
REMARK   14  A    between atoms: N_34  and  C_20 
REMARK   15  A    between atoms: O_45  and  C_20 
REMARK   16  A    between atoms: S_68  and  C_21 
REMARK   17  A    between atoms: O_47  and  C_23 
REMARK   18  A    between atoms: C_24  and  O_48 
REMARK   19  A    between atoms: C_25  and  O_62 
REMARK   20  A    between atoms: N_33  and  C_26 
REMARK   21  A    between atoms: C_28  and  N_44 
REMARK   22  A    between atoms: C_29  and  O_63 
REMARK   23  A    between atoms: C_32  and  C_30 
REMARK   24  A    between atoms: N_36  and  C_30 
REMARK   25  A    between atoms: O_49  and  C_30 
REMARK   26  A    between atoms: O_50  and  C_32 
REMARK   27  A    between atoms: P_65  and  O_51 
REMARK   28  A    between atoms: P_65  and  O_52 
REMARK   29  A    between atoms: P_66  and  O_54 
REMARK   30  A    between atoms: P_67  and  O_56 
REMARK   31  A    between atoms: P_66  and  O_60 
REMARK   32  A    between atoms: P_65  and  O_62 
REMARK   33  A    between atoms: P_67  and  O_63 
REMARK   34  A    between atoms: P_66  and  O_64 
REMARK   35  A    between atoms: P_67  and  O_64 
ROOT
HETATM    1  O   UNK N   1      29.067  11.081   3.492  0.00  0.00    -0.631 OA
HETATM    2  P   UNK N   1      28.870  12.575   3.856  0.00  0.00     0.402 P 
ENDROOT
BRANCH   2   3
HETATM    3  O   UNK N   1      28.824  13.426   2.341  0.00  0.00    -0.307 OA
HETATM    4  H   UNK N   1      29.527  13.293   1.688  0.00  0.00     0.222 HD
ENDBRANCH   2   3
BRANCH   2   5
HETATM    5  O   UNK N   1      27.384  12.676   4.764  0.00  0.00    -0.287 OA
BRANCH   5   6
HETATM    6  C   UNK N   1      27.315  14.005   5.201  0.00  0.00     0.188 A 
HETATM    7  C   UNK N   1      26.128  14.337   6.109  0.00  0.00     0.024 A 
HETATM    8  C   UNK N   1      25.341  13.126   6.591  0.00  0.00     0.021 C 
HETATM    9  C   UNK N   1      26.308  15.498   7.077  0.00  0.00     0.021 C 
HETATM   10  C   UNK N   1      26.086  14.715   4.630  0.00  0.00     0.158 A 
BRANCH  10  11
HETATM   11  C   UNK N   1      26.567  16.006   3.993  0.00  0.00     0.150 C 
BRANCH  11  12
HETATM   12  N   UNK N   1      25.774  17.005   3.779  0.00  0.00    -0.371 N 
ATOM     13  HN  UNK N   1      25.867  17.503   2.895  1.00  0.00     0.161 HD
BRANCH  12  14
HETATM   14  C   UNK N   1      24.761  17.469   4.710  0.00  0.00     0.129 C 
BRANCH  14  15
HETATM   15  C   UNK N   1      23.741  18.424   4.080  0.00  0.00     0.103 C 
BRANCH  15  16
HETATM   16  C   UNK N   1      22.485  18.559   4.873  0.00  0.00     0.112 C 
BRANCH  16  17
HETATM   17  N   UNK N   1      21.420  18.971   4.285  0.00  0.00    -0.374 N 
ATOM     18  HN  UNK N   1      20.518  18.598   4.582  1.00  0.00     0.161 HD
BRANCH  17  19
HETATM   19  C   UNK N   1      21.452  19.937   3.224  0.00  0.00     0.132 C 
BRANCH  19  20
HETATM   20  C   UNK N   1      20.637  19.457   2.029  0.00  0.00     0.102 C 
BRANCH  20  21
HETATM   21  S   UNK N   1      19.546  18.027   2.390  0.00  0.00    -0.086 SA
BRANCH  21  22
HETATM   22  C   UNK N   1      20.246  16.749   1.308  0.00  0.00     0.208 C 
HETATM   23  O   UNK N   1      20.297  16.980   0.109  0.00  0.00    -0.281 OA
BRANCH  22  24
HETATM   24  C   UNK N   1      20.859  15.507   1.839  0.00  0.00     0.063 C 
BRANCH  24  25
HETATM   25  C   UNK N   1      21.791  15.546   2.803  0.00  0.00     0.016 C 
BRANCH  25  26
HETATM   26  C   UNK N   1      21.634  14.756   4.038  0.00  0.00    -0.031 A 
HETATM   27  C   UNK N   1      22.102  13.442   4.136  0.00  0.00     0.051 A 
HETATM   28  C   UNK N   1      21.839  12.665   5.264  0.00  0.00     0.104 A 
HETATM   29  C   UNK N   1      21.026  13.203   6.299  0.00  0.00     0.133 A 
HETATM   30  C   UNK N   1      20.537  14.533   6.190  0.00  0.00     0.104 A 
HETATM   31  C   UNK N   1      20.876  15.296   5.073  0.00  0.00     0.051 A 
BRANCH  28  32
HETATM   32  O   UNK N   1      22.368  11.412   5.298  0.00  0.00    -0.353 OA
HETATM   33  C   UNK N   1      22.165  10.429   4.358  0.00  0.00     0.210 C 
ENDBRANCH  28  32
BRANCH  29  34
HETATM   34  O   UNK N   1      20.717  12.456   7.374  0.00  0.00    -0.356 OA
HETATM   35  H   UNK N   1      21.255  12.461   8.142  0.00  0.00     0.218 HD
ENDBRANCH  29  34
BRANCH  30  36
HETATM   36  O   UNK N   1      19.719  15.110   7.109  0.00  0.00    -0.353 OA
HETATM   37  C   UNK N   1      20.133  15.819   8.213  0.00  0.00     0.210 C 
ENDBRANCH  30  36
ENDBRANCH  25  26
ENDBRANCH  24  25
ENDBRANCH  22  24
ENDBRANCH  21  22
ENDBRANCH  20  21
ENDBRANCH  19  20
ENDBRANCH  17  19
ENDBRANCH  16  17
BRANCH  16  38
HETATM   38  O   UNK N   1      22.479  18.248   6.184  0.00  0.00    -0.350 OA
HETATM   39  H   UNK N   1      21.739  17.841   6.588  0.00  0.00     0.219 HD
ENDBRANCH  16  38
ENDBRANCH  15  16
ENDBRANCH  14  15
ENDBRANCH  12  14
ENDBRANCH  11  12
BRANCH  11  40
HETATM   40  O   UNK N   1      27.853  16.116   3.609  0.00  0.00    -0.347 OA
HETATM   41  H   UNK N   1      28.779  16.035   3.482  0.00  0.00     0.219 HD
ENDBRANCH  11  40
ENDBRANCH  10  11
BRANCH  10  42
HETATM   42  O   UNK N   1      25.249  13.887   3.872  0.00  0.00    -0.378 OA
HETATM   43  H   UNK N   1      24.919  12.984   3.742  0.00  0.00     0.211 HD
ENDBRANCH  10  42
ENDBRANCH   5   6
ENDBRANCH   2   5
BRANCH   2  44
HETATM   44  O   UNK N   1      30.219  13.017   4.864  0.00  0.00    -0.195 OA
BRANCH  44  45
HETATM   45  P   UNK N   1      31.305  13.965   3.887  0.00  0.00     0.401 P 
HETATM   46  O   UNK N   1      30.536  15.269   3.536  0.00  0.00    -0.631 OA
BRANCH  45  47
HETATM   47  O   UNK N   1      31.726  13.222   2.376  0.00  0.00    -0.307 OA
HETATM   48  H   UNK N   1      31.223  12.898   1.614  0.00  0.00     0.222 HD
ENDBRANCH  45  47
BRANCH  45  49
HETATM   49  O   UNK N   1      32.745  14.357   4.781  0.00  0.00    -0.294 OA
BRANCH  49  50
HETATM   50  C   UNK N   1      32.361  14.479   6.111  0.00  0.00     0.215 C 
BRANCH  50  51
HETATM   51  C   UNK N   1      32.563  15.899   6.635  0.00  0.00     0.180 C 
HETATM   52  C   UNK N   1      32.966  15.914   8.130  0.00  0.00     0.197 C 
HETATM   53  C   UNK N   1      32.070  17.001   8.695  0.00  0.00     0.199 C 
HETATM   54  C   UNK N   1      30.839  16.612   7.870  0.00  0.00     0.262 C 
HETATM   55  O   UNK N   1      31.301  16.548   6.542  0.00  0.00    -0.353 OA
BRANCH  52  56
HETATM   56  O   UNK N   1      34.333  15.802   8.509  0.00  0.00    -0.286 OA
BRANCH  56  57
HETATM   57  P   UNK N   1      34.672  15.619  10.221  0.00  0.00     0.391 P 
HETATM   58  O   UNK N   1      35.967  14.791  10.431  0.00  0.00    -0.632 OA
BRANCH  57  59
HETATM   59  O   UNK N   1      33.393  14.929  11.168  0.00  0.00    -0.307 OA
HETATM   60  H   UNK N   1      32.723  14.234  11.064  0.00  0.00     0.222 HD
ENDBRANCH  57  59
BRANCH  57  61
HETATM   61  O   UNK N   1      35.048  17.188  10.866  0.00  0.00    -0.307 OA
HETATM   62  H   UNK N   1      35.877  17.630  10.625  0.00  0.00     0.222 HD
ENDBRANCH  57  61
ENDBRANCH  56  57
ENDBRANCH  52  56
BRANCH  53  63
HETATM   63  O   UNK N   1      32.487  18.280   8.313  0.00  0.00    -0.388 OA
HETATM   64  H   UNK N   1      32.488  19.223   8.086  0.00  0.00     0.210 HD
ENDBRANCH  53  63
BRANCH  54  65
HETATM   65  N   UNK N   1      29.633  17.431   8.001  0.00  0.00    -0.297 N 
HETATM   66  C   UNK N   1      29.066  17.750   9.193  0.00  0.00     0.188 A 
HETATM   67  N   UNK N   1      28.057  18.650   9.042  0.00  0.00    -0.346 N 
HETATM   68  C   UNK N   1      28.026  18.892   7.721  0.00  0.00     0.122 A 
ATOM     69  HN  UNK N   1      27.461  19.050   9.765  1.00  0.00     0.167 HD
HETATM   70  C   UNK N   1      27.248  19.785   7.007  0.00  0.00     0.131 A 
HETATM   71  C   UNK N   1      28.959  18.148   7.091  0.00  0.00     0.142 A 
HETATM   72  N   UNK N   1      27.448  19.872   5.659  0.00  0.00    -0.337 N 
HETATM   73  C   UNK N   1      28.397  19.097   5.034  0.00  0.00     0.183 A 
ATOM     74  HN  UNK N   1      26.885  20.519   5.107  1.00  0.00     0.168 HD
HETATM   75  N   UNK N   1      29.175  18.233   5.758  0.00  0.00    -0.336 N 
ATOM     76  HN  UNK N   1      29.895  17.670   5.305  1.00  0.00     0.168 HD
BRANCH  70  77
HETATM   77  N   UNK N   1      26.306  20.612   7.652  0.00  0.00    -0.383 N 
HETATM   78  H   UNK N   1      25.435  20.244   7.929  0.00  0.00     0.157 HD
HETATM   79  H   UNK N   1      26.518  21.557   7.825  0.00  0.00     0.157 HD
ENDBRANCH  70  77
ENDBRANCH  54  65
ENDBRANCH  50  51
ENDBRANCH  49  50
ENDBRANCH  45  49
ENDBRANCH  44  45
ENDBRANCH   2  44
TORSDOF 35
ENDMDL
MODEL 9
REMARK VINA RESULT:      -6.4      5.102      9.295
REMARK WARNING: 32 MAX_TORS EXCEEDED!!!
REMARK  35 active torsions:
REMARK  status: ('A' for Active; 'I' for Inactive)
REMARK    1  A    between atoms: C_6  and  C_5 
REMARK    2  A    between atoms: C_16  and  C_5 
REMARK    3  A    between atoms: C_21  and  C_6 
REMARK    4  A    between atoms: C_8  and  C_7 
REMARK    5  A    between atoms: C_20  and  C_7 
REMARK    6  A    between atoms: N_36  and  C_8 
REMARK    7  A    between atoms: C_10  and  C_9 
REMARK    8  A    between atoms: N_34  and  C_9 
REMARK    9  A    between atoms: S_68  and  C_10 
REMARK   10  A    between atoms: C_19  and  C_13 
REMARK   11  A    between atoms: O_60  and  C_13 
REMARK   12  A    between atoms: O_58  and  C_17 
REMARK   13  A    between atoms: O_59  and  C_18 
REMARK   14  A    between atoms: N_34  and  C_20 
REMARK   15  A    between atoms: O_45  and  C_20 
REMARK   16  A    between atoms: S_68  and  C_21 
REMARK   17  A    between atoms: O_47  and  C_23 
REMARK   18  A    between atoms: C_24  and  O_48 
REMARK   19  A    between atoms: C_25  and  O_62 
REMARK   20  A    between atoms: N_33  and  C_26 
REMARK   21  A    between atoms: C_28  and  N_44 
REMARK   22  A    between atoms: C_29  and  O_63 
REMARK   23  A    between atoms: C_32  and  C_30 
REMARK   24  A    between atoms: N_36  and  C_30 
REMARK   25  A    between atoms: O_49  and  C_30 
REMARK   26  A    between atoms: O_50  and  C_32 
REMARK   27  A    between atoms: P_65  and  O_51 
REMARK   28  A    between atoms: P_65  and  O_52 
REMARK   29  A    between atoms: P_66  and  O_54 
REMARK   30  A    between atoms: P_67  and  O_56 
REMARK   31  A    between atoms: P_66  and  O_60 
REMARK   32  A    between atoms: P_65  and  O_62 
REMARK   33  A    between atoms: P_67  and  O_63 
REMARK   34  A    between atoms: P_66  and  O_64 
REMARK   35  A    between atoms: P_67  and  O_64 
ROOT
HETATM    1  O   UNK N   1      34.185  17.977   6.350  0.00  0.00    -0.631 OA
HETATM    2  P   UNK N   1      34.249  17.773   7.885  0.00  0.00     0.402 P 
ENDROOT
BRANCH   2   3
HETATM    3  O   UNK N   1      35.313  19.012   8.481  0.00  0.00    -0.307 OA
HETATM    4  H   UNK N   1      35.464  19.105   9.434  0.00  0.00     0.222 HD
ENDBRANCH   2   3
BRANCH   2   5
HETATM    5  O   UNK N   1      32.613  17.908   8.476  0.00  0.00    -0.287 OA
BRANCH   5   6
HETATM    6  C   UNK N   1      31.805  17.535   7.393  0.00  0.00     0.188 A 
HETATM    7  C   UNK N   1      30.333  17.286   7.729  0.00  0.00     0.024 A 
HETATM    8  C   UNK N   1      29.921  17.712   9.132  0.00  0.00     0.021 C 
HETATM    9  C   UNK N   1      29.328  17.489   6.602  0.00  0.00     0.021 C 
HETATM   10  C   UNK N   1      31.285  16.105   7.555  0.00  0.00     0.158 A 
BRANCH  10  11
HETATM   11  C   UNK N   1      31.608  15.361   6.272  0.00  0.00     0.150 C 
BRANCH  11  12
HETATM   12  N   UNK N   1      30.730  14.637   5.657  0.00  0.00    -0.371 N 
ATOM     13  HN  UNK N   1      29.906  14.345   6.180  1.00  0.00     0.161 HD
BRANCH  12  14
HETATM   14  C   UNK N   1      30.836  14.209   4.273  0.00  0.00     0.129 C 
BRANCH  14  15
HETATM   15  C   UNK N   1      29.589  14.519   3.439  0.00  0.00     0.103 C 
BRANCH  15  16
HETATM   16  C   UNK N   1      29.366  15.978   3.223  0.00  0.00     0.112 C 
BRANCH  16  17
HETATM   17  N   UNK N   1      28.170  16.402   3.026  0.00  0.00    -0.374 N 
ATOM     18  HN  UNK N   1      28.036  17.336   2.638  1.00  0.00     0.161 HD
BRANCH  17  19
HETATM   19  C   UNK N   1      27.013  15.611   3.335  0.00  0.00     0.132 C 
BRANCH  19  20
HETATM   20  C   UNK N   1      25.735  16.417   3.137  0.00  0.00     0.102 C 
BRANCH  20  21
HETATM   21  S   UNK N   1      25.133  17.256   4.653  0.00  0.00    -0.086 SA
BRANCH  21  22
HETATM   22  C   UNK N   1      23.809  16.136   5.190  0.00  0.00     0.208 C 
HETATM   23  O   UNK N   1      23.998  14.935   5.084  0.00  0.00    -0.281 OA
BRANCH  22  24
HETATM   24  C   UNK N   1      22.576  16.626   5.854  0.00  0.00     0.063 C 
BRANCH  24  25
HETATM   25  C   UNK N   1      21.372  16.493   5.275  0.00  0.00     0.016 C 
BRANCH  25  26
HETATM   26  C   UNK N   1      21.177  16.832   3.854  0.00  0.00    -0.031 A 
HETATM   27  C   UNK N   1      20.962  18.150   3.434  0.00  0.00     0.051 A 
HETATM   28  C   UNK N   1      20.658  18.443   2.105  0.00  0.00     0.104 A 
HETATM   29  C   UNK N   1      20.500  17.374   1.181  0.00  0.00     0.133 A 
HETATM   30  C   UNK N   1      20.701  16.035   1.613  0.00  0.00     0.104 A 
HETATM   31  C   UNK N   1      21.066  15.792   2.937  0.00  0.00     0.051 A 
BRANCH  28  32
HETATM   32  O   UNK N   1      20.508  19.753   1.772  0.00  0.00    -0.353 OA
HETATM   33  C   UNK N   1      21.150  20.812   2.370  0.00  0.00     0.210 C 
ENDBRANCH  28  32
BRANCH  29  34
HETATM   34  O   UNK N   1      20.158  17.628  -0.095  0.00  0.00    -0.356 OA
HETATM   35  H   UNK N   1      19.343  17.330  -0.449  0.00  0.00     0.218 HD
ENDBRANCH  29  34
BRANCH  30  36
HETATM   36  O   UNK N   1      20.529  14.952   0.810  0.00  0.00    -0.353 OA
HETATM   37  C   UNK N   1      19.401  14.166   0.761  0.00  0.00     0.210 C 
ENDBRANCH  30  36
ENDBRANCH  25  26
ENDBRANCH  24  25
ENDBRANCH  22  24
ENDBRANCH  21  22
ENDBRANCH  20  21
ENDBRANCH  19  20
ENDBRANCH  17  19
ENDBRANCH  16  17
BRANCH  16  38
HETATM   38  O   UNK N   1      30.411  16.829   3.238  0.00  0.00    -0.350 OA
HETATM   39  H   UNK N   1      30.307  17.729   3.476  0.00  0.00     0.219 HD
ENDBRANCH  16  38
ENDBRANCH  15  16
ENDBRANCH  14  15
ENDBRANCH  12  14
ENDBRANCH  11  12
BRANCH  11  40
HETATM   40  O   UNK N   1      32.853  15.427   5.764  0.00  0.00    -0.347 OA
HETATM   41  H   UNK N   1      33.757  15.596   5.580  0.00  0.00     0.219 HD
ENDBRANCH  11  40
ENDBRANCH  10  11
BRANCH  10  42
HETATM   42  O   UNK N   1      31.642  15.501   8.766  0.00  0.00    -0.378 OA
HETATM   43  H   UNK N   1      32.271  15.496   9.504  0.00  0.00     0.211 HD
ENDBRANCH  10  42
ENDBRANCH   5   6
ENDBRANCH   2   5
BRANCH   2  44
HETATM   44  O   UNK N   1      34.846  16.157   8.141  0.00  0.00    -0.195 OA
BRANCH  44  45
HETATM   45  P   UNK N   1      35.112  15.970   9.853  0.00  0.00     0.401 P 
HETATM   46  O   UNK N   1      33.824  15.303  10.414  0.00  0.00    -0.631 OA
BRANCH  45  47
HETATM   47  O   UNK N   1      35.299  17.469  10.706  0.00  0.00    -0.307 OA
HETATM   48  H   UNK N   1      35.042  17.790  11.584  0.00  0.00     0.222 HD
ENDBRANCH  45  47
BRANCH  45  49
HETATM   49  O   UNK N   1      36.482  14.939  10.148  0.00  0.00    -0.294 OA
BRANCH  49  50
HETATM   50  C   UNK N   1      36.512  14.018   9.109  0.00  0.00     0.215 C 
BRANCH  50  51
HETATM   51  C   UNK N   1      36.355  12.584   9.613  0.00  0.00     0.180 C 
HETATM   52  C   UNK N   1      34.992  11.972   9.205  0.00  0.00     0.197 C 
HETATM   53  C   UNK N   1      34.534  11.318  10.497  0.00  0.00     0.199 C 
HETATM   54  C   UNK N   1      35.028  12.445  11.409  0.00  0.00     0.262 C 
HETATM   55  O   UNK N   1      36.369  12.651  11.033  0.00  0.00    -0.353 OA
BRANCH  52  56
HETATM   56  O   UNK N   1      34.840  11.326   7.947  0.00  0.00    -0.286 OA
BRANCH  56  57
HETATM   57  P   UNK N   1      33.484  11.829   6.952  0.00  0.00     0.391 P 
HETATM   58  O   UNK N   1      32.634  12.894   7.693  0.00  0.00    -0.632 OA
BRANCH  57  59
HETATM   59  O   UNK N   1      32.447  10.553   6.401  0.00  0.00    -0.307 OA
HETATM   60  H   UNK N   1      32.524   9.606   6.202  0.00  0.00     0.222 HD
ENDBRANCH  57  59
BRANCH  57  61
HETATM   61  O   UNK N   1      34.115  12.662   5.564  0.00  0.00    -0.307 OA
HETATM   62  H   UNK N   1      35.020  12.491   5.261  0.00  0.00     0.222 HD
ENDBRANCH  57  61
ENDBRANCH  56  57
ENDBRANCH  52  56
BRANCH  53  63
HETATM   63  O   UNK N   1      35.253  10.154  10.782  0.00  0.00    -0.388 OA
HETATM   64  H   UNK N   1      35.484   9.226  10.945  0.00  0.00     0.210 HD
ENDBRANCH  53  63
BRANCH  54  65
HETATM   65  N   UNK N   1      34.874  12.281  12.854  0.00  0.00    -0.297 N 
HETATM   66  C   UNK N   1      34.206  11.247  13.428  0.00  0.00     0.188 A 
HETATM   67  N   UNK N   1      34.352  11.246  14.780  0.00  0.00    -0.346 N 
HETATM   68  C   UNK N   1      35.144  12.302  15.028  0.00  0.00     0.122 A 
ATOM     69  HN  UNK N   1      33.951  10.593  15.453  1.00  0.00     0.167 HD
HETATM   70  C   UNK N   1      35.683  12.737  16.224  0.00  0.00     0.131 A 
HETATM   71  C   UNK N   1      35.445  12.936  13.875  0.00  0.00     0.142 A 
HETATM   72  N   UNK N   1      36.508  13.825  16.196  0.00  0.00    -0.337 N 
HETATM   73  C   UNK N   1      36.794  14.464  15.012  0.00  0.00     0.183 A 
ATOM     74  HN  UNK N   1      36.916  14.170  17.064  1.00  0.00     0.168 HD
HETATM   75  N   UNK N   1      36.269  14.009  13.832  0.00  0.00    -0.336 N 
ATOM     76  HN  UNK N   1      36.493  14.464  12.947  1.00  0.00     0.168 HD
BRANCH  70  77
HETATM   77  N   UNK N   1      35.428  12.057  17.432  0.00  0.00    -0.383 N 
HETATM   78  H   UNK N   1      36.127  11.494  17.838  0.00  0.00     0.157 HD
HETATM   79  H   UNK N   1      34.550  12.144  17.869  0.00  0.00     0.157 HD
ENDBRANCH  70  77
ENDBRANCH  54  65
ENDBRANCH  50  51
ENDBRANCH  49  50
ENDBRANCH  45  49
ENDBRANCH  44  45
ENDBRANCH   2  44
TORSDOF 35
ENDMDL
