MODEL 1
REMARK VINA RESULT:      -6.0      0.000      0.000
REMARK  8 active torsions:
REMARK  status: ('A' for Active; 'I' for Inactive)
REMARK    1  A    between atoms: C_4  and  C_3 
REMARK    2  A    between atoms: O_14  and  C_3 
REMARK    3  A    between atoms: O_15  and  C_5 
REMARK    4  A    between atoms: C_7  and  O_21 
REMARK    5  A    between atoms: C_8  and  N_13 
REMARK    6  A    between atoms: P_22  and  O_17 
REMARK    7  A    between atoms: P_22  and  O_18 
REMARK    8  A    between atoms: P_22  and  O_21 
ROOT
HETATM    1  C   UNK N   1      27.260  24.669  -5.170  0.00  0.00     0.180 C 
HETATM    2  C   UNK N   1      29.194  25.177  -3.930  0.00  0.00     0.251 C 
HETATM    3  C   UNK N   1      27.781  25.687  -4.154  0.00  0.00     0.203 C 
HETATM    4  C   UNK N   1      28.827  23.680  -3.835  0.00  0.00     0.269 C 
HETATM    5  F   UNK N   1      29.979  25.416  -5.040  0.00  0.00    -0.242 F 
HETATM    6  O   UNK N   1      27.884  23.429  -4.866  0.00  0.00    -0.353 OA
ENDROOT
BRANCH   4   7
HETATM    7  N   UNK N   1      29.890  22.643  -3.832  0.00  0.00    -0.279 N 
HETATM    8  C   UNK N   1      29.983  21.907  -4.979  0.00  0.00     0.103 A 
HETATM    9  C   UNK N   1      30.897  20.868  -5.108  0.00  0.00     0.073 A 
HETATM   10  C   UNK N   1      31.734  20.581  -4.043  0.00  0.00     0.144 A 
HETATM   11  N   UNK N   1      31.653  21.313  -2.906  0.00  0.00    -0.289 N 
HETATM   12  C   UNK N   1      30.746  22.336  -2.777  0.00  0.00     0.330 A 
ATOM     13  HN  UNK N   1      32.281  21.101  -2.131  1.00  0.00     0.172 HD
HETATM   14  O   UNK N   1      30.704  22.944  -1.728  0.00  0.00    -0.246 OA
BRANCH  10  15
HETATM   15  O   UNK N   1      32.618  19.575  -4.134  0.00  0.00    -0.346 OA
HETATM   16  H   UNK N   1      32.634  19.009  -4.881  0.00  0.00     0.219 HD
ENDBRANCH  10  15
ENDBRANCH   4   7
BRANCH   3  17
HETATM   17  O   UNK N   1      27.516  27.059  -4.415  0.00  0.00    -0.286 OA
BRANCH  17  18
HETATM   18  P   UNK N   1      26.317  27.855  -3.402  0.00  0.00     0.391 P 
HETATM   19  O   UNK N   1      25.937  27.010  -2.158  0.00  0.00    -0.632 OA
BRANCH  18  20
HETATM   20  O   UNK N   1      24.864  28.213  -4.282  0.00  0.00    -0.307 OA
HETATM   21  H   UNK N   1      24.056  28.598  -3.910  0.00  0.00     0.222 HD
ENDBRANCH  18  20
BRANCH  18  22
HETATM   22  O   UNK N   1      26.982  29.327  -2.771  0.00  0.00    -0.307 OA
HETATM   23  H   UNK N   1      27.936  29.503  -2.779  0.00  0.00     0.222 HD
ENDBRANCH  18  22
ENDBRANCH  17  18
ENDBRANCH   3  17
BRANCH   1  24
HETATM   24  C   UNK N   1      25.743  24.542  -5.083  0.00  0.00     0.198 C 
BRANCH  24  25
HETATM   25  O   UNK N   1      25.131  25.547  -5.832  0.00  0.00    -0.398 OA
HETATM   26  H   UNK N   1      24.843  25.754  -6.735  0.00  0.00     0.209 HD
ENDBRANCH  24  25
ENDBRANCH   1  24
TORSDOF 8
ENDMDL
MODEL 2
REMARK VINA RESULT:      -6.0     16.742     19.094
REMARK  8 active torsions:
REMARK  status: ('A' for Active; 'I' for Inactive)
REMARK    1  A    between atoms: C_4  and  C_3 
REMARK    2  A    between atoms: O_14  and  C_3 
REMARK    3  A    between atoms: O_15  and  C_5 
REMARK    4  A    between atoms: C_7  and  O_21 
REMARK    5  A    between atoms: C_8  and  N_13 
REMARK    6  A    between atoms: P_22  and  O_17 
REMARK    7  A    between atoms: P_22  and  O_18 
REMARK    8  A    between atoms: P_22  and  O_21 
ROOT
HETATM    1  C   UNK N   1      34.132  14.187   9.266  0.00  0.00     0.180 C 
HETATM    2  C   UNK N   1      36.057  15.171  10.195  0.00  0.00     0.251 C 
HETATM    3  C   UNK N   1      34.862  15.529   9.329  0.00  0.00     0.203 C 
HETATM    4  C   UNK N   1      35.276  14.341  11.237  0.00  0.00     0.269 C 
HETATM    5  F   UNK N   1      36.940  14.371   9.498  0.00  0.00    -0.242 F 
HETATM    6  O   UNK N   1      34.361  13.536  10.508  0.00  0.00    -0.353 OA
ENDROOT
BRANCH   4   7
HETATM    7  N   UNK N   1      35.999  13.529  12.249  0.00  0.00    -0.279 N 
HETATM    8  C   UNK N   1      36.120  12.203  11.947  0.00  0.00     0.103 A 
HETATM    9  C   UNK N   1      36.729  11.308  12.819  0.00  0.00     0.073 A 
HETATM   10  C   UNK N   1      37.227  11.783  14.021  0.00  0.00     0.144 A 
HETATM   11  N   UNK N   1      37.118  13.099  14.322  0.00  0.00    -0.289 N 
HETATM   12  C   UNK N   1      36.511  13.982  13.463  0.00  0.00     0.330 A 
ATOM     13  HN  UNK N   1      37.497  13.442  15.205  1.00  0.00     0.172 HD
HETATM   14  O   UNK N   1      36.423  15.146  13.794  0.00  0.00    -0.246 OA
BRANCH  10  15
HETATM   15  O   UNK N   1      37.809  10.940  14.887  0.00  0.00    -0.346 OA
HETATM   16  H   UNK N   1      37.751  11.077  15.812  0.00  0.00     0.219 HD
ENDBRANCH  10  15
ENDBRANCH   4   7
BRANCH   3  17
HETATM   17  O   UNK N   1      35.012  16.245   8.110  0.00  0.00    -0.286 OA
BRANCH  17  18
HETATM   18  P   UNK N   1      34.215  17.809   7.990  0.00  0.00     0.391 P 
HETATM   19  O   UNK N   1      33.733  18.120   6.549  0.00  0.00    -0.632 OA
BRANCH  18  20
HETATM   20  O   UNK N   1      35.248  19.103   8.510  0.00  0.00    -0.307 OA
HETATM   21  H   UNK N   1      36.212  19.055   8.606  0.00  0.00     0.222 HD
ENDBRANCH  18  20
BRANCH  18  22
HETATM   22  O   UNK N   1      32.778  17.799   8.963  0.00  0.00    -0.307 OA
HETATM   23  H   UNK N   1      32.171  17.042   8.972  0.00  0.00     0.222 HD
ENDBRANCH  18  22
ENDBRANCH  17  18
ENDBRANCH   3  17
BRANCH   1  24
HETATM   24  C   UNK N   1      32.640  14.389   9.032  0.00  0.00     0.198 C 
BRANCH  24  25
HETATM   25  O   UNK N   1      32.077  15.092  10.097  0.00  0.00    -0.398 OA
HETATM   26  H   UNK N   1      31.944  15.041  11.057  0.00  0.00     0.209 HD
ENDBRANCH  24  25
ENDBRANCH   1  24
TORSDOF 8
ENDMDL
MODEL 3
REMARK VINA RESULT:      -6.0     14.087     14.697
REMARK  8 active torsions:
REMARK  status: ('A' for Active; 'I' for Inactive)
REMARK    1  A    between atoms: C_4  and  C_3 
REMARK    2  A    between atoms: O_14  and  C_3 
REMARK    3  A    between atoms: O_15  and  C_5 
REMARK    4  A    between atoms: C_7  and  O_21 
REMARK    5  A    between atoms: C_8  and  N_13 
REMARK    6  A    between atoms: P_22  and  O_17 
REMARK    7  A    between atoms: P_22  and  O_18 
REMARK    8  A    between atoms: P_22  and  O_21 
ROOT
HETATM    1  C   UNK N   1      21.200  16.598   3.662  0.00  0.00     0.180 C 
HETATM    2  C   UNK N   1      22.037  17.497   5.669  0.00  0.00     0.251 C 
HETATM    3  C   UNK N   1      21.605  17.936   4.281  0.00  0.00     0.203 C 
HETATM    4  C   UNK N   1      20.862  16.527   5.920  0.00  0.00     0.269 C 
HETATM    5  F   UNK N   1      23.232  16.808   5.610  0.00  0.00    -0.242 F 
HETATM    6  O   UNK N   1      20.672  15.802   4.715  0.00  0.00    -0.353 OA
ENDROOT
BRANCH   4   7
HETATM    7  N   UNK N   1      20.878  15.610   7.089  0.00  0.00    -0.279 N 
HETATM    8  C   UNK N   1      21.068  14.292   6.785  0.00  0.00     0.103 A 
HETATM    9  C   UNK N   1      21.059  13.309   7.768  0.00  0.00     0.073 A 
HETATM   10  C   UNK N   1      20.856  13.685   9.085  0.00  0.00     0.144 A 
HETATM   11  N   UNK N   1      20.677  14.992   9.393  0.00  0.00    -0.289 N 
HETATM   12  C   UNK N   1      20.680  15.962   8.421  0.00  0.00     0.330 A 
ATOM     13  HN  UNK N   1      20.539  15.260  10.367  1.00  0.00     0.172 HD
HETATM   14  O   UNK N   1      20.494  17.115   8.753  0.00  0.00    -0.246 OA
BRANCH  10  15
HETATM   15  O   UNK N   1      20.831  12.755  10.053  0.00  0.00    -0.346 OA
HETATM   16  H   UNK N   1      20.437  12.931  10.885  0.00  0.00     0.219 HD
ENDBRANCH  10  15
ENDBRANCH   4   7
BRANCH   3  17
HETATM   17  O   UNK N   1      22.407  18.801   3.489  0.00  0.00    -0.286 OA
BRANCH  17  18
HETATM   18  P   UNK N   1      21.645  20.258   2.861  0.00  0.00     0.391 P 
HETATM   19  O   UNK N   1      21.070  20.058   1.434  0.00  0.00    -0.632 OA
BRANCH  18  20
HETATM   20  O   UNK N   1      22.747  21.598   2.821  0.00  0.00    -0.307 OA
HETATM   21  H   UNK N   1      22.781  22.285   2.138  0.00  0.00     0.222 HD
ENDBRANCH  18  20
BRANCH  18  22
HETATM   22  O   UNK N   1      20.281  20.667   3.852  0.00  0.00    -0.307 OA
HETATM   23  H   UNK N   1      19.646  21.352   3.592  0.00  0.00     0.222 HD
ENDBRANCH  18  22
ENDBRANCH  17  18
ENDBRANCH   3  17
BRANCH   1  24
HETATM   24  C   UNK N   1      20.158  16.797   2.567  0.00  0.00     0.198 C 
BRANCH  24  25
HETATM   25  O   UNK N   1      19.307  17.852   2.898  0.00  0.00    -0.398 OA
HETATM   26  H   UNK N   1      19.267  18.821   2.911  0.00  0.00     0.209 HD
ENDBRANCH  24  25
ENDBRANCH   1  24
TORSDOF 8
ENDMDL
MODEL 4
REMARK VINA RESULT:      -5.9     13.760     15.040
REMARK  8 active torsions:
REMARK  status: ('A' for Active; 'I' for Inactive)
REMARK    1  A    between atoms: C_4  and  C_3 
REMARK    2  A    between atoms: O_14  and  C_3 
REMARK    3  A    between atoms: O_15  and  C_5 
REMARK    4  A    between atoms: C_7  and  O_21 
REMARK    5  A    between atoms: C_8  and  N_13 
REMARK    6  A    between atoms: P_22  and  O_17 
REMARK    7  A    between atoms: P_22  and  O_18 
REMARK    8  A    between atoms: P_22  and  O_21 
ROOT
HETATM    1  C   UNK N   1      21.258  14.996   4.833  0.00  0.00     0.180 C 
HETATM    2  C   UNK N   1      19.976  16.940   5.176  0.00  0.00     0.251 C 
HETATM    3  C   UNK N   1      20.614  15.806   5.960  0.00  0.00     0.203 C 
HETATM    4  C   UNK N   1      21.174  17.200   4.238  0.00  0.00     0.269 C 
HETATM    5  F   UNK N   1      18.887  16.484   4.461  0.00  0.00    -0.242 F 
HETATM    6  O   UNK N   1      21.656  15.927   3.835  0.00  0.00    -0.353 OA
ENDROOT
BRANCH   4   7
HETATM    7  N   UNK N   1      21.032  18.102   3.067  0.00  0.00    -0.279 N 
HETATM    8  C   UNK N   1      21.567  19.348   3.230  0.00  0.00     0.103 A 
HETATM    9  C   UNK N   1      21.470  20.320   2.240  0.00  0.00     0.073 A 
HETATM   10  C   UNK N   1      20.815  20.006   1.061  0.00  0.00     0.144 A 
HETATM   11  N   UNK N   1      20.291  18.769   0.890  0.00  0.00    -0.289 N 
HETATM   12  C   UNK N   1      20.382  17.812   1.870  0.00  0.00     0.330 A 
ATOM     13  HN  UNK N   1      19.820  18.544   0.014  1.00  0.00     0.172 HD
HETATM   14  O   UNK N   1      19.875  16.727   1.670  0.00  0.00    -0.246 OA
BRANCH  10  15
HETATM   15  O   UNK N   1      20.695  20.928   0.093  0.00  0.00    -0.346 OA
HETATM   16  H   UNK N   1      20.418  21.802   0.286  0.00  0.00     0.219 HD
ENDBRANCH  10  15
ENDBRANCH   4   7
BRANCH   3  17
HETATM   17  O   UNK N   1      19.891  15.083   6.947  0.00  0.00    -0.286 OA
BRANCH  17  18
HETATM   18  P   UNK N   1      20.104  15.575   8.623  0.00  0.00     0.391 P 
HETATM   19  O   UNK N   1      18.848  15.291   9.489  0.00  0.00    -0.632 OA
BRANCH  18  20
HETATM   20  O   UNK N   1      20.487  17.263   8.757  0.00  0.00    -0.307 OA
HETATM   21  H   UNK N   1      20.694  17.858   8.020  0.00  0.00     0.222 HD
ENDBRANCH  18  20
BRANCH  18  22
HETATM   22  O   UNK N   1      21.378  14.641   9.341  0.00  0.00    -0.307 OA
HETATM   23  H   UNK N   1      22.172  14.392   8.844  0.00  0.00     0.222 HD
ENDBRANCH  18  22
ENDBRANCH  17  18
ENDBRANCH   3  17
BRANCH   1  24
HETATM   24  C   UNK N   1      22.460  14.211   5.345  0.00  0.00     0.198 C 
BRANCH  24  25
HETATM   25  O   UNK N   1      22.839  14.677   6.604  0.00  0.00    -0.398 OA
HETATM   26  H   UNK N   1      22.725  15.434   7.201  0.00  0.00     0.209 HD
ENDBRANCH  24  25
ENDBRANCH   1  24
TORSDOF 8
ENDMDL
MODEL 5
REMARK VINA RESULT:      -5.8     19.582     22.350
REMARK  8 active torsions:
REMARK  status: ('A' for Active; 'I' for Inactive)
REMARK    1  A    between atoms: C_4  and  C_3 
REMARK    2  A    between atoms: O_14  and  C_3 
REMARK    3  A    between atoms: O_15  and  C_5 
REMARK    4  A    between atoms: C_7  and  O_21 
REMARK    5  A    between atoms: C_8  and  N_13 
REMARK    6  A    between atoms: P_22  and  O_17 
REMARK    7  A    between atoms: P_22  and  O_18 
REMARK    8  A    between atoms: P_22  and  O_21 
ROOT
HETATM    1  C   UNK N   1      35.120  13.394  11.763  0.00  0.00     0.180 C 
HETATM    2  C   UNK N   1      37.058  12.928  13.013  0.00  0.00     0.251 C 
HETATM    3  C   UNK N   1      36.635  13.269  11.595  0.00  0.00     0.203 C 
HETATM    4  C   UNK N   1      36.153  13.961  13.719  0.00  0.00     0.269 C 
HETATM    5  F   UNK N   1      36.674  11.642  13.338  0.00  0.00    -0.242 F 
HETATM    6  O   UNK N   1      34.893  13.905  13.069  0.00  0.00    -0.353 OA
ENDROOT
BRANCH   4   7
HETATM    7  N   UNK N   1      35.987  13.931  15.195  0.00  0.00    -0.279 N 
HETATM    8  C   UNK N   1      34.983  13.122  15.646  0.00  0.00     0.103 A 
HETATM    9  C   UNK N   1      34.674  13.028  16.998  0.00  0.00     0.073 A 
HETATM   10  C   UNK N   1      35.410  13.773  17.903  0.00  0.00     0.144 A 
HETATM   11  N   UNK N   1      36.413  14.569  17.462  0.00  0.00    -0.289 N 
HETATM   12  C   UNK N   1      36.714  14.667  16.126  0.00  0.00     0.330 A 
ATOM     13  HN  UNK N   1      36.958  15.106  18.138  1.00  0.00     0.172 HD
HETATM   14  O   UNK N   1      37.610  15.413  15.787  0.00  0.00    -0.246 OA
BRANCH  10  15
HETATM   15  O   UNK N   1      35.126  13.711  19.214  0.00  0.00    -0.346 OA
HETATM   16  H   UNK N   1      34.919  12.896  19.628  0.00  0.00     0.219 HD
ENDBRANCH  10  15
ENDBRANCH   4   7
BRANCH   3  17
HETATM   17  O   UNK N   1      37.105  12.527  10.477  0.00  0.00    -0.286 OA
BRANCH  17  18
HETATM   18  P   UNK N   1      38.173  13.356   9.351  0.00  0.00     0.391 P 
HETATM   19  O   UNK N   1      37.500  13.615   7.977  0.00  0.00    -0.632 OA
BRANCH  18  20
HETATM   20  O   UNK N   1      39.640  12.469   9.080  0.00  0.00    -0.307 OA
HETATM   21  H   UNK N   1      40.528  12.851   9.004  0.00  0.00     0.222 HD
ENDBRANCH  18  20
BRANCH  18  22
HETATM   22  O   UNK N   1      38.561  14.927   9.976  0.00  0.00    -0.307 OA
HETATM   23  H   UNK N   1      39.261  15.058  10.634  0.00  0.00     0.222 HD
ENDBRANCH  18  22
ENDBRANCH  17  18
ENDBRANCH   3  17
BRANCH   1  24
HETATM   24  C   UNK N   1      34.531  14.329  10.712  0.00  0.00     0.198 C 
BRANCH  24  25
HETATM   25  O   UNK N   1      33.386  14.952  11.209  0.00  0.00    -0.398 OA
HETATM   26  H   UNK N   1      32.460  15.133  10.982  0.00  0.00     0.209 HD
ENDBRANCH  24  25
ENDBRANCH   1  24
TORSDOF 8
ENDMDL
MODEL 6
REMARK VINA RESULT:      -5.8     21.214     23.716
REMARK  8 active torsions:
REMARK  status: ('A' for Active; 'I' for Inactive)
REMARK    1  A    between atoms: C_4  and  C_3 
REMARK    2  A    between atoms: O_14  and  C_3 
REMARK    3  A    between atoms: O_15  and  C_5 
REMARK    4  A    between atoms: C_7  and  O_21 
REMARK    5  A    between atoms: C_8  and  N_13 
REMARK    6  A    between atoms: P_22  and  O_17 
REMARK    7  A    between atoms: P_22  and  O_18 
REMARK    8  A    between atoms: P_22  and  O_21 
ROOT
HETATM    1  C   UNK N   1      35.628  11.816  13.541  0.00  0.00     0.180 C 
HETATM    2  C   UNK N   1      36.391  13.569  14.913  0.00  0.00     0.251 C 
HETATM    3  C   UNK N   1      35.956  13.308  13.482  0.00  0.00     0.203 C 
HETATM    4  C   UNK N   1      35.264  12.759  15.589  0.00  0.00     0.269 C 
HETATM    5  F   UNK N   1      37.621  12.990  15.160  0.00  0.00    -0.242 F 
HETATM    6  O   UNK N   1      35.127  11.557  14.846  0.00  0.00    -0.353 OA
ENDROOT
BRANCH   4   7
HETATM    7  N   UNK N   1      35.311  12.474  17.046  0.00  0.00    -0.279 N 
HETATM    8  C   UNK N   1      35.387  11.149  17.373  0.00  0.00     0.103 A 
HETATM    9  C   UNK N   1      35.390  10.723  18.696  0.00  0.00     0.073 A 
HETATM   10  C   UNK N   1      35.318  11.672  19.702  0.00  0.00     0.144 A 
HETATM   11  N   UNK N   1      35.252  12.987  19.384  0.00  0.00    -0.289 N 
HETATM   12  C   UNK N   1      35.243  13.408  18.077  0.00  0.00     0.330 A 
ATOM     13  HN  UNK N   1      35.210  13.680  20.132  1.00  0.00     0.172 HD
HETATM   14  O   UNK N   1      35.161  14.597  17.851  0.00  0.00    -0.246 OA
BRANCH  10  15
HETATM   15  O   UNK N   1      35.306  11.289  20.988  0.00  0.00    -0.346 OA
HETATM   16  H   UNK N   1      36.034  11.461  21.553  0.00  0.00     0.219 HD
ENDBRANCH  10  15
ENDBRANCH   4   7
BRANCH   3  17
HETATM   17  O   UNK N   1      36.724  13.761  12.375  0.00  0.00    -0.286 OA
BRANCH  17  18
HETATM   18  P   UNK N   1      35.905  14.760  11.180  0.00  0.00     0.391 P 
HETATM   19  O   UNK N   1      35.692  14.019   9.833  0.00  0.00    -0.632 OA
BRANCH  18  20
HETATM   20  O   UNK N   1      36.773  16.229  10.862  0.00  0.00    -0.307 OA
HETATM   21  H   UNK N   1      37.328  16.709  11.495  0.00  0.00     0.222 HD
ENDBRANCH  18  20
BRANCH  18  22
HETATM   22  O   UNK N   1      34.312  15.148  11.748  0.00  0.00    -0.307 OA
HETATM   23  H   UNK N   1      33.517  14.888  11.258  0.00  0.00     0.222 HD
ENDBRANCH  18  22
ENDBRANCH  17  18
ENDBRANCH   3  17
BRANCH   1  24
HETATM   24  C   UNK N   1      34.593  11.444  12.486  0.00  0.00     0.198 C 
BRANCH  24  25
HETATM   25  O   UNK N   1      35.190  11.378  11.228  0.00  0.00    -0.398 OA
HETATM   26  H   UNK N   1      35.934  11.737  10.719  0.00  0.00     0.209 HD
ENDBRANCH  24  25
ENDBRANCH   1  24
TORSDOF 8
ENDMDL
MODEL 7
REMARK VINA RESULT:      -5.8     12.047     13.694
REMARK  8 active torsions:
REMARK  status: ('A' for Active; 'I' for Inactive)
REMARK    1  A    between atoms: C_4  and  C_3 
REMARK    2  A    between atoms: O_14  and  C_3 
REMARK    3  A    between atoms: O_15  and  C_5 
REMARK    4  A    between atoms: C_7  and  O_21 
REMARK    5  A    between atoms: C_8  and  N_13 
REMARK    6  A    between atoms: P_22  and  O_17 
REMARK    7  A    between atoms: P_22  and  O_18 
REMARK    8  A    between atoms: P_22  and  O_21 
ROOT
HETATM    1  C   UNK N   1      29.379  17.277   8.391  0.00  0.00     0.180 C 
HETATM    2  C   UNK N   1      30.379  16.922   6.291  0.00  0.00     0.251 C 
HETATM    3  C   UNK N   1      29.263  17.727   6.934  0.00  0.00     0.203 C 
HETATM    4  C   UNK N   1      31.431  17.168   7.394  0.00  0.00     0.269 C 
HETATM    5  F   UNK N   1      30.041  15.585   6.230  0.00  0.00    -0.242 F 
HETATM    6  O   UNK N   1      30.756  17.025   8.635  0.00  0.00    -0.353 OA
ENDROOT
BRANCH   4   7
HETATM    7  N   UNK N   1      32.708  16.409   7.400  0.00  0.00    -0.279 N 
HETATM    8  C   UNK N   1      32.691  15.256   8.132  0.00  0.00     0.103 A 
HETATM    9  C   UNK N   1      33.825  14.464   8.272  0.00  0.00     0.073 A 
HETATM   10  C   UNK N   1      34.995  14.859   7.646  0.00  0.00     0.144 A 
HETATM   11  N   UNK N   1      35.015  15.997   6.910  0.00  0.00    -0.289 N 
HETATM   12  C   UNK N   1      33.896  16.782   6.777  0.00  0.00     0.330 A 
ATOM     13  HN  UNK N   1      35.879  16.274   6.444  1.00  0.00     0.172 HD
HETATM   14  O   UNK N   1      33.978  17.801   6.123  0.00  0.00    -0.246 OA
BRANCH  10  15
HETATM   15  O   UNK N   1      36.108  14.120   7.773  0.00  0.00    -0.346 OA
HETATM   16  H   UNK N   1      36.754  14.093   7.095  0.00  0.00     0.219 HD
ENDBRANCH  10  15
ENDBRANCH   4   7
BRANCH   3  17
HETATM   17  O   UNK N   1      27.959  17.776   6.371  0.00  0.00    -0.286 OA
BRANCH  17  18
HETATM   18  P   UNK N   1      27.411  19.324   5.739  0.00  0.00     0.391 P 
HETATM   19  O   UNK N   1      27.809  20.512   6.655  0.00  0.00    -0.632 OA
BRANCH  18  20
HETATM   20  O   UNK N   1      25.690  19.359   5.518  0.00  0.00    -0.307 OA
HETATM   21  H   UNK N   1      25.081  18.626   5.693  0.00  0.00     0.222 HD
ENDBRANCH  18  20
BRANCH  18  22
HETATM   22  O   UNK N   1      28.190  19.634   4.220  0.00  0.00    -0.307 OA
HETATM   23  H   UNK N   1      29.021  19.200   3.973  0.00  0.00     0.222 HD
ENDBRANCH  18  22
ENDBRANCH  17  18
ENDBRANCH   3  17
BRANCH   1  24
HETATM   24  C   UNK N   1      28.854  18.352   9.336  0.00  0.00     0.198 C 
BRANCH  24  25
HETATM   25  O   UNK N   1      27.460  18.352   9.339  0.00  0.00    -0.398 OA
HETATM   26  H   UNK N   1      26.700  18.735   9.807  0.00  0.00     0.209 HD
ENDBRANCH  24  25
ENDBRANCH   1  24
TORSDOF 8
ENDMDL
MODEL 8
REMARK VINA RESULT:      -5.7     16.442     19.469
REMARK  8 active torsions:
REMARK  status: ('A' for Active; 'I' for Inactive)
REMARK    1  A    between atoms: C_4  and  C_3 
REMARK    2  A    between atoms: O_14  and  C_3 
REMARK    3  A    between atoms: O_15  and  C_5 
REMARK    4  A    between atoms: C_7  and  O_21 
REMARK    5  A    between atoms: C_8  and  N_13 
REMARK    6  A    between atoms: P_22  and  O_17 
REMARK    7  A    between atoms: P_22  and  O_18 
REMARK    8  A    between atoms: P_22  and  O_21 
ROOT
HETATM    1  C   UNK N   1      35.907  13.016  10.600  0.00  0.00     0.180 C 
HETATM    2  C   UNK N   1      34.711  14.956  11.186  0.00  0.00     0.251 C 
HETATM    3  C   UNK N   1      35.618  13.909  11.807  0.00  0.00     0.203 C 
HETATM    4  C   UNK N   1      35.533  15.156   9.894  0.00  0.00     0.269 C 
HETATM    5  F   UNK N   1      33.474  14.417  10.896  0.00  0.00    -0.242 F 
HETATM    6  O   UNK N   1      35.921  13.862   9.458  0.00  0.00    -0.353 OA
ENDROOT
BRANCH   4   7
HETATM    7  N   UNK N   1      34.982  15.948   8.765  0.00  0.00    -0.279 N 
HETATM    8  C   UNK N   1      34.568  15.212   7.691  0.00  0.00     0.103 A 
HETATM    9  C   UNK N   1      34.074  15.815   6.540  0.00  0.00     0.073 A 
HETATM   10  C   UNK N   1      33.999  17.197   6.491  0.00  0.00     0.144 A 
HETATM   11  N   UNK N   1      34.399  17.931   7.557  0.00  0.00    -0.289 N 
HETATM   12  C   UNK N   1      34.893  17.336   8.691  0.00  0.00     0.330 A 
ATOM     13  HN  UNK N   1      34.330  18.948   7.516  1.00  0.00     0.172 HD
HETATM   14  O   UNK N   1      35.255  18.045   9.607  0.00  0.00    -0.246 OA
BRANCH  10  15
HETATM   15  O   UNK N   1      33.537  17.806   5.388  0.00  0.00    -0.346 OA
HETATM   16  H   UNK N   1      32.859  18.450   5.437  0.00  0.00     0.219 HD
ENDBRANCH  10  15
ENDBRANCH   4   7
BRANCH   3  17
HETATM   17  O   UNK N   1      35.284  13.262  13.027  0.00  0.00    -0.286 OA
BRANCH  17  18
HETATM   18  P   UNK N   1      36.298  13.602  14.425  0.00  0.00     0.391 P 
HETATM   19  O   UNK N   1      36.767  15.080  14.471  0.00  0.00    -0.632 OA
BRANCH  18  20
HETATM   20  O   UNK N   1      37.703  12.583  14.466  0.00  0.00    -0.307 OA
HETATM   21  H   UNK N   1      37.868  11.821  13.891  0.00  0.00     0.222 HD
ENDBRANCH  18  20
BRANCH  18  22
HETATM   22  O   UNK N   1      35.377  13.366  15.876  0.00  0.00    -0.307 OA
HETATM   23  H   UNK N   1      34.517  13.793  16.012  0.00  0.00     0.222 HD
ENDBRANCH  18  22
ENDBRANCH  17  18
ENDBRANCH   3  17
BRANCH   1  24
HETATM   24  C   UNK N   1      37.245  12.304  10.756  0.00  0.00     0.198 C 
BRANCH  24  25
HETATM   25  O   UNK N   1      38.121  13.084  11.511  0.00  0.00    -0.398 OA
HETATM   26  H   UNK N   1      38.775  13.018  12.225  0.00  0.00     0.209 HD
ENDBRANCH  24  25
ENDBRANCH   1  24
TORSDOF 8
ENDMDL
MODEL 9
REMARK VINA RESULT:      -5.5     13.885     16.881
REMARK  8 active torsions:
REMARK  status: ('A' for Active; 'I' for Inactive)
REMARK    1  A    between atoms: C_4  and  C_3 
REMARK    2  A    between atoms: O_14  and  C_3 
REMARK    3  A    between atoms: O_15  and  C_5 
REMARK    4  A    between atoms: C_7  and  O_21 
REMARK    5  A    between atoms: C_8  and  N_13 
REMARK    6  A    between atoms: P_22  and  O_17 
REMARK    7  A    between atoms: P_22  and  O_18 
REMARK    8  A    between atoms: P_22  and  O_21 
ROOT
HETATM    1  C   UNK N   1      33.317  13.725   8.917  0.00  0.00     0.180 C 
HETATM    2  C   UNK N   1      33.864  15.995   8.629  0.00  0.00     0.251 C 
HETATM    3  C   UNK N   1      34.252  14.797   9.478  0.00  0.00     0.203 C 
HETATM    4  C   UNK N   1      33.804  15.243   7.282  0.00  0.00     0.269 C 
HETATM    5  F   UNK N   1      32.613  16.458   8.985  0.00  0.00    -0.242 F 
HETATM    6  O   UNK N   1      33.145  14.012   7.535  0.00  0.00    -0.353 OA
ENDROOT
BRANCH   4   7
HETATM    7  N   UNK N   1      33.240  15.903   6.076  0.00  0.00    -0.279 N 
HETATM    8  C   UNK N   1      32.380  15.132   5.346  0.00  0.00     0.103 A 
HETATM    9  C   UNK N   1      31.810  15.593   4.165  0.00  0.00     0.073 A 
HETATM   10  C   UNK N   1      32.123  16.869   3.728  0.00  0.00     0.144 A 
HETATM   11  N   UNK N   1      32.967  17.642   4.453  0.00  0.00    -0.289 N 
HETATM   12  C   UNK N   1      33.535  17.183   5.616  0.00  0.00     0.330 A 
ATOM     13  HN  UNK N   1      33.183  18.585   4.129  1.00  0.00     0.172 HD
HETATM   14  O   UNK N   1      34.300  17.912   6.214  0.00  0.00    -0.246 OA
BRANCH  10  15
HETATM   15  O   UNK N   1      31.596  17.337   2.586  0.00  0.00    -0.346 OA
HETATM   16  H   UNK N   1      30.709  17.634   2.545  0.00  0.00     0.219 HD
ENDBRANCH  10  15
ENDBRANCH   4   7
BRANCH   3  17
HETATM   17  O   UNK N   1      34.361  14.889  10.892  0.00  0.00    -0.286 OA
BRANCH  17  18
HETATM   18  P   UNK N   1      35.978  14.815  11.583  0.00  0.00     0.391 P 
HETATM   19  O   UNK N   1      35.969  14.960  13.127  0.00  0.00    -0.632 OA
BRANCH  18  20
HETATM   20  O   UNK N   1      37.017  16.041  10.926  0.00  0.00    -0.307 OA
HETATM   21  H   UNK N   1      37.957  16.158  11.133  0.00  0.00     0.222 HD
ENDBRANCH  18  20
BRANCH  18  22
HETATM   22  O   UNK N   1      36.666  13.254  11.271  0.00  0.00    -0.307 OA
HETATM   23  H   UNK N   1      37.487  12.962  11.696  0.00  0.00     0.222 HD
ENDBRANCH  18  22
ENDBRANCH  17  18
ENDBRANCH   3  17
BRANCH   1  24
HETATM   24  C   UNK N   1      33.909  12.333   9.106  0.00  0.00     0.198 C 
BRANCH  24  25
HETATM   25  O   UNK N   1      33.957  12.010  10.462  0.00  0.00    -0.398 OA
HETATM   26  H   UNK N   1      34.448  11.465  11.097  0.00  0.00     0.209 HD
ENDBRANCH  24  25
ENDBRANCH   1  24
TORSDOF 8
ENDMDL
