REMARK  2 active torsions:
REMARK  status: ('A' for Active; 'I' for Inactive)
REMARK    1  A    between atoms: O_2  and  C_3 
REMARK    2  A    between atoms: C_7  and  C_9 
REMARK       I    between atoms: C_9  and  N_10 
ROOT
HETATM    1  C   UNK N   1       1.896  -0.436  -0.000  0.00  0.00     0.069 A 
HETATM    2  C   UNK N   1       0.710  -1.192  -0.000  0.00  0.00     0.037 A 
HETATM    3  C   UNK N   1      -0.532  -0.551   0.000  0.00  0.00     0.004 A 
HETATM    4  C   UNK N   1      -0.599   0.845   0.000  0.00  0.00     0.017 A 
HETATM    5  C   UNK N   1       0.577   1.609   0.000  0.00  0.00     0.034 A 
HETATM    6  C   UNK N   1       1.820   0.960  -0.000  0.00  0.00     0.053 A 
ENDROOT
BRANCH   5   7
HETATM    7  C   UNK N   1       0.514   3.087   0.000  0.00  0.00     0.249 C 
HETATM    8  N   UNK N   1      -0.678   3.719   0.000  0.00  0.00    -0.366 N 
HETATM    9  H   UNK N   1      -0.714   4.703   0.000  0.00  0.00     0.159 HD
HETATM   10  H   UNK N   1      -1.513   3.196   0.000  0.00  0.00     0.159 HD
HETATM   11  O   UNK N   1       1.542   3.745   0.000  0.00  0.00    -0.268 OA
ENDBRANCH   5   7
BRANCH   1  12
HETATM   12  O   UNK N   1       3.115  -1.025  -0.000  0.00  0.00    -0.356 OA
HETATM   13  C   UNK N   1       3.294  -2.390  -0.000  0.00  0.00     0.210 C 
ENDBRANCH   1  12
TORSDOF 2
