MODEL 1
REMARK VINA RESULT:      -3.9      0.000      0.000
REMARK  5 active torsions:
REMARK  status: ('A' for Active; 'I' for Inactive)
REMARK    1  A    between atoms: C_3  and  C_2 
REMARK    2  A    between atoms: C_4  and  C_3 
REMARK    3  A    between atoms: C_6  and  C_4 
REMARK    4  A    between atoms: C_6  and  C_5 
REMARK    5  A    between atoms: C_6  and  N_7 
ROOT
HETATM    1  C   UNK N   1      23.461  12.352  11.473  0.00  0.00     0.136 C 
ENDROOT
BRANCH   1   2
HETATM    2  C   UNK N   1      22.786  11.491  10.414  0.00  0.00     0.032 C 
BRANCH   2   3
HETATM    3  C   UNK N   1      22.023  12.345   9.413  0.00  0.00     0.002 C 
BRANCH   3   4
HETATM    4  C   UNK N   1      21.004  13.197  10.139  0.00  0.00    -0.004 C 
HETATM    5  C   UNK N   1      20.885  14.537   9.444  0.00  0.00     0.005 C 
ENDBRANCH   3   4
ENDBRANCH   2   3
ENDBRANCH   1   2
BRANCH   1   6
HETATM    6  C   UNK N   1      23.152  11.794  12.822  0.00  0.00     0.255 C 
HETATM    7  O   UNK N   1      23.748  12.198  13.811  0.00  0.00    -0.305 OA
ENDBRANCH   1   6
BRANCH   1   8
HETATM    8  N   UNK N   1      24.902  12.357  11.271  0.00  0.00    -0.420 N 
HETATM    9  H   UNK N   1      25.294  12.592  10.360  0.00  0.00     0.150 HD
HETATM   10  H   UNK N   1      25.523  12.125  12.046  0.00  0.00     0.150 HD
ENDBRANCH   1   8
TORSDOF 5
ENDMDL
MODEL 2
REMARK VINA RESULT:      -3.7     11.656     12.238
REMARK  5 active torsions:
REMARK  status: ('A' for Active; 'I' for Inactive)
REMARK    1  A    between atoms: C_3  and  C_2 
REMARK    2  A    between atoms: C_4  and  C_3 
REMARK    3  A    between atoms: C_6  and  C_4 
REMARK    4  A    between atoms: C_6  and  C_5 
REMARK    5  A    between atoms: C_6  and  N_7 
ROOT
HETATM    1  C   UNK N   1      34.512  17.106   8.867  0.00  0.00     0.136 C 
ENDROOT
BRANCH   1   2
HETATM    2  C   UNK N   1      33.104  16.542   8.739  0.00  0.00     0.032 C 
BRANCH   2   3
HETATM    3  C   UNK N   1      32.108  17.625   8.356  0.00  0.00     0.002 C 
BRANCH   3   4
HETATM    4  C   UNK N   1      31.280  17.164   7.176  0.00  0.00    -0.004 C 
HETATM    5  C   UNK N   1      31.426  15.666   7.017  0.00  0.00     0.005 C 
ENDBRANCH   3   4
ENDBRANCH   2   3
ENDBRANCH   1   2
BRANCH   1   6
HETATM    6  C   UNK N   1      34.550  18.463   8.245  0.00  0.00     0.255 C 
HETATM    7  O   UNK N   1      35.398  19.277   8.586  0.00  0.00    -0.305 OA
ENDBRANCH   1   6
BRANCH   1   8
HETATM    8  N   UNK N   1      34.887  17.207  10.268  0.00  0.00    -0.420 N 
HETATM    9  H   UNK N   1      35.573  16.565  10.666  0.00  0.00     0.150 HD
HETATM   10  H   UNK N   1      34.463  17.923  10.857  0.00  0.00     0.150 HD
ENDBRANCH   1   8
TORSDOF 5
ENDMDL
MODEL 3
REMARK VINA RESULT:      -3.5      1.115      2.039
REMARK  5 active torsions:
REMARK  status: ('A' for Active; 'I' for Inactive)
REMARK    1  A    between atoms: C_3  and  C_2 
REMARK    2  A    between atoms: C_4  and  C_3 
REMARK    3  A    between atoms: C_6  and  C_4 
REMARK    4  A    between atoms: C_6  and  C_5 
REMARK    5  A    between atoms: C_6  and  N_7 
ROOT
HETATM    1  C   UNK N   1      23.475  12.358  11.386  0.00  0.00     0.136 C 
ENDROOT
BRANCH   1   2
HETATM    2  C   UNK N   1      22.795  11.514  10.317  0.00  0.00     0.032 C 
BRANCH   2   3
HETATM    3  C   UNK N   1      22.192  12.385   9.226  0.00  0.00     0.002 C 
BRANCH   3   4
HETATM    4  C   UNK N   1      22.577  11.843   7.866  0.00  0.00    -0.004 C 
HETATM    5  C   UNK N   1      23.643  10.782   8.035  0.00  0.00     0.005 C 
ENDBRANCH   3   4
ENDBRANCH   2   3
ENDBRANCH   1   2
BRANCH   1   6
HETATM    6  C   UNK N   1      23.122  11.816  12.731  0.00  0.00     0.255 C 
HETATM    7  O   UNK N   1      23.720  12.195  13.728  0.00  0.00    -0.305 OA
ENDBRANCH   1   6
BRANCH   1   8
HETATM    8  N   UNK N   1      24.918  12.319  11.213  0.00  0.00    -0.420 N 
HETATM    9  H   UNK N   1      25.511  11.898  11.928  0.00  0.00     0.150 HD
HETATM   10  H   UNK N   1      25.340  12.713  10.373  0.00  0.00     0.150 HD
ENDBRANCH   1   8
TORSDOF 5
ENDMDL
MODEL 4
REMARK VINA RESULT:      -3.5     10.894     11.402
REMARK  5 active torsions:
REMARK  status: ('A' for Active; 'I' for Inactive)
REMARK    1  A    between atoms: C_3  and  C_2 
REMARK    2  A    between atoms: C_4  and  C_3 
REMARK    3  A    between atoms: C_6  and  C_4 
REMARK    4  A    between atoms: C_6  and  C_5 
REMARK    5  A    between atoms: C_6  and  N_7 
ROOT
HETATM    1  C   UNK N   1      33.245  17.386   8.316  0.00  0.00     0.136 C 
ENDROOT
BRANCH   1   2
HETATM    2  C   UNK N   1      32.054  18.327   8.435  0.00  0.00     0.032 C 
BRANCH   2   3
HETATM    3  C   UNK N   1      30.785  17.568   8.793  0.00  0.00     0.002 C 
BRANCH   3   4
HETATM    4  C   UNK N   1      29.817  18.494   9.497  0.00  0.00    -0.004 C 
HETATM    5  C   UNK N   1      28.399  18.054   9.199  0.00  0.00     0.005 C 
ENDBRANCH   3   4
ENDBRANCH   2   3
ENDBRANCH   1   2
BRANCH   1   6
HETATM    6  C   UNK N   1      34.399  18.134   7.735  0.00  0.00     0.255 C 
HETATM    7  O   UNK N   1      34.939  19.030   8.369  0.00  0.00    -0.305 OA
ENDBRANCH   1   6
BRANCH   1   8
HETATM    8  N   UNK N   1      33.613  16.874   9.627  0.00  0.00    -0.420 N 
HETATM    9  H   UNK N   1      34.537  16.472   9.782  0.00  0.00     0.150 HD
HETATM   10  H   UNK N   1      32.944  16.919  10.395  0.00  0.00     0.150 HD
ENDBRANCH   1   8
TORSDOF 5
ENDMDL
MODEL 5
REMARK VINA RESULT:      -3.4     13.514     14.324
REMARK  5 active torsions:
REMARK  status: ('A' for Active; 'I' for Inactive)
REMARK    1  A    between atoms: C_3  and  C_2 
REMARK    2  A    between atoms: C_4  and  C_3 
REMARK    3  A    between atoms: C_6  and  C_4 
REMARK    4  A    between atoms: C_6  and  C_5 
REMARK    5  A    between atoms: C_6  and  N_7 
ROOT
HETATM    1  C   UNK N   1      36.290  13.154  14.994  0.00  0.00     0.136 C 
ENDROOT
BRANCH   1   2
HETATM    2  C   UNK N   1      35.007  13.145  15.813  0.00  0.00     0.032 C 
BRANCH   2   3
HETATM    3  C   UNK N   1      35.287  13.435  17.280  0.00  0.00     0.002 C 
BRANCH   3   4
HETATM    4  C   UNK N   1      35.256  12.145  18.071  0.00  0.00    -0.004 C 
HETATM    5  C   UNK N   1      35.322  12.464  19.550  0.00  0.00     0.005 C 
ENDBRANCH   3   4
ENDBRANCH   2   3
ENDBRANCH   1   2
BRANCH   1   6
HETATM    6  C   UNK N   1      35.942  13.261  13.546  0.00  0.00     0.255 C 
HETATM    7  O   UNK N   1      34.836  13.656  13.203  0.00  0.00    -0.305 OA
ENDBRANCH   1   6
BRANCH   1   8
HETATM    8  N   UNK N   1      37.121  14.286  15.374  0.00  0.00    -0.420 N 
HETATM    9  H   UNK N   1      37.623  14.819  14.665  0.00  0.00     0.150 HD
HETATM   10  H   UNK N   1      37.201  14.549  16.357  0.00  0.00     0.150 HD
ENDBRANCH   1   8
TORSDOF 5
ENDMDL
MODEL 6
REMARK VINA RESULT:      -3.4     11.420     12.028
REMARK  5 active torsions:
REMARK  status: ('A' for Active; 'I' for Inactive)
REMARK    1  A    between atoms: C_3  and  C_2 
REMARK    2  A    between atoms: C_4  and  C_3 
REMARK    3  A    between atoms: C_6  and  C_4 
REMARK    4  A    between atoms: C_6  and  C_5 
REMARK    5  A    between atoms: C_6  and  N_7 
ROOT
HETATM    1  C   UNK N   1      34.531  15.404  10.111  0.00  0.00     0.136 C 
ENDROOT
BRANCH   1   2
HETATM    2  C   UNK N   1      34.053  16.033   8.809  0.00  0.00     0.032 C 
BRANCH   2   3
HETATM    3  C   UNK N   1      32.534  16.081   8.745  0.00  0.00     0.002 C 
BRANCH   3   4
HETATM    4  C   UNK N   1      32.085  17.444   8.263  0.00  0.00    -0.004 C 
HETATM    5  C   UNK N   1      33.301  18.286   7.942  0.00  0.00     0.005 C 
ENDBRANCH   3   4
ENDBRANCH   2   3
ENDBRANCH   1   2
BRANCH   1   6
HETATM    6  C   UNK N   1      35.322  16.413  10.877  0.00  0.00     0.255 C 
HETATM    7  O   UNK N   1      35.651  17.469  10.354  0.00  0.00    -0.305 OA
ENDBRANCH   1   6
BRANCH   1   8
HETATM    8  N   UNK N   1      33.393  14.976  10.909  0.00  0.00    -0.420 N 
HETATM    9  H   UNK N   1      32.694  14.348  10.514  0.00  0.00     0.150 HD
HETATM   10  H   UNK N   1      33.295  15.305  11.870  0.00  0.00     0.150 HD
ENDBRANCH   1   8
TORSDOF 5
ENDMDL
MODEL 7
REMARK VINA RESULT:      -3.4     20.147     21.482
REMARK  5 active torsions:
REMARK  status: ('A' for Active; 'I' for Inactive)
REMARK    1  A    between atoms: C_3  and  C_2 
REMARK    2  A    between atoms: C_4  and  C_3 
REMARK    3  A    between atoms: C_6  and  C_4 
REMARK    4  A    between atoms: C_6  and  C_5 
REMARK    5  A    between atoms: C_6  and  N_7 
ROOT
HETATM    1  C   UNK N   1      26.085  25.800  -5.134  0.00  0.00     0.136 C 
ENDROOT
BRANCH   1   2
HETATM    2  C   UNK N   1      25.469  27.191  -5.094  0.00  0.00     0.032 C 
BRANCH   2   3
HETATM    3  C   UNK N   1      25.667  27.843  -3.734  0.00  0.00     0.002 C 
BRANCH   3   4
HETATM    4  C   UNK N   1      26.214  29.243  -3.913  0.00  0.00    -0.004 C 
HETATM    5  C   UNK N   1      27.172  29.260  -5.085  0.00  0.00     0.005 C 
ENDBRANCH   3   4
ENDBRANCH   2   3
ENDBRANCH   1   2
BRANCH   1   6
HETATM    6  C   UNK N   1      26.566  25.441  -3.767  0.00  0.00     0.255 C 
HETATM    7  O   UNK N   1      26.282  24.357  -3.276  0.00  0.00    -0.305 OA
ENDBRANCH   1   6
BRANCH   1   8
HETATM    8  N   UNK N   1      25.096  24.825  -5.569  0.00  0.00    -0.420 N 
HETATM    9  H   UNK N   1      25.151  23.858  -5.252  0.00  0.00     0.150 HD
HETATM   10  H   UNK N   1      24.343  25.112  -6.194  0.00  0.00     0.150 HD
ENDBRANCH   1   8
TORSDOF 5
ENDMDL
MODEL 8
REMARK VINA RESULT:      -3.4     14.047     14.900
REMARK  5 active torsions:
REMARK  status: ('A' for Active; 'I' for Inactive)
REMARK    1  A    between atoms: C_3  and  C_2 
REMARK    2  A    between atoms: C_4  and  C_3 
REMARK    3  A    between atoms: C_6  and  C_4 
REMARK    4  A    between atoms: C_6  and  C_5 
REMARK    5  A    between atoms: C_6  and  N_7 
ROOT
HETATM    1  C   UNK N   1      36.510  13.740  15.031  0.00  0.00     0.136 C 
ENDROOT
BRANCH   1   2
HETATM    2  C   UNK N   1      35.300  13.056  15.652  0.00  0.00     0.032 C 
BRANCH   2   3
HETATM    3  C   UNK N   1      35.251  13.280  17.156  0.00  0.00     0.002 C 
BRANCH   3   4
HETATM    4  C   UNK N   1      35.265  11.947  17.872  0.00  0.00    -0.004 C 
HETATM    5  C   UNK N   1      35.334  12.183  19.366  0.00  0.00     0.005 C 
ENDBRANCH   3   4
ENDBRANCH   2   3
ENDBRANCH   1   2
BRANCH   1   6
HETATM    6  C   UNK N   1      37.118  14.660  16.037  0.00  0.00     0.255 C 
HETATM    7  O   UNK N   1      37.598  15.730  15.687  0.00  0.00    -0.305 OA
ENDBRANCH   1   6
BRANCH   1   8
HETATM    8  N   UNK N   1      37.494  12.748  14.627  0.00  0.00    -0.420 N 
HETATM    9  H   UNK N   1      38.045  12.884  13.780  0.00  0.00     0.150 HD
HETATM   10  H   UNK N   1      37.635  11.913  15.194  0.00  0.00     0.150 HD
ENDBRANCH   1   8
TORSDOF 5
ENDMDL
MODEL 9
REMARK VINA RESULT:      -3.3     23.636     24.154
REMARK  5 active torsions:
REMARK  status: ('A' for Active; 'I' for Inactive)
REMARK    1  A    between atoms: C_3  and  C_2 
REMARK    2  A    between atoms: C_4  and  C_3 
REMARK    3  A    between atoms: C_6  and  C_4 
REMARK    4  A    between atoms: C_6  and  C_5 
REMARK    5  A    between atoms: C_6  and  N_7 
ROOT
HETATM    1  C   UNK N   1      44.561  22.090   3.239  0.00  0.00     0.136 C 
ENDROOT
BRANCH   1   2
HETATM    2  C   UNK N   1      43.371  21.439   3.931  0.00  0.00     0.032 C 
BRANCH   2   3
HETATM    3  C   UNK N   1      42.854  20.249   3.137  0.00  0.00     0.002 C 
BRANCH   3   4
HETATM    4  C   UNK N   1      41.351  20.152   3.282  0.00  0.00    -0.004 C 
HETATM    5  C   UNK N   1      40.695  21.198   2.407  0.00  0.00     0.005 C 
ENDBRANCH   3   4
ENDBRANCH   2   3
ENDBRANCH   1   2
BRANCH   1   6
HETATM    6  C   UNK N   1      44.136  23.405   2.675  0.00  0.00     0.255 C 
HETATM    7  O   UNK N   1      44.711  24.434   3.002  0.00  0.00    -0.305 OA
ENDBRANCH   1   6
BRANCH   1   8
HETATM    8  N   UNK N   1      45.641  22.299   4.189  0.00  0.00    -0.420 N 
HETATM    9  H   UNK N   1      46.418  21.640   4.240  0.00  0.00     0.150 HD
HETATM   10  H   UNK N   1      45.623  23.110   4.808  0.00  0.00     0.150 HD
ENDBRANCH   1   8
TORSDOF 5
ENDMDL
