REMARK  14 active torsions:
REMARK  status: ('A' for Active; 'I' for Inactive)
REMARK    1  A    between atoms: C_2  and  N_1 
REMARK    2  A    between atoms: C_11  and  C_14 
REMARK    3  A    between atoms: C_12  and  O_15 
REMARK    4  A    between atoms: C_13  and  N_16 
REMARK    5  A    between atoms: C_14  and  O_17 
REMARK    6  A    between atoms: O_17  and  P_18 
REMARK    7  A    between atoms: P_18  and  O_19 
REMARK    8  A    between atoms: P_18  and  O_20 
REMARK    9  A    between atoms: O_19  and  P_22 
REMARK   10  A    between atoms: P_22  and  O_23 
REMARK   11  A    between atoms: P_22  and  O_24 
REMARK   12  A    between atoms: O_23  and  P_26 
REMARK   13  A    between atoms: P_26  and  O_27 
REMARK   14  A    between atoms: P_26  and  O_28 
ROOT
HETATM    1  C   UNK N   1       3.022  -0.874   0.720  0.00  0.00     0.235 C 
HETATM    2  O   UNK N   1       1.970  -0.284   1.447  0.00  0.00    -0.356 OA
HETATM    3  C   UNK N   1       2.420  -1.647  -0.440  0.00  0.00     0.088 C 
HETATM    4  C   UNK N   1       0.917  -1.204   1.339  0.00  0.00     0.177 C 
HETATM    5  C   UNK N   1       0.992  -1.831  -0.030  0.00  0.00     0.153 C 
ENDROOT
BRANCH   4   6
HETATM    6  C   UNK N   1      -0.427  -0.504   1.518  0.00  0.00     0.215 C 
BRANCH   6   7
HETATM    7  O   UNK N   1      -0.461   0.682   0.774  0.00  0.00    -0.294 OA
BRANCH   7   8
HETATM    8  P   UNK N   1      -1.585   0.418  -0.528  0.00  0.00     0.401 P 
HETATM    9  O   UNK N   1      -1.716   1.790  -1.242  0.00  0.00    -0.631 OA
BRANCH   8  10
HETATM   10  O   UNK N   1      -3.174  -0.000   0.058  0.00  0.00    -0.195 OA
BRANCH  10  11
HETATM   11  P   UNK N   1      -4.141  -0.251  -1.368  0.00  0.00     0.410 P 
HETATM   12  O   UNK N   1      -4.560   1.156  -0.851  0.00  0.00    -0.631 OA
BRANCH  11  13
HETATM   13  O   UNK N   1      -5.878  -0.638  -1.194  0.00  0.00    -0.195 OA
BRANCH  13  14
HETATM   14  P   UNK N   1      -6.604  -0.158   0.349  0.00  0.00     0.399 P 
HETATM   15  O   UNK N   1      -7.263   0.812  -0.669  0.00  0.00    -0.631 OA
BRANCH  14  16
HETATM   16  O   UNK N   1      -7.063  -1.795   0.000  0.00  0.00    -0.307 OA
HETATM   17  H   UNK N   1      -7.984  -2.031  -0.195  0.00  0.00     0.222 HD
ENDBRANCH  14  16
BRANCH  14  18
HETATM   18  O   UNK N   1      -8.307  -0.368   0.605  0.00  0.00    -0.307 OA
HETATM   19  H   UNK N   1      -8.885   0.398   0.748  0.00  0.00     0.222 HD
ENDBRANCH  14  18
ENDBRANCH  13  14
ENDBRANCH  11  13
BRANCH  11  20
HETATM   20  O   UNK N   1      -4.195  -1.558  -0.221  0.00  0.00    -0.307 OA
HETATM   21  H   UNK N   1      -4.841  -1.896   0.418  0.00  0.00     0.222 HD
ENDBRANCH  11  20
ENDBRANCH  10  11
ENDBRANCH   8  10
BRANCH   8  22
HETATM   22  O   UNK N   1      -0.986  -0.699  -1.716  0.00  0.00    -0.307 OA
HETATM   23  H   UNK N   1      -1.359  -1.300  -2.379  0.00  0.00     0.222 HD
ENDBRANCH   8  22
ENDBRANCH   7   8
ENDBRANCH   6   7
ENDBRANCH   4   6
BRANCH   5  24
HETATM   24  O   UNK N   1       0.660  -3.184   0.042  0.00  0.00    -0.393 OA
HETATM   25  H   UNK N   1      -0.270  -3.454   0.092  0.00  0.00     0.210 HD
ENDBRANCH   5  24
BRANCH   1  26
HETATM   26  N   UNK N   1       3.999   0.128   0.257  0.00  0.00    -0.282 N 
HETATM   27  C   UNK N   1       5.136  -0.262  -0.430  0.00  0.00     0.330 A 
HETATM   28  N   UNK N   1       6.061   0.676  -0.811  0.00  0.00    -0.295 N 
HETATM   29  O   UNK N   1       5.333  -1.435  -0.692  0.00  0.00    -0.246 OA
HETATM   30  C   UNK N   1       5.884   1.989  -0.526  0.00  0.00     0.103 A 
ATOM     31  HN  UNK N   1       6.896   0.381  -1.318  1.00  0.00     0.172 HD
HETATM   32  C   UNK N   1       4.745   2.404   0.155  0.00  0.00     0.065 A 
HETATM   33  C   UNK N   1       3.807   1.448   0.541  0.00  0.00     0.102 A 
BRANCH  30  34
HETATM   34  N   UNK N   1       6.859   2.931  -0.908  0.00  0.00    -0.385 N 
HETATM   35  H   UNK N   1       7.770   2.670  -1.175  0.00  0.00     0.157 HD
HETATM   36  H   UNK N   1       6.620   3.886  -0.908  0.00  0.00     0.157 HD
ENDBRANCH  30  34
ENDBRANCH   1  26
TORSDOF 14
