REMARK  14 active torsions:
REMARK  status: ('A' for Active; 'I' for Inactive)
REMARK    1  A    between atoms: C_25  and  C_21 
REMARK    2  A    between atoms: N_37  and  C_21 
REMARK    3  A    between atoms: C_26  and  C_22 
REMARK    4  A    between atoms: N_38  and  C_22 
REMARK    5  A    between atoms: C_30  and  C_23 
REMARK    6  A    between atoms: O_44  and  C_23 
REMARK    7  A    between atoms: C_31  and  C_24 
REMARK    8  A    between atoms: O_45  and  C_24 
REMARK    9  A    between atoms: C_34  and  C_27 
REMARK   10  A    between atoms: O_44  and  C_28 
REMARK   11  A    between atoms: O_45  and  C_29 
REMARK   12  A    between atoms: C_32  and  O_39 
REMARK   13  A    between atoms: C_33  and  O_40 
REMARK   14  A    between atoms: O_41  and  C_34 
ROOT
HETATM    1  C   UNK N   1      -0.837   6.008   0.564  0.00  0.00     0.131 C 
HETATM    2  C   UNK N   1      -3.856   6.003  -1.125  0.00  0.00     0.131 C 
HETATM    3  C   UNK N   1      -1.555   7.130  -0.257  0.00  0.00     0.169 C 
HETATM    4  C   UNK N   1      -3.116   7.085  -0.273  0.00  0.00     0.169 C 
HETATM    5  N   UNK N   1      -0.601   4.707  -0.109  0.00  0.00    -0.184 NA
HETATM    6  N   UNK N   1      -3.536   4.605  -0.776  0.00  0.00    -0.184 NA
HETATM    7  O   UNK N   1      -1.580   4.801  -2.615  0.00  0.00    -0.194 OA
HETATM    8  O   UNK N   1      -1.819   2.681  -1.505  0.00  0.00    -0.194 OA
HETATM    9  S   UNK N   1      -1.883   4.192  -1.237  0.00  0.00     0.284 S 
ENDROOT
BRANCH   6  10
HETATM   10  C   UNK N   1      -3.788   4.231   0.623  0.00  0.00     0.147 C 
BRANCH  10  11
HETATM   11  C   UNK N   1      -5.247   3.957   0.856  0.00  0.00    -0.043 A 
HETATM   12  C   UNK N   1      -5.985   4.851   1.634  0.00  0.00     0.008 A 
HETATM   13  C   UNK N   1      -7.362   4.684   1.780  0.00  0.00     0.002 A 
HETATM   14  C   UNK N   1      -8.007   3.619   1.151  0.00  0.00     0.016 A 
HETATM   15  C   UNK N   1      -7.286   2.683   0.398  0.00  0.00     0.015 A 
HETATM   16  C   UNK N   1      -5.892   2.866   0.247  0.00  0.00     0.024 A 
BRANCH  15  17
HETATM   17  C   UNK N   1      -8.040   1.551  -0.235  0.00  0.00     0.145 C 
HETATM   18  N   UNK N   1      -7.489   0.490  -0.723  0.00  0.00    -0.375 N 
HETATM   19  C   UNK N   1      -6.076   0.202  -0.703  0.00  0.00     0.148 C 
ATOM     20  HN  UNK N   1      -8.103  -0.199  -1.158  1.00  0.00     0.161 HD
BRANCH  17  21
HETATM   21  O   UNK N   1      -9.388   1.639  -0.276  0.00  0.00    -0.346 OA
HETATM   22  H   UNK N   1      -9.802   2.479  -0.304  0.00  0.00     0.219 HD
ENDBRANCH  17  21
ENDBRANCH  15  17
ENDBRANCH  10  11
ENDBRANCH   6  10
BRANCH   2  23
HETATM   23  C   UNK N   1      -5.399   6.147  -1.119  0.00  0.00     0.199 C 
BRANCH  23  24
HETATM   24  O   UNK N   1      -5.837   7.354  -0.617  0.00  0.00    -0.349 OA
BRANCH  24  25
HETATM   25  C   UNK N   1      -7.137   7.670  -0.425  0.00  0.00     0.068 A 
HETATM   26  C   UNK N   1      -8.175   6.802  -0.806  0.00  0.00     0.037 A 
HETATM   27  C   UNK N   1      -9.507   7.163  -0.586  0.00  0.00     0.003 A 
HETATM   28  C   UNK N   1      -9.810   8.388   0.015  0.00  0.00     0.000 A 
HETATM   29  C   UNK N   1      -8.781   9.253   0.397  0.00  0.00     0.003 A 
HETATM   30  C   UNK N   1      -7.449   8.894   0.176  0.00  0.00     0.037 A 
ENDBRANCH  24  25
ENDBRANCH  23  24
ENDBRANCH   2  23
BRANCH   4  31
HETATM   31  O   UNK N   1      -3.526   8.335  -0.757  0.00  0.00    -0.391 OA
HETATM   32  H   UNK N   1      -2.919   9.013  -1.092  0.00  0.00     0.210 HD
ENDBRANCH   4  31
BRANCH   5  33
HETATM   33  C   UNK N   1      -0.360   3.719   0.960  0.00  0.00     0.147 C 
BRANCH  33  34
HETATM   34  C   UNK N   1       0.049   2.362   0.500  0.00  0.00    -0.044 A 
HETATM   35  C   UNK N   1       1.151   2.178  -0.345  0.00  0.00     0.008 A 
HETATM   36  C   UNK N   1       1.504   0.887  -0.754  0.00  0.00     0.001 A 
HETATM   37  C   UNK N   1       0.765  -0.217  -0.312  0.00  0.00     0.000 A 
HETATM   38  C   UNK N   1      -0.327  -0.031   0.540  0.00  0.00     0.001 A 
HETATM   39  C   UNK N   1      -0.683   1.256   0.945  0.00  0.00     0.008 A 
ENDBRANCH  33  34
ENDBRANCH   5  33
BRANCH   3  40
HETATM   40  O   UNK N   1      -1.237   8.353   0.355  0.00  0.00    -0.391 OA
HETATM   41  H   UNK N   1      -0.396   8.585   0.778  0.00  0.00     0.210 HD
ENDBRANCH   3  40
BRANCH   1  42
HETATM   42  C   UNK N   1       0.527   6.497   1.104  0.00  0.00     0.199 C 
BRANCH  42  43
HETATM   43  O   UNK N   1       1.278   7.203   0.184  0.00  0.00    -0.349 OA
BRANCH  43  44
HETATM   44  C   UNK N   1       2.624   7.090   0.102  0.00  0.00     0.068 A 
HETATM   45  C   UNK N   1       3.370   8.169  -0.391  0.00  0.00     0.037 A 
HETATM   46  C   UNK N   1       4.767   8.099  -0.437  0.00  0.00     0.003 A 
HETATM   47  C   UNK N   1       5.424   6.943  -0.009  0.00  0.00     0.000 A 
HETATM   48  C   UNK N   1       4.686   5.856   0.467  0.00  0.00     0.003 A 
HETATM   49  C   UNK N   1       3.291   5.930   0.532  0.00  0.00     0.037 A 
ENDBRANCH  43  44
ENDBRANCH  42  43
ENDBRANCH   1  42
TORSDOF 14
