MODEL 1
REMARK VINA RESULT:      -3.5      0.000      0.000
REMARK  7 active torsions:
REMARK  status: ('A' for Active; 'I' for Inactive)
REMARK    1  A    between atoms: N_1  and  C_2 
REMARK    2  A    between atoms: C_2  and  C_3 
REMARK    3  A    between atoms: C_3  and  C_4 
REMARK    4  A    between atoms: C_4  and  C_5 
REMARK    5  A    between atoms: C_5  and  C_6 
REMARK    6  A    between atoms: C_6  and  C_7 
REMARK    7  A    between atoms: C_7  and  N_8 
ROOT
HETATM    1  C   UNK N   1      35.349  12.402  17.175  0.00  0.00     0.002 C 
ENDROOT
BRANCH   1   2
HETATM    2  C   UNK N   1      35.147  13.391  18.298  0.00  0.00     0.019 C 
BRANCH   2   3
HETATM    3  C   UNK N   1      35.224  12.663  19.620  0.00  0.00     0.111 C 
BRANCH   3   4
HETATM    4  N   UNK N   1      34.590  13.470  20.645  0.00  0.00    -0.430 N 
HETATM    5  H   UNK N   1      34.340  13.051  21.541  0.00  0.00     0.149 HD
HETATM    6  H   UNK N   1      34.392  14.455  20.469  0.00  0.00     0.149 HD
ENDBRANCH   3   4
ENDBRANCH   2   3
ENDBRANCH   1   2
BRANCH   1   7
HETATM    7  C   UNK N   1      35.115  13.102  15.858  0.00  0.00     0.002 C 
BRANCH   7   8
HETATM    8  C   UNK N   1      36.438  13.596  15.324  0.00  0.00     0.019 C 
BRANCH   8   9
HETATM    9  C   UNK N   1      36.390  13.614  13.814  0.00  0.00     0.111 C 
BRANCH   9  10
HETATM   10  N   UNK N   1      36.429  14.986  13.352  0.00  0.00    -0.430 N 
HETATM   11  H   UNK N   1      36.309  15.752  14.015  0.00  0.00     0.149 HD
HETATM   12  H   UNK N   1      36.576  15.187  12.362  0.00  0.00     0.149 HD
ENDBRANCH   9  10
ENDBRANCH   8   9
ENDBRANCH   7   8
ENDBRANCH   1   7
TORSDOF 7
ENDMDL
MODEL 2
REMARK VINA RESULT:      -3.4      9.277     10.569
REMARK  7 active torsions:
REMARK  status: ('A' for Active; 'I' for Inactive)
REMARK    1  A    between atoms: N_1  and  C_2 
REMARK    2  A    between atoms: C_2  and  C_3 
REMARK    3  A    between atoms: C_3  and  C_4 
REMARK    4  A    between atoms: C_4  and  C_5 
REMARK    5  A    between atoms: C_5  and  C_6 
REMARK    6  A    between atoms: C_6  and  C_7 
REMARK    7  A    between atoms: C_7  and  N_8 
ROOT
HETATM    1  C   UNK N   1      31.012  18.147   8.739  0.00  0.00     0.002 C 
ENDROOT
BRANCH   1   2
HETATM    2  C   UNK N   1      29.675  17.629   8.267  0.00  0.00     0.019 C 
BRANCH   2   3
HETATM    3  C   UNK N   1      28.681  17.714   9.401  0.00  0.00     0.111 C 
BRANCH   3   4
HETATM    4  N   UNK N   1      27.580  18.572   9.007  0.00  0.00    -0.430 N 
HETATM    5  H   UNK N   1      27.685  19.203   8.212  0.00  0.00     0.149 HD
HETATM    6  H   UNK N   1      26.702  18.544   9.524  0.00  0.00     0.149 HD
ENDBRANCH   3   4
ENDBRANCH   2   3
ENDBRANCH   1   2
BRANCH   1   7
HETATM    7  C   UNK N   1      32.108  17.422   7.997  0.00  0.00     0.002 C 
BRANCH   7   8
HETATM    8  C   UNK N   1      33.376  18.239   8.075  0.00  0.00     0.019 C 
BRANCH   8   9
HETATM    9  C   UNK N   1      34.516  17.347   8.509  0.00  0.00     0.111 C 
BRANCH   9  10
HETATM   10  N   UNK N   1      34.436  17.134   9.940  0.00  0.00    -0.430 N 
HETATM   11  H   UNK N   1      35.173  17.488  10.551  0.00  0.00     0.149 HD
HETATM   12  H   UNK N   1      33.644  16.630  10.337  0.00  0.00     0.149 HD
ENDBRANCH   9  10
ENDBRANCH   8   9
ENDBRANCH   7   8
ENDBRANCH   1   7
TORSDOF 7
ENDMDL
MODEL 3
REMARK VINA RESULT:      -3.4     14.693     15.686
REMARK  7 active torsions:
REMARK  status: ('A' for Active; 'I' for Inactive)
REMARK    1  A    between atoms: N_1  and  C_2 
REMARK    2  A    between atoms: C_2  and  C_3 
REMARK    3  A    between atoms: C_3  and  C_4 
REMARK    4  A    between atoms: C_4  and  C_5 
REMARK    5  A    between atoms: C_5  and  C_6 
REMARK    6  A    between atoms: C_6  and  C_7 
REMARK    7  A    between atoms: C_7  and  N_8 
ROOT
HETATM    1  C   UNK N   1      21.761  13.671   9.898  0.00  0.00     0.002 C 
ENDROOT
BRANCH   1   2
HETATM    2  C   UNK N   1      20.396  14.242   9.601  0.00  0.00     0.019 C 
BRANCH   2   3
HETATM    3  C   UNK N   1      20.554  15.559   8.879  0.00  0.00     0.111 C 
BRANCH   3   4
HETATM    4  N   UNK N   1      19.284  16.259   8.881  0.00  0.00    -0.430 N 
HETATM    5  H   UNK N   1      18.657  16.176   9.681  0.00  0.00     0.149 HD
HETATM    6  H   UNK N   1      19.017  16.833   8.081  0.00  0.00     0.149 HD
ENDBRANCH   3   4
ENDBRANCH   2   3
ENDBRANCH   1   2
BRANCH   1   7
HETATM    7  C   UNK N   1      21.604  12.457  10.782  0.00  0.00     0.002 C 
BRANCH   7   8
HETATM    8  C   UNK N   1      22.969  11.883  11.073  0.00  0.00     0.019 C 
BRANCH   8   9
HETATM    9  C   UNK N   1      23.991  12.554  10.187  0.00  0.00     0.111 C 
BRANCH   9  10
HETATM   10  N   UNK N   1      25.209  12.771  10.942  0.00  0.00    -0.430 N 
HETATM   11  H   UNK N   1      25.597  13.711  11.027  0.00  0.00     0.149 HD
HETATM   12  H   UNK N   1      25.679  11.984  11.389  0.00  0.00     0.149 HD
ENDBRANCH   9  10
ENDBRANCH   8   9
ENDBRANCH   7   8
ENDBRANCH   1   7
TORSDOF 7
ENDMDL
MODEL 4
REMARK VINA RESULT:      -3.4      0.733      5.091
REMARK  7 active torsions:
REMARK  status: ('A' for Active; 'I' for Inactive)
REMARK    1  A    between atoms: N_1  and  C_2 
REMARK    2  A    between atoms: C_2  and  C_3 
REMARK    3  A    between atoms: C_3  and  C_4 
REMARK    4  A    between atoms: C_4  and  C_5 
REMARK    5  A    between atoms: C_5  and  C_6 
REMARK    6  A    between atoms: C_6  and  C_7 
REMARK    7  A    between atoms: C_7  and  N_8 
ROOT
HETATM    1  C   UNK N   1      35.116  12.802  16.210  0.00  0.00     0.002 C 
ENDROOT
BRANCH   1   2
HETATM    2  C   UNK N   1      36.291  13.558  15.636  0.00  0.00     0.019 C 
BRANCH   2   3
HETATM    3  C   UNK N   1      36.068  13.774  14.158  0.00  0.00     0.111 C 
BRANCH   3   4
HETATM    4  N   UNK N   1      36.741  14.991  13.748  0.00  0.00    -0.430 N 
HETATM    5  H   UNK N   1      36.927  15.726  14.431  0.00  0.00     0.149 HD
HETATM    6  H   UNK N   1      37.028  15.113  12.777  0.00  0.00     0.149 HD
ENDBRANCH   3   4
ENDBRANCH   2   3
ENDBRANCH   1   2
BRANCH   1   7
HETATM    7  C   UNK N   1      35.068  13.029  17.701  0.00  0.00     0.002 C 
BRANCH   7   8
HETATM    8  C   UNK N   1      35.287  11.712  18.405  0.00  0.00     0.019 C 
BRANCH   8   9
HETATM    9  C   UNK N   1      35.589  11.970  19.863  0.00  0.00     0.111 C 
BRANCH   9  10
HETATM   10  N   UNK N   1      34.892  13.167  20.289  0.00  0.00    -0.430 N 
HETATM   11  H   UNK N   1      33.905  13.120  20.542  0.00  0.00     0.149 HD
HETATM   12  H   UNK N   1      35.389  14.057  20.337  0.00  0.00     0.149 HD
ENDBRANCH   9  10
ENDBRANCH   8   9
ENDBRANCH   7   8
ENDBRANCH   1   7
TORSDOF 7
ENDMDL
MODEL 5
REMARK VINA RESULT:      -3.4     10.352     11.300
REMARK  7 active torsions:
REMARK  status: ('A' for Active; 'I' for Inactive)
REMARK    1  A    between atoms: N_1  and  C_2 
REMARK    2  A    between atoms: C_2  and  C_3 
REMARK    3  A    between atoms: C_3  and  C_4 
REMARK    4  A    between atoms: C_4  and  C_5 
REMARK    5  A    between atoms: C_5  and  C_6 
REMARK    6  A    between atoms: C_6  and  C_7 
REMARK    7  A    between atoms: C_7  and  N_8 
ROOT
HETATM    1  C   UNK N   1      31.608  17.236   7.259  0.00  0.00     0.002 C 
ENDROOT
BRANCH   1   2
HETATM    2  C   UNK N   1      32.574  17.851   8.244  0.00  0.00     0.019 C 
BRANCH   2   3
HETATM    3  C   UNK N   1      33.912  18.047   7.570  0.00  0.00     0.111 C 
BRANCH   3   4
HETATM    4  N   UNK N   1      34.814  18.714   8.488  0.00  0.00    -0.430 N 
HETATM    5  H   UNK N   1      35.771  18.925   8.201  0.00  0.00     0.149 HD
HETATM    6  H   UNK N   1      34.493  18.974   9.421  0.00  0.00     0.149 HD
ENDBRANCH   3   4
ENDBRANCH   2   3
ENDBRANCH   1   2
BRANCH   1   7
HETATM    7  C   UNK N   1      30.198  17.573   7.682  0.00  0.00     0.002 C 
BRANCH   7   8
HETATM    8  C   UNK N   1      30.251  18.477   8.890  0.00  0.00     0.019 C 
BRANCH   8   9
HETATM    9  C   UNK N   1      29.105  18.139   9.814  0.00  0.00     0.111 C 
BRANCH   9  10
HETATM   10  N   UNK N   1      27.852  18.387   9.130  0.00  0.00    -0.430 N 
HETATM   11  H   UNK N   1      27.001  17.916   9.438  0.00  0.00     0.149 HD
HETATM   12  H   UNK N   1      27.820  19.034   8.342  0.00  0.00     0.149 HD
ENDBRANCH   9  10
ENDBRANCH   8   9
ENDBRANCH   7   8
ENDBRANCH   1   7
TORSDOF 7
ENDMDL
MODEL 6
REMARK VINA RESULT:      -3.3     26.665     27.650
REMARK  7 active torsions:
REMARK  status: ('A' for Active; 'I' for Inactive)
REMARK    1  A    between atoms: N_1  and  C_2 
REMARK    2  A    between atoms: C_2  and  C_3 
REMARK    3  A    between atoms: C_3  and  C_4 
REMARK    4  A    between atoms: C_4  and  C_5 
REMARK    5  A    between atoms: C_5  and  C_6 
REMARK    6  A    between atoms: C_6  and  C_7 
REMARK    7  A    between atoms: C_7  and  N_8 
ROOT
HETATM    1  C   UNK N   1      25.483  25.892  -6.243  0.00  0.00     0.002 C 
ENDROOT
BRANCH   1   2
HETATM    2  C   UNK N   1      25.666  24.775  -5.245  0.00  0.00     0.019 C 
BRANCH   2   3
HETATM    3  C   UNK N   1      25.971  23.494  -5.984  0.00  0.00     0.111 C 
BRANCH   3   4
HETATM    4  N   UNK N   1      25.295  23.512  -7.267  0.00  0.00    -0.430 N 
HETATM    5  H   UNK N   1      25.814  23.744  -8.115  0.00  0.00     0.149 HD
HETATM    6  H   UNK N   1      24.301  23.293  -7.323  0.00  0.00     0.149 HD
ENDBRANCH   3   4
ENDBRANCH   2   3
ENDBRANCH   1   2
BRANCH   1   7
HETATM    7  C   UNK N   1      25.006  27.126  -5.516  0.00  0.00     0.002 C 
BRANCH   7   8
HETATM    8  C   UNK N   1      26.178  28.055  -5.306  0.00  0.00     0.019 C 
BRANCH   8   9
HETATM    9  C   UNK N   1      26.049  28.723  -3.957  0.00  0.00     0.111 C 
BRANCH   9  10
HETATM   10  N   UNK N   1      25.712  27.725  -2.962  0.00  0.00    -0.430 N 
HETATM   11  H   UNK N   1      25.475  28.012  -2.012  0.00  0.00     0.149 HD
HETATM   12  H   UNK N   1      25.712  26.736  -3.210  0.00  0.00     0.149 HD
ENDBRANCH   9  10
ENDBRANCH   8   9
ENDBRANCH   7   8
ENDBRANCH   1   7
TORSDOF 7
ENDMDL
MODEL 7
REMARK VINA RESULT:      -3.3     14.771     15.549
REMARK  7 active torsions:
REMARK  status: ('A' for Active; 'I' for Inactive)
REMARK    1  A    between atoms: N_1  and  C_2 
REMARK    2  A    between atoms: C_2  and  C_3 
REMARK    3  A    between atoms: C_3  and  C_4 
REMARK    4  A    between atoms: C_4  and  C_5 
REMARK    5  A    between atoms: C_5  and  C_6 
REMARK    6  A    between atoms: C_6  and  C_7 
REMARK    7  A    between atoms: C_7  and  N_8 
ROOT
HETATM    1  C   UNK N   1      21.510  12.482  10.532  0.00  0.00     0.002 C 
ENDROOT
BRANCH   1   2
HETATM    2  C   UNK N   1      22.755  11.629  10.484  0.00  0.00     0.019 C 
BRANCH   2   3
HETATM    3  C   UNK N   1      23.650  11.989  11.646  0.00  0.00     0.111 C 
BRANCH   3   4
HETATM    4  N   UNK N   1      24.939  12.418  11.139  0.00  0.00    -0.430 N 
HETATM    5  H   UNK N   1      25.339  13.305  11.447  0.00  0.00     0.149 HD
HETATM    6  H   UNK N   1      25.446  11.833  10.475  0.00  0.00     0.149 HD
ENDBRANCH   3   4
ENDBRANCH   2   3
ENDBRANCH   1   2
BRANCH   1   7
HETATM    7  C   UNK N   1      21.762  13.760   9.770  0.00  0.00     0.002 C 
BRANCH   7   8
HETATM    8  C   UNK N   1      20.439  14.424   9.475  0.00  0.00     0.019 C 
BRANCH   8   9
HETATM    9  C   UNK N   1      20.688  15.766   8.828  0.00  0.00     0.111 C 
BRANCH   9  10
HETATM   10  N   UNK N   1      19.504  16.172   8.099  0.00  0.00    -0.430 N 
HETATM   11  H   UNK N   1      19.285  17.162   7.990  0.00  0.00     0.149 HD
HETATM   12  H   UNK N   1      18.888  15.467   7.694  0.00  0.00     0.149 HD
ENDBRANCH   9  10
ENDBRANCH   8   9
ENDBRANCH   7   8
ENDBRANCH   1   7
TORSDOF 7
ENDMDL
MODEL 8
REMARK VINA RESULT:      -3.3     14.461     15.279
REMARK  7 active torsions:
REMARK  status: ('A' for Active; 'I' for Inactive)
REMARK    1  A    between atoms: N_1  and  C_2 
REMARK    2  A    between atoms: C_2  and  C_3 
REMARK    3  A    between atoms: C_3  and  C_4 
REMARK    4  A    between atoms: C_4  and  C_5 
REMARK    5  A    between atoms: C_5  and  C_6 
REMARK    6  A    between atoms: C_6  and  C_7 
REMARK    7  A    between atoms: C_7  and  N_8 
ROOT
HETATM    1  C   UNK N   1      21.611  12.220  11.115  0.00  0.00     0.002 C 
ENDROOT
BRANCH   1   2
HETATM    2  C   UNK N   1      23.034  11.973  11.553  0.00  0.00     0.019 C 
BRANCH   2   3
HETATM    3  C   UNK N   1      23.969  12.307  10.415  0.00  0.00     0.111 C 
BRANCH   3   4
HETATM    4  N   UNK N   1      25.232  12.771  10.957  0.00  0.00    -0.430 N 
HETATM    5  H   UNK N   1      26.083  12.701  10.399  0.00  0.00     0.149 HD
HETATM    6  H   UNK N   1      25.269  13.167  11.896  0.00  0.00     0.149 HD
ENDBRANCH   3   4
ENDBRANCH   2   3
ENDBRANCH   1   2
BRANCH   1   7
HETATM    7  C   UNK N   1      21.621  12.808   9.725  0.00  0.00     0.002 C 
BRANCH   7   8
HETATM    8  C   UNK N   1      20.775  14.058   9.715  0.00  0.00     0.019 C 
BRANCH   8   9
HETATM    9  C   UNK N   1      20.592  14.525   8.290  0.00  0.00     0.111 C 
BRANCH   9  10
HETATM   10  N   UNK N   1      20.975  13.459   7.386  0.00  0.00    -0.430 N 
HETATM   11  H   UNK N   1      20.510  12.552   7.441  0.00  0.00     0.149 HD
HETATM   12  H   UNK N   1      21.708  13.615   6.695  0.00  0.00     0.149 HD
ENDBRANCH   9  10
ENDBRANCH   8   9
ENDBRANCH   7   8
ENDBRANCH   1   7
TORSDOF 7
ENDMDL
MODEL 9
REMARK VINA RESULT:      -3.2      8.589     10.572
REMARK  7 active torsions:
REMARK  status: ('A' for Active; 'I' for Inactive)
REMARK    1  A    between atoms: N_1  and  C_2 
REMARK    2  A    between atoms: C_2  and  C_3 
REMARK    3  A    between atoms: C_3  and  C_4 
REMARK    4  A    between atoms: C_4  and  C_5 
REMARK    5  A    between atoms: C_5  and  C_6 
REMARK    6  A    between atoms: C_6  and  C_7 
REMARK    7  A    between atoms: C_7  and  N_8 
ROOT
HETATM    1  C   UNK N   1      32.015  17.585   8.098  0.00  0.00     0.002 C 
ENDROOT
BRANCH   1   2
HETATM    2  C   UNK N   1      31.894  16.080   8.110  0.00  0.00     0.019 C 
BRANCH   2   3
HETATM    3  C   UNK N   1      32.808  15.518   9.173  0.00  0.00     0.111 C 
BRANCH   3   4
HETATM    4  N   UNK N   1      32.011  15.085  10.305  0.00  0.00    -0.430 N 
HETATM    5  H   UNK N   1      32.034  15.614  11.177  0.00  0.00     0.149 HD
HETATM    6  H   UNK N   1      31.428  14.252  10.230  0.00  0.00     0.149 HD
ENDBRANCH   3   4
ENDBRANCH   2   3
ENDBRANCH   1   2
BRANCH   1   7
HETATM    7  C   UNK N   1      30.815  18.178   8.798  0.00  0.00     0.002 C 
BRANCH   7   8
HETATM    8  C   UNK N   1      29.577  17.428   8.368  0.00  0.00     0.019 C 
BRANCH   8   9
HETATM    9  C   UNK N   1      28.498  17.611   9.409  0.00  0.00     0.111 C 
BRANCH   9  10
HETATM   10  N   UNK N   1      27.577  18.638   8.966  0.00  0.00    -0.430 N 
HETATM   11  H   UNK N   1      27.929  19.468   8.488  0.00  0.00     0.149 HD
HETATM   12  H   UNK N   1      26.576  18.532   9.132  0.00  0.00     0.149 HD
ENDBRANCH   9  10
ENDBRANCH   8   9
ENDBRANCH   7   8
ENDBRANCH   1   7
TORSDOF 7
ENDMDL
