REMARK  6 active torsions:
REMARK  status: ('A' for Active; 'I' for Inactive)
REMARK    1  A    between atoms: C_2  and  N_1 
REMARK    2  A    between atoms: C_2  and  C_3 
REMARK    3  A    between atoms: C_2  and  C_8 
REMARK    4  A    between atoms: C_3  and  C_4 
REMARK    5  A    between atoms: C_4  and  C_5 
REMARK    6  A    between atoms: C_5  and  O_6 
REMARK       I    between atoms: C_8  and  N_9 
ROOT
HETATM    1  C   UNK N   1       5.088   2.199  -0.000  0.00  0.00     0.167 C 
ENDROOT
BRANCH   1   2
HETATM    2  N   UNK N   1       5.753   3.490   0.000  0.00  0.00    -0.418 N 
HETATM    3  H   UNK N   1       6.771   3.539   0.000  0.00  0.00     0.150 HD
HETATM    4  H   UNK N   1       5.201   4.348   0.000  0.00  0.00     0.150 HD
ENDBRANCH   1   2
BRANCH   1   5
HETATM    5  C   UNK N   1       3.561   2.240   0.000  0.00  0.00     0.044 C 
BRANCH   5   6
HETATM    6  C   UNK N   1       2.927   0.860  -0.000  0.00  0.00     0.112 C 
BRANCH   6   7
HETATM    7  C   UNK N   1       1.435   0.916   0.000  0.00  0.00     0.139 C 
HETATM    8  O   UNK N   1       0.801  -0.124  -0.000  0.00  0.00    -0.650 OA
BRANCH   7   9
HETATM    9  O   UNK N   1       0.784   2.097   0.000  0.00  0.00    -0.776 OA
HETATM   10  H   UNK N   1       1.268   2.899   0.000  0.00  0.00     0.167 HD
ENDBRANCH   7   9
ENDBRANCH   6   7
ENDBRANCH   5   6
ENDBRANCH   1   5
BRANCH   1  11
HETATM   11  C   UNK N   1       5.968   0.971   0.000  0.00  0.00     0.237 C 
HETATM   12  N   UNK N   1       7.309   1.109   0.000  0.00  0.00    -0.368 N 
HETATM   13  H   UNK N   1       7.886   0.311   0.000  0.00  0.00     0.159 HD
HETATM   14  H   UNK N   1       7.711   2.008   0.000  0.00  0.00     0.159 HD
HETATM   15  O   UNK N   1       5.483  -0.148   0.000  0.00  0.00    -0.271 OA
ENDBRANCH   1  11
TORSDOF 6
