MODEL 1
REMARK VINA RESULT:      -9.2      0.000      0.000
REMARK  9 active torsions:
REMARK  status: ('A' for Active; 'I' for Inactive)
REMARK       I    between atoms: N_1  and  C_2 
REMARK    1  A    between atoms: C_2  and  C_4 
REMARK    2  A    between atoms: C_5  and  C_4 
REMARK    3  A    between atoms: C_19  and  C_39 
REMARK    4  A    between atoms: C_23  and  C_28 
REMARK    5  A    between atoms: C_28  and  C_29 
REMARK    6  A    between atoms: C_42  and  C_43 
REMARK    7  A    between atoms: C_43  and  P_44 
REMARK    8  A    between atoms: P_44  and  O_45 
REMARK    9  A    between atoms: P_44  and  O_46 
ROOT
HETATM    1  C   UNK N   1      20.640  16.571   7.172  0.00  0.00     0.185 C 
HETATM    2  N   UNK N   1      21.411  15.392   6.805  0.00  0.00    -0.345 N 
HETATM    3  C   UNK N   1      21.208  14.138   7.296  0.00  0.00     0.246 C 
HETATM    4  O   UNK N   1      20.379  13.945   8.178  0.00  0.00    -0.271 OA
HETATM    5  C   UNK N   1      22.007  12.966   6.732  0.00  0.00     0.113 C 
HETATM    6  C   UNK N   1      23.506  13.309   6.780  0.00  0.00     0.041 C 
HETATM    7  C   UNK N   1      24.052  13.531   8.198  0.00  0.00     0.003 C 
HETATM    8  C   UNK N   1      23.263  12.779   9.272  0.00  0.00     0.000 C 
HETATM    9  C   UNK N   1      22.708  11.463   8.737  0.00  0.00     0.003 C 
HETATM   10  C   UNK N   1      21.780  11.662   7.526  0.00  0.00     0.041 C 
HETATM   11  N   UNK N   1      21.676  12.687   5.336  0.00  0.00    -0.343 N 
HETATM   12  C   UNK N   1      20.551  13.047   4.653  0.00  0.00     0.219 C 
HETATM   13  O   UNK N   1      19.616  13.597   5.211  0.00  0.00    -0.274 OA
HETATM   14  C   UNK N   1      20.452  12.768   3.179  0.00  0.00     0.116 C 
HETATM   15  C   UNK N   1      21.584  13.382   2.334  0.00  0.00     0.049 C 
HETATM   16  C   UNK N   1      22.390  14.477   2.971  0.00  0.00    -0.021 C 
HETATM   17  C   UNK N   1      23.549  14.213   3.582  0.00  0.00    -0.029 C 
HETATM   18  C   UNK N   1      24.359  15.217   4.355  0.00  0.00     0.033 C 
HETATM   19  C   UNK N   1      23.804  16.630   4.563  0.00  0.00     0.011 C 
HETATM   20  C   UNK N   1      22.283  16.760   4.649  0.00  0.00     0.128 C 
HETATM   21  N   UNK N   1      21.905  17.918   5.410  0.00  0.00    -0.359 N 
HETATM   22  C   UNK N   1      21.157  17.873   6.546  0.00  0.00     0.240 C 
HETATM   23  O   UNK N   1      20.856  18.931   7.075  0.00  0.00    -0.271 OA
HETATM   24  H   UNK N   1      22.137  15.510   6.150  0.00  0.00     0.163 HD
HETATM   25  H   UNK N   1      22.347  12.178   4.826  0.00  0.00     0.163 HD
HETATM   26  H   UNK N   1      22.205  18.799   5.089  0.00  0.00     0.162 HD
ENDROOT
BRANCH  15  27
HETATM   27  C   UNK N   1      22.408  12.368   1.616  0.00  0.00    -0.050 A 
HETATM   28  C   UNK N   1      22.715  11.137   2.217  0.00  0.00     0.008 A 
HETATM   29  C   UNK N   1      23.453  10.184   1.514  0.00  0.00     0.008 A 
HETATM   30  C   UNK N   1      23.908  10.473   0.222  0.00  0.00    -0.047 A 
HETATM   31  C   UNK N   1      23.629  11.711  -0.361  0.00  0.00     0.008 A 
HETATM   32  C   UNK N   1      22.881  12.657   0.335  0.00  0.00     0.008 A 
BRANCH  30  33
HETATM   33  C   UNK N   1      24.537   9.424  -0.613  0.00  0.00     0.163 C 
BRANCH  33  34
HETATM   34  P   UNK N   1      23.199   8.744  -1.717  0.00  0.00     0.240 P 
HETATM   35  O   UNK N   1      23.264   9.394  -3.125  0.00  0.00    -0.653 OA
BRANCH  34  36
HETATM   36  O   UNK N   1      23.365   7.045  -2.040  0.00  0.00    -0.329 OA
HETATM   37  H   UNK N   1      23.781   6.213  -2.315  0.00  0.00     0.220 HD
ENDBRANCH  34  36
BRANCH  34  38
HETATM   38  O   UNK N   1      21.570   9.003  -1.184  0.00  0.00    -0.329 OA
HETATM   39  H   UNK N   1      21.365   9.738  -0.585  0.00  0.00     0.220 HD
ENDBRANCH  34  38
ENDBRANCH  33  34
ENDBRANCH  30  33
ENDBRANCH  15  27
BRANCH  19  40
HETATM   40  C   UNK N   1      24.492  17.672   3.685  0.00  0.00     0.046 C 
BRANCH  40  41
HETATM   41  C   UNK N   1      25.627  18.384   4.360  0.00  0.00    -0.047 A 
HETATM   42  C   UNK N   1      25.388  19.540   5.113  0.00  0.00     0.008 A 
HETATM   43  C   UNK N   1      26.443  20.205   5.743  0.00  0.00     0.001 A 
HETATM   44  C   UNK N   1      27.749  19.723   5.622  0.00  0.00     0.012 A 
HETATM   45  C   UNK N   1      28.004  18.574   4.867  0.00  0.00    -0.025 A 
HETATM   46  C   UNK N   1      29.311  18.094   4.744  0.00  0.00     0.012 A 
HETATM   47  C   UNK N   1      26.941  17.897   4.229  0.00  0.00    -0.020 A 
HETATM   48  C   UNK N   1      29.567  16.945   3.989  0.00  0.00     0.001 A 
HETATM   49  C   UNK N   1      28.519  16.272   3.356  0.00  0.00     0.001 A 
HETATM   50  C   UNK N   1      27.211  16.745   3.474  0.00  0.00     0.013 A 
ENDBRANCH  40  41
ENDBRANCH  19  40
BRANCH   1  51
HETATM   51  C   UNK N   1      20.430  16.704   8.689  0.00  0.00     0.137 C 
BRANCH  51  52
HETATM   52  C   UNK N   1      19.031  17.074   9.066  0.00  0.00     0.217 C 
HETATM   53  N   UNK N   1      18.755  18.338   9.439  0.00  0.00    -0.370 N 
HETATM   54  H   UNK N   1      18.667  19.090   8.809  0.00  0.00     0.159 HD
HETATM   55  H   UNK N   1      18.633  18.521  10.399  0.00  0.00     0.159 HD
HETATM   56  O   UNK N   1      18.146  16.235   9.060  0.00  0.00    -0.274 OA
ENDBRANCH  51  52
ENDBRANCH   1  51
TORSDOF 9
ENDMDL
MODEL 2
REMARK VINA RESULT:      -9.2      0.484      1.714
REMARK  9 active torsions:
REMARK  status: ('A' for Active; 'I' for Inactive)
REMARK       I    between atoms: N_1  and  C_2 
REMARK    1  A    between atoms: C_2  and  C_4 
REMARK    2  A    between atoms: C_5  and  C_4 
REMARK    3  A    between atoms: C_19  and  C_39 
REMARK    4  A    between atoms: C_23  and  C_28 
REMARK    5  A    between atoms: C_28  and  C_29 
REMARK    6  A    between atoms: C_42  and  C_43 
REMARK    7  A    between atoms: C_43  and  P_44 
REMARK    8  A    between atoms: P_44  and  O_45 
REMARK    9  A    between atoms: P_44  and  O_46 
ROOT
HETATM    1  C   UNK N   1      20.542  16.602   7.207  0.00  0.00     0.185 C 
HETATM    2  N   UNK N   1      21.279  15.415   6.801  0.00  0.00    -0.345 N 
HETATM    3  C   UNK N   1      21.065  14.157   7.277  0.00  0.00     0.246 C 
HETATM    4  O   UNK N   1      20.255  13.965   8.177  0.00  0.00    -0.271 OA
HETATM    5  C   UNK N   1      21.825  12.980   6.672  0.00  0.00     0.113 C 
HETATM    6  C   UNK N   1      23.332  13.293   6.687  0.00  0.00     0.041 C 
HETATM    7  C   UNK N   1      23.918  13.480   8.093  0.00  0.00     0.003 C 
HETATM    8  C   UNK N   1      23.144  12.726   9.175  0.00  0.00     0.000 C 
HETATM    9  C   UNK N   1      22.548  11.429   8.634  0.00  0.00     0.003 C 
HETATM   10  C   UNK N   1      21.593  11.667   7.450  0.00  0.00     0.041 C 
HETATM   11  N   UNK N   1      21.453  12.731   5.281  0.00  0.00    -0.343 N 
HETATM   12  C   UNK N   1      20.318  13.124   4.635  0.00  0.00     0.219 C 
HETATM   13  O   UNK N   1      19.409  13.682   5.226  0.00  0.00    -0.274 OA
HETATM   14  C   UNK N   1      20.174  12.871   3.159  0.00  0.00     0.116 C 
HETATM   15  C   UNK N   1      21.296  13.478   2.295  0.00  0.00     0.049 C 
HETATM   16  C   UNK N   1      22.140  14.546   2.928  0.00  0.00    -0.021 C 
HETATM   17  C   UNK N   1      23.309  14.250   3.503  0.00  0.00    -0.029 C 
HETATM   18  C   UNK N   1      24.159  15.225   4.272  0.00  0.00     0.033 C 
HETATM   19  C   UNK N   1      23.637  16.645   4.517  0.00  0.00     0.011 C 
HETATM   20  C   UNK N   1      22.122  16.802   4.645  0.00  0.00     0.128 C 
HETATM   21  N   UNK N   1      21.786  17.954   5.435  0.00  0.00    -0.359 N 
HETATM   22  C   UNK N   1      21.068  17.905   6.589  0.00  0.00     0.240 C 
HETATM   23  O   UNK N   1      20.801  18.959   7.144  0.00  0.00    -0.271 OA
HETATM   24  H   UNK N   1      21.990  15.530   6.129  0.00  0.00     0.163 HD
HETATM   25  H   UNK N   1      22.100  12.217   4.746  0.00  0.00     0.163 HD
HETATM   26  H   UNK N   1      22.096  18.835   5.121  0.00  0.00     0.162 HD
ENDROOT
BRANCH  15  27
HETATM   27  C   UNK N   1      22.081  12.460   1.539  0.00  0.00    -0.050 A 
HETATM   28  C   UNK N   1      22.767  12.808   0.365  0.00  0.00     0.008 A 
HETATM   29  C   UNK N   1      23.530  11.852  -0.305  0.00  0.00     0.008 A 
HETATM   30  C   UNK N   1      23.582  10.541   0.181  0.00  0.00    -0.047 A 
HETATM   31  C   UNK N   1      22.872  10.188   1.331  0.00  0.00     0.008 A 
HETATM   32  C   UNK N   1      22.122  11.146   2.009  0.00  0.00     0.008 A 
BRANCH  30  33
HETATM   33  C   UNK N   1      24.517   9.551  -0.403  0.00  0.00     0.163 C 
BRANCH  33  34
HETATM   34  P   UNK N   1      23.617   8.730  -1.812  0.00  0.00     0.240 P 
HETATM   35  O   UNK N   1      23.593   9.650  -3.061  0.00  0.00    -0.653 OA
BRANCH  34  36
HETATM   36  O   UNK N   1      24.394   7.284  -2.381  0.00  0.00    -0.329 OA
HETATM   37  H   UNK N   1      24.645   6.572  -2.990  0.00  0.00     0.220 HD
ENDBRANCH  34  36
BRANCH  34  38
HETATM   38  O   UNK N   1      21.954   8.332  -1.522  0.00  0.00    -0.329 OA
HETATM   39  H   UNK N   1      21.709   7.433  -1.254  0.00  0.00     0.220 HD
ENDBRANCH  34  38
ENDBRANCH  33  34
ENDBRANCH  30  33
ENDBRANCH  15  27
BRANCH  19  40
HETATM   40  C   UNK N   1      24.322  17.687   3.638  0.00  0.00     0.046 C 
BRANCH  40  41
HETATM   41  C   UNK N   1      25.809  17.758   3.824  0.00  0.00    -0.047 A 
HETATM   42  C   UNK N   1      26.635  16.749   3.311  0.00  0.00     0.008 A 
HETATM   43  C   UNK N   1      28.020  16.814   3.482  0.00  0.00     0.001 A 
HETATM   44  C   UNK N   1      28.593  17.885   4.172  0.00  0.00     0.012 A 
HETATM   45  C   UNK N   1      27.782  18.895   4.696  0.00  0.00    -0.025 A 
HETATM   46  C   UNK N   1      28.356  19.965   5.388  0.00  0.00     0.012 A 
HETATM   47  C   UNK N   1      26.380  18.836   4.525  0.00  0.00    -0.020 A 
HETATM   48  C   UNK N   1      27.545  20.976   5.913  0.00  0.00     0.001 A 
HETATM   49  C   UNK N   1      26.158  20.923   5.746  0.00  0.00     0.001 A 
HETATM   50  C   UNK N   1      25.577  19.858   5.056  0.00  0.00     0.013 A 
ENDBRANCH  40  41
ENDBRANCH  19  40
BRANCH   1  51
HETATM   51  C   UNK N   1      20.374  16.713   8.732  0.00  0.00     0.137 C 
BRANCH  51  52
HETATM   52  C   UNK N   1      18.992  17.103   9.151  0.00  0.00     0.217 C 
HETATM   53  N   UNK N   1      18.747  18.369   9.539  0.00  0.00    -0.370 N 
HETATM   54  H   UNK N   1      18.653  19.126   8.917  0.00  0.00     0.159 HD
HETATM   55  H   UNK N   1      18.656  18.548  10.504  0.00  0.00     0.159 HD
HETATM   56  O   UNK N   1      18.095  16.277   9.166  0.00  0.00    -0.274 OA
ENDBRANCH  51  52
ENDBRANCH   1  51
TORSDOF 9
ENDMDL
MODEL 3
REMARK VINA RESULT:      -8.9      3.868      5.132
REMARK  9 active torsions:
REMARK  status: ('A' for Active; 'I' for Inactive)
REMARK       I    between atoms: N_1  and  C_2 
REMARK    1  A    between atoms: C_2  and  C_4 
REMARK    2  A    between atoms: C_5  and  C_4 
REMARK    3  A    between atoms: C_19  and  C_39 
REMARK    4  A    between atoms: C_23  and  C_28 
REMARK    5  A    between atoms: C_28  and  C_29 
REMARK    6  A    between atoms: C_42  and  C_43 
REMARK    7  A    between atoms: C_43  and  P_44 
REMARK    8  A    between atoms: P_44  and  O_45 
REMARK    9  A    between atoms: P_44  and  O_46 
ROOT
HETATM    1  C   UNK N   1      22.262  18.828   3.186  0.00  0.00     0.185 C 
HETATM    2  N   UNK N   1      22.669  17.603   3.860  0.00  0.00    -0.345 N 
HETATM    3  C   UNK N   1      21.888  16.499   4.017  0.00  0.00     0.246 C 
HETATM    4  O   UNK N   1      20.717  16.510   3.654  0.00  0.00    -0.271 OA
HETATM    5  C   UNK N   1      22.482  15.235   4.634  0.00  0.00     0.113 C 
HETATM    6  C   UNK N   1      23.152  15.595   5.972  0.00  0.00     0.041 C 
HETATM    7  C   UNK N   1      22.184  16.149   7.027  0.00  0.00     0.003 C 
HETATM    8  C   UNK N   1      20.746  15.663   6.841  0.00  0.00     0.000 C 
HETATM    9  C   UNK N   1      20.705  14.252   6.262  0.00  0.00     0.003 C 
HETATM   10  C   UNK N   1      21.415  14.151   4.900  0.00  0.00     0.041 C 
HETATM   11  N   UNK N   1      23.511  14.632   3.789  0.00  0.00    -0.343 N 
HETATM   12  C   UNK N   1      23.705  14.810   2.450  0.00  0.00     0.219 C 
HETATM   13  O   UNK N   1      22.929  15.466   1.775  0.00  0.00    -0.274 OA
HETATM   14  C   UNK N   1      24.901  14.191   1.781  0.00  0.00     0.116 C 
HETATM   15  C   UNK N   1      26.257  14.601   2.388  0.00  0.00     0.049 C 
HETATM   16  C   UNK N   1      26.269  15.823   3.260  0.00  0.00    -0.021 C 
HETATM   17  C   UNK N   1      26.172  15.722   4.589  0.00  0.00    -0.029 C 
HETATM   18  C   UNK N   1      26.047  16.887   5.532  0.00  0.00     0.033 C 
HETATM   19  C   UNK N   1      25.922  18.304   4.961  0.00  0.00     0.011 C 
HETATM   20  C   UNK N   1      25.223  18.435   3.607  0.00  0.00     0.128 C 
HETATM   21  N   UNK N   1      24.633  19.736   3.453  0.00  0.00    -0.359 N 
HETATM   22  C   UNK N   1      23.305  19.952   3.252  0.00  0.00     0.240 C 
HETATM   23  O   UNK N   1      22.930  21.101   3.083  0.00  0.00    -0.271 OA
HETATM   24  H   UNK N   1      23.580  17.572   4.233  0.00  0.00     0.163 HD
HETATM   25  H   UNK N   1      24.140  14.024   4.240  0.00  0.00     0.163 HD
HETATM   26  H   UNK N   1      25.227  20.520   3.496  0.00  0.00     0.162 HD
ENDROOT
BRANCH  15  27
HETATM   27  C   UNK N   1      27.029  13.455   2.947  0.00  0.00    -0.050 A 
HETATM   28  C   UNK N   1      28.418  13.542   3.123  0.00  0.00     0.008 A 
HETATM   29  C   UNK N   1      29.118  12.474   3.686  0.00  0.00     0.008 A 
HETATM   30  C   UNK N   1      28.432  11.308   4.045  0.00  0.00    -0.047 A 
HETATM   31  C   UNK N   1      27.054  11.211   3.839  0.00  0.00     0.008 A 
HETATM   32  C   UNK N   1      26.353  12.282   3.291  0.00  0.00     0.008 A 
BRANCH  30  33
HETATM   33  C   UNK N   1      29.111  10.231   4.803  0.00  0.00     0.163 C 
BRANCH  33  34
HETATM   34  P   UNK N   1      30.183   9.314   3.586  0.00  0.00     0.240 P 
HETATM   35  O   UNK N   1      31.620   9.899   3.568  0.00  0.00    -0.653 OA
BRANCH  34  36
HETATM   36  O   UNK N   1      30.423   7.643   3.997  0.00  0.00    -0.329 OA
HETATM   37  H   UNK N   1      30.246   6.691   4.053  0.00  0.00     0.220 HD
ENDBRANCH  34  36
BRANCH  34  38
HETATM   38  O   UNK N   1      29.665   9.361   1.932  0.00  0.00    -0.329 OA
HETATM   39  H   UNK N   1      29.292   8.568   1.517  0.00  0.00     0.220 HD
ENDBRANCH  34  38
ENDBRANCH  33  34
ENDBRANCH  30  33
ENDBRANCH  15  27
BRANCH  19  40
HETATM   40  C   UNK N   1      27.205  19.117   5.106  0.00  0.00     0.046 C 
BRANCH  40  41
HETATM   41  C   UNK N   1      28.125  18.618   6.180  0.00  0.00    -0.047 A 
HETATM   42  C   UNK N   1      27.925  18.996   7.514  0.00  0.00     0.008 A 
HETATM   43  C   UNK N   1      28.780  18.531   8.517  0.00  0.00     0.001 A 
HETATM   44  C   UNK N   1      29.846  17.688   8.196  0.00  0.00     0.012 A 
HETATM   45  C   UNK N   1      30.063  17.307   6.868  0.00  0.00    -0.025 A 
HETATM   46  C   UNK N   1      31.132  16.466   6.547  0.00  0.00     0.012 A 
HETATM   47  C   UNK N   1      29.201  17.774   5.850  0.00  0.00    -0.020 A 
HETATM   48  C   UNK N   1      31.349  16.086   5.219  0.00  0.00     0.001 A 
HETATM   49  C   UNK N   1      30.500  16.543   4.208  0.00  0.00     0.001 A 
HETATM   50  C   UNK N   1      29.430  17.384   4.521  0.00  0.00     0.013 A 
ENDBRANCH  40  41
ENDBRANCH  19  40
BRANCH   1  51
HETATM   51  C   UNK N   1      20.865  19.312   3.609  0.00  0.00     0.137 C 
BRANCH  51  52
HETATM   52  C   UNK N   1      19.922  19.483   2.461  0.00  0.00     0.217 C 
HETATM   53  N   UNK N   1      18.822  18.710   2.382  0.00  0.00    -0.370 N 
HETATM   54  H   UNK N   1      18.013  18.850   2.924  0.00  0.00     0.159 HD
HETATM   55  H   UNK N   1      18.829  17.961   1.742  0.00  0.00     0.159 HD
HETATM   56  O   UNK N   1      20.155  20.301   1.586  0.00  0.00    -0.274 OA
ENDBRANCH  51  52
ENDBRANCH   1  51
TORSDOF 9
ENDMDL
MODEL 4
REMARK VINA RESULT:      -8.9      3.606      4.422
REMARK  9 active torsions:
REMARK  status: ('A' for Active; 'I' for Inactive)
REMARK       I    between atoms: N_1  and  C_2 
REMARK    1  A    between atoms: C_2  and  C_4 
REMARK    2  A    between atoms: C_5  and  C_4 
REMARK    3  A    between atoms: C_19  and  C_39 
REMARK    4  A    between atoms: C_23  and  C_28 
REMARK    5  A    between atoms: C_28  and  C_29 
REMARK    6  A    between atoms: C_42  and  C_43 
REMARK    7  A    between atoms: C_43  and  P_44 
REMARK    8  A    between atoms: P_44  and  O_45 
REMARK    9  A    between atoms: P_44  and  O_46 
ROOT
HETATM    1  C   UNK N   1      22.113  16.143   5.729  0.00  0.00     0.185 C 
HETATM    2  N   UNK N   1      23.072  15.048   5.716  0.00  0.00    -0.345 N 
HETATM    3  C   UNK N   1      22.750  13.725   5.692  0.00  0.00     0.246 C 
HETATM    4  O   UNK N   1      21.579  13.370   5.767  0.00  0.00    -0.271 OA
HETATM    5  C   UNK N   1      23.855  12.680   5.553  0.00  0.00     0.113 C 
HETATM    6  C   UNK N   1      24.928  12.937   6.627  0.00  0.00     0.041 C 
HETATM    7  C   UNK N   1      24.416  12.803   8.067  0.00  0.00     0.003 C 
HETATM    8  C   UNK N   1      23.219  11.859   8.197  0.00  0.00     0.000 C 
HETATM    9  C   UNK N   1      23.288  10.726   7.177  0.00  0.00     0.003 C 
HETATM   10  C   UNK N   1      23.328  11.239   5.726  0.00  0.00     0.041 C 
HETATM   11  N   UNK N   1      24.523  12.745   4.255  0.00  0.00    -0.343 N 
HETATM   12  C   UNK N   1      24.057  13.302   3.100  0.00  0.00     0.219 C 
HETATM   13  O   UNK N   1      22.925  13.748   3.019  0.00  0.00    -0.274 OA
HETATM   14  C   UNK N   1      24.951  13.373   1.894  0.00  0.00     0.116 C 
HETATM   15  C   UNK N   1      26.282  14.116   2.127  0.00  0.00     0.049 C 
HETATM   16  C   UNK N   1      26.364  14.998   3.338  0.00  0.00    -0.021 C 
HETATM   17  C   UNK N   1      26.890  14.550   4.482  0.00  0.00    -0.029 C 
HETATM   18  C   UNK N   1      26.899  15.313   5.779  0.00  0.00     0.033 C 
HETATM   19  C   UNK N   1      26.179  16.663   5.861  0.00  0.00     0.011 C 
HETATM   20  C   UNK N   1      24.949  16.836   4.970  0.00  0.00     0.128 C 
HETATM   21  N   UNK N   1      24.042  17.803   5.521  0.00  0.00    -0.359 N 
HETATM   22  C   UNK N   1      22.754  17.531   5.866  0.00  0.00     0.240 C 
HETATM   23  O   UNK N   1      22.064  18.451   6.277  0.00  0.00    -0.271 OA
HETATM   24  H   UNK N   1      24.028  15.282   5.726  0.00  0.00     0.163 HD
HETATM   25  H   UNK N   1      25.418  12.338   4.209  0.00  0.00     0.163 HD
HETATM   26  H   UNK N   1      24.372  18.721   5.658  0.00  0.00     0.162 HD
ENDROOT
BRANCH  15  27
HETATM   27  C   UNK N   1      27.485  13.259   1.924  0.00  0.00    -0.050 A 
HETATM   28  C   UNK N   1      27.357  11.873   1.741  0.00  0.00     0.008 A 
HETATM   29  C   UNK N   1      28.490  11.093   1.511  0.00  0.00     0.008 A 
HETATM   30  C   UNK N   1      29.754  11.695   1.493  0.00  0.00    -0.047 A 
HETATM   31  C   UNK N   1      29.882  13.069   1.708  0.00  0.00     0.008 A 
HETATM   32  C   UNK N   1      28.749  13.850   1.923  0.00  0.00     0.008 A 
BRANCH  30  33
HETATM   33  C   UNK N   1      30.953  10.929   1.079  0.00  0.00     0.163 C 
BRANCH  33  34
HETATM   34  P   UNK N   1      31.216  11.284  -0.731  0.00  0.00     0.240 P 
HETATM   35  O   UNK N   1      32.472  12.171  -0.941  0.00  0.00    -0.653 OA
BRANCH  34  36
HETATM   36  O   UNK N   1      31.553   9.863  -1.673  0.00  0.00    -0.329 OA
HETATM   37  H   UNK N   1      31.840   8.959  -1.875  0.00  0.00     0.220 HD
ENDBRANCH  34  36
BRANCH  34  38
HETATM   38  O   UNK N   1      29.935  12.133  -1.532  0.00  0.00    -0.329 OA
HETATM   39  H   UNK N   1      29.097  12.297  -1.071  0.00  0.00     0.220 HD
ENDBRANCH  34  38
ENDBRANCH  33  34
ENDBRANCH  30  33
ENDBRANCH  15  27
BRANCH  19  40
HETATM   40  C   UNK N   1      27.142  17.848   5.870  0.00  0.00     0.046 C 
BRANCH  40  41
HETATM   41  C   UNK N   1      28.320  17.668   6.780  0.00  0.00    -0.047 A 
HETATM   42  C   UNK N   1      28.151  17.695   8.171  0.00  0.00     0.008 A 
HETATM   43  C   UNK N   1      29.247  17.527   9.020  0.00  0.00     0.001 A 
HETATM   44  C   UNK N   1      30.525  17.336   8.489  0.00  0.00     0.012 A 
HETATM   45  C   UNK N   1      30.711  17.315   7.104  0.00  0.00    -0.025 A 
HETATM   46  C   UNK N   1      31.990  17.127   6.572  0.00  0.00     0.012 A 
HETATM   47  C   UNK N   1      29.605  17.483   6.239  0.00  0.00    -0.020 A 
HETATM   48  C   UNK N   1      32.177  17.106   5.186  0.00  0.00     0.001 A 
HETATM   49  C   UNK N   1      31.087  17.271   4.327  0.00  0.00     0.001 A 
HETATM   50  C   UNK N   1      29.807  17.459   4.850  0.00  0.00     0.013 A 
ENDBRANCH  40  41
ENDBRANCH  19  40
BRANCH   1  51
HETATM   51  C   UNK N   1      20.972  15.932   6.738  0.00  0.00     0.137 C 
BRANCH  51  52
HETATM   52  C   UNK N   1      19.618  15.895   6.105  0.00  0.00     0.217 C 
HETATM   53  N   UNK N   1      19.509  15.696   4.778  0.00  0.00    -0.370 N 
HETATM   54  H   UNK N   1      19.615  14.818   4.343  0.00  0.00     0.159 HD
HETATM   55  H   UNK N   1      19.311  16.474   4.208  0.00  0.00     0.159 HD
HETATM   56  O   UNK N   1      18.615  16.067   6.778  0.00  0.00    -0.274 OA
ENDBRANCH  51  52
ENDBRANCH   1  51
TORSDOF 9
ENDMDL
MODEL 5
REMARK VINA RESULT:      -8.9      3.835      5.239
REMARK  9 active torsions:
REMARK  status: ('A' for Active; 'I' for Inactive)
REMARK       I    between atoms: N_1  and  C_2 
REMARK    1  A    between atoms: C_2  and  C_4 
REMARK    2  A    between atoms: C_5  and  C_4 
REMARK    3  A    between atoms: C_19  and  C_39 
REMARK    4  A    between atoms: C_23  and  C_28 
REMARK    5  A    between atoms: C_28  and  C_29 
REMARK    6  A    between atoms: C_42  and  C_43 
REMARK    7  A    between atoms: C_43  and  P_44 
REMARK    8  A    between atoms: P_44  and  O_45 
REMARK    9  A    between atoms: P_44  and  O_46 
ROOT
HETATM    1  C   UNK N   1      22.214  18.776   3.211  0.00  0.00     0.185 C 
HETATM    2  N   UNK N   1      22.592  17.570   3.932  0.00  0.00    -0.345 N 
HETATM    3  C   UNK N   1      21.795  16.480   4.109  0.00  0.00     0.246 C 
HETATM    4  O   UNK N   1      20.631  16.493   3.722  0.00  0.00    -0.271 OA
HETATM    5  C   UNK N   1      22.360  15.230   4.779  0.00  0.00     0.113 C 
HETATM    6  C   UNK N   1      23.008  15.626   6.118  0.00  0.00     0.041 C 
HETATM    7  C   UNK N   1      22.027  16.226   7.134  0.00  0.00     0.003 C 
HETATM    8  C   UNK N   1      20.587  15.752   6.935  0.00  0.00     0.000 C 
HETATM    9  C   UNK N   1      20.539  14.323   6.402  0.00  0.00     0.003 C 
HETATM   10  C   UNK N   1      21.274  14.169   5.058  0.00  0.00     0.041 C 
HETATM   11  N   UNK N   1      23.397  14.588   3.974  0.00  0.00    -0.343 N 
HETATM   12  C   UNK N   1      23.620  14.720   2.635  0.00  0.00     0.219 C 
HETATM   13  O   UNK N   1      22.866  15.362   1.924  0.00  0.00    -0.274 OA
HETATM   14  C   UNK N   1      24.821  14.064   2.011  0.00  0.00     0.116 C 
HETATM   15  C   UNK N   1      26.170  14.478   2.631  0.00  0.00     0.049 C 
HETATM   16  C   UNK N   1      26.181  15.727   3.463  0.00  0.00    -0.021 C 
HETATM   17  C   UNK N   1      26.056  15.671   4.792  0.00  0.00    -0.029 C 
HETATM   18  C   UNK N   1      25.928  16.868   5.693  0.00  0.00     0.033 C 
HETATM   19  C   UNK N   1      25.832  18.267   5.074  0.00  0.00     0.011 C 
HETATM   20  C   UNK N   1      25.161  18.362   3.704  0.00  0.00     0.128 C 
HETATM   21  N   UNK N   1      24.591  19.664   3.495  0.00  0.00    -0.359 N 
HETATM   22  C   UNK N   1      23.269  19.889   3.261  0.00  0.00     0.240 C 
HETATM   23  O   UNK N   1      22.913  21.037   3.047  0.00  0.00    -0.271 OA
HETATM   24  H   UNK N   1      23.495  17.540   4.324  0.00  0.00     0.163 HD
HETATM   25  H   UNK N   1      24.010  13.987   4.458  0.00  0.00     0.163 HD
HETATM   26  H   UNK N   1      25.194  20.442   3.525  0.00  0.00     0.162 HD
ENDROOT
BRANCH  15  27
HETATM   27  C   UNK N   1      26.916  13.341   3.242  0.00  0.00    -0.050 A 
HETATM   28  C   UNK N   1      26.239  12.201   3.700  0.00  0.00     0.008 A 
HETATM   29  C   UNK N   1      26.958  11.130   4.232  0.00  0.00     0.008 A 
HETATM   30  C   UNK N   1      28.351  11.212   4.332  0.00  0.00    -0.047 A 
HETATM   31  C   UNK N   1      29.021  12.362   3.906  0.00  0.00     0.008 A 
HETATM   32  C   UNK N   1      28.304  13.425   3.362  0.00  0.00     0.008 A 
BRANCH  30  33
HETATM   33  C   UNK N   1      29.155  10.031   4.725  0.00  0.00     0.163 C 
BRANCH  33  34
HETATM   34  P   UNK N   1      29.955   9.386   3.171  0.00  0.00     0.240 P 
HETATM   35  O   UNK N   1      30.210   7.859   3.276  0.00  0.00    -0.653 OA
BRANCH  34  36
HETATM   36  O   UNK N   1      28.952   9.540   1.761  0.00  0.00    -0.329 OA
HETATM   37  H   UNK N   1      28.175   9.761   1.223  0.00  0.00     0.220 HD
ENDBRANCH  34  36
BRANCH  34  38
HETATM   38  O   UNK N   1      31.499  10.067   2.773  0.00  0.00    -0.329 OA
HETATM   39  H   UNK N   1      31.573  10.719   2.058  0.00  0.00     0.220 HD
ENDBRANCH  34  38
ENDBRANCH  33  34
ENDBRANCH  30  33
ENDBRANCH  15  27
BRANCH  19  40
HETATM   40  C   UNK N   1      27.122  19.069   5.219  0.00  0.00     0.046 C 
BRANCH  40  41
HETATM   41  C   UNK N   1      28.341  18.225   5.445  0.00  0.00    -0.047 A 
HETATM   42  C   UNK N   1      28.981  17.603   4.365  0.00  0.00     0.008 A 
HETATM   43  C   UNK N   1      30.118  16.818   4.573  0.00  0.00     0.001 A 
HETATM   44  C   UNK N   1      30.623  16.641   5.864  0.00  0.00     0.012 A 
HETATM   45  C   UNK N   1      29.991  17.249   6.952  0.00  0.00    -0.025 A 
HETATM   46  C   UNK N   1      30.495  17.070   8.243  0.00  0.00     0.012 A 
HETATM   47  C   UNK N   1      28.842  18.046   6.747  0.00  0.00    -0.020 A 
HETATM   48  C   UNK N   1      29.863  17.678   9.333  0.00  0.00     0.001 A 
HETATM   49  C   UNK N   1      28.727  18.468   9.136  0.00  0.00     0.001 A 
HETATM   50  C   UNK N   1      28.217  18.651   7.850  0.00  0.00     0.013 A 
ENDBRANCH  40  41
ENDBRANCH  19  40
BRANCH   1  51
HETATM   51  C   UNK N   1      20.815  19.291   3.590  0.00  0.00     0.137 C 
BRANCH  51  52
HETATM   52  C   UNK N   1      19.901  19.446   2.417  0.00  0.00     0.217 C 
HETATM   53  N   UNK N   1      18.814  18.658   2.311  0.00  0.00    -0.370 N 
HETATM   54  H   UNK N   1      17.989  18.788   2.832  0.00  0.00     0.159 HD
HETATM   55  H   UNK N   1      18.847  17.907   1.675  0.00  0.00     0.159 HD
HETATM   56  O   UNK N   1      20.146  20.264   1.545  0.00  0.00    -0.274 OA
ENDBRANCH  51  52
ENDBRANCH   1  51
TORSDOF 9
ENDMDL
MODEL 6
REMARK VINA RESULT:      -8.7      9.501     12.423
REMARK  9 active torsions:
REMARK  status: ('A' for Active; 'I' for Inactive)
REMARK       I    between atoms: N_1  and  C_2 
REMARK    1  A    between atoms: C_2  and  C_4 
REMARK    2  A    between atoms: C_5  and  C_4 
REMARK    3  A    between atoms: C_19  and  C_39 
REMARK    4  A    between atoms: C_23  and  C_28 
REMARK    5  A    between atoms: C_28  and  C_29 
REMARK    6  A    between atoms: C_42  and  C_43 
REMARK    7  A    between atoms: C_43  and  P_44 
REMARK    8  A    between atoms: P_44  and  O_45 
REMARK    9  A    between atoms: P_44  and  O_46 
ROOT
HETATM    1  C   UNK N   1      35.635  14.069  10.717  0.00  0.00     0.185 C 
HETATM    2  N   UNK N   1      35.961  13.662   9.358  0.00  0.00    -0.345 N 
HETATM    3  C   UNK N   1      36.631  12.526   9.018  0.00  0.00     0.246 C 
HETATM    4  O   UNK N   1      37.088  11.793   9.888  0.00  0.00    -0.271 OA
HETATM    5  C   UNK N   1      36.796  12.157   7.546  0.00  0.00     0.113 C 
HETATM    6  C   UNK N   1      37.390  13.359   6.790  0.00  0.00     0.041 C 
HETATM    7  C   UNK N   1      38.790  13.769   7.269  0.00  0.00     0.003 C 
HETATM    8  C   UNK N   1      39.578  12.614   7.888  0.00  0.00     0.000 C 
HETATM    9  C   UNK N   1      39.227  11.283   7.230  0.00  0.00     0.003 C 
HETATM   10  C   UNK N   1      37.730  10.944   7.345  0.00  0.00     0.041 C 
HETATM   11  N   UNK N   1      35.523  11.835   6.906  0.00  0.00    -0.343 N 
HETATM   12  C   UNK N   1      34.356  11.460   7.504  0.00  0.00     0.219 C 
HETATM   13  O   UNK N   1      34.291  11.260   8.706  0.00  0.00    -0.274 OA
HETATM   14  C   UNK N   1      33.114  11.287   6.674  0.00  0.00     0.116 C 
HETATM   15  C   UNK N   1      32.707  12.535   5.866  0.00  0.00     0.049 C 
HETATM   16  C   UNK N   1      33.312  13.843   6.284  0.00  0.00    -0.021 C 
HETATM   17  C   UNK N   1      34.406  14.319   5.683  0.00  0.00    -0.029 C 
HETATM   18  C   UNK N   1      35.156  15.550   6.115  0.00  0.00     0.033 C 
HETATM   19  C   UNK N   1      34.722  16.285   7.389  0.00  0.00     0.011 C 
HETATM   20  C   UNK N   1      34.110  15.427   8.497  0.00  0.00     0.128 C 
HETATM   21  N   UNK N   1      34.298  16.034   9.785  0.00  0.00    -0.359 N 
HETATM   22  C   UNK N   1      34.971  15.449  10.813  0.00  0.00     0.240 C 
HETATM   23  O   UNK N   1      35.018  16.043  11.878  0.00  0.00    -0.271 OA
HETATM   24  H   UNK N   1      35.675  14.256   8.626  0.00  0.00     0.163 HD
HETATM   25  H   UNK N   1      35.505  11.896   5.923  0.00  0.00     0.163 HD
HETATM   26  H   UNK N   1      33.917  16.929   9.933  0.00  0.00     0.162 HD
ENDROOT
BRANCH  15  27
HETATM   27  C   UNK N   1      32.709  12.315   4.391  0.00  0.00    -0.050 A 
HETATM   28  C   UNK N   1      33.524  11.329   3.813  0.00  0.00     0.008 A 
HETATM   29  C   UNK N   1      33.482  11.110   2.436  0.00  0.00     0.008 A 
HETATM   30  C   UNK N   1      32.647  11.896   1.634  0.00  0.00    -0.047 A 
HETATM   31  C   UNK N   1      31.861  12.898   2.207  0.00  0.00     0.008 A 
HETATM   32  C   UNK N   1      31.892  13.108   3.584  0.00  0.00     0.008 A 
BRANCH  30  33
HETATM   33  C   UNK N   1      32.448  11.574   0.202  0.00  0.00     0.163 C 
BRANCH  33  34
HETATM   34  P   UNK N   1      33.871  12.341  -0.723  0.00  0.00     0.240 P 
HETATM   35  O   UNK N   1      33.370  13.074  -1.995  0.00  0.00    -0.653 OA
BRANCH  34  36
HETATM   36  O   UNK N   1      34.689  13.585   0.173  0.00  0.00    -0.329 OA
HETATM   37  H   UNK N   1      34.812  14.405   0.676  0.00  0.00     0.220 HD
ENDBRANCH  34  36
BRANCH  34  38
HETATM   38  O   UNK N   1      35.087  11.244  -1.293  0.00  0.00    -0.329 OA
HETATM   39  H   UNK N   1      35.939  11.181  -0.834  0.00  0.00     0.220 HD
ENDBRANCH  34  38
ENDBRANCH  33  34
ENDBRANCH  30  33
ENDBRANCH  15  27
BRANCH  19  40
HETATM   40  C   UNK N   1      33.983  17.588   7.098  0.00  0.00     0.046 C 
BRANCH  40  41
HETATM   41  C   UNK N   1      32.513  17.414   6.856  0.00  0.00    -0.047 A 
HETATM   42  C   UNK N   1      31.612  17.437   7.928  0.00  0.00     0.008 A 
HETATM   43  C   UNK N   1      30.242  17.277   7.704  0.00  0.00     0.001 A 
HETATM   44  C   UNK N   1      29.760  17.084   6.408  0.00  0.00     0.012 A 
HETATM   45  C   UNK N   1      30.647  17.050   5.328  0.00  0.00    -0.025 A 
HETATM   46  C   UNK N   1      30.165  16.855   4.031  0.00  0.00     0.012 A 
HETATM   47  C   UNK N   1      32.034  17.214   5.548  0.00  0.00    -0.020 A 
HETATM   48  C   UNK N   1      31.053  16.821   2.951  0.00  0.00     0.001 A 
HETATM   49  C   UNK N   1      32.425  16.983   3.162  0.00  0.00     0.001 A 
HETATM   50  C   UNK N   1      32.914  17.178   4.455  0.00  0.00     0.013 A 
ENDBRANCH  40  41
ENDBRANCH  19  40
BRANCH   1  51
HETATM   51  C   UNK N   1      36.821  13.930  11.687  0.00  0.00     0.137 C 
BRANCH  51  52
HETATM   52  C   UNK N   1      36.407  13.627  13.092  0.00  0.00     0.217 C 
HETATM   53  N   UNK N   1      36.740  14.477  14.081  0.00  0.00    -0.370 N 
HETATM   54  H   UNK N   1      36.281  15.332  14.248  0.00  0.00     0.159 HD
HETATM   55  H   UNK N   1      37.486  14.228  14.674  0.00  0.00     0.159 HD
HETATM   56  O   UNK N   1      35.793  12.605  13.348  0.00  0.00    -0.274 OA
ENDBRANCH  51  52
ENDBRANCH   1  51
TORSDOF 9
ENDMDL
MODEL 7
REMARK VINA RESULT:      -8.5      4.207      7.408
REMARK  9 active torsions:
REMARK  status: ('A' for Active; 'I' for Inactive)
REMARK       I    between atoms: N_1  and  C_2 
REMARK    1  A    between atoms: C_2  and  C_4 
REMARK    2  A    between atoms: C_5  and  C_4 
REMARK    3  A    between atoms: C_19  and  C_39 
REMARK    4  A    between atoms: C_23  and  C_28 
REMARK    5  A    between atoms: C_28  and  C_29 
REMARK    6  A    between atoms: C_42  and  C_43 
REMARK    7  A    between atoms: C_43  and  P_44 
REMARK    8  A    between atoms: P_44  and  O_45 
REMARK    9  A    between atoms: P_44  and  O_46 
ROOT
HETATM    1  C   UNK N   1      21.848  15.927   2.790  0.00  0.00     0.185 C 
HETATM    2  N   UNK N   1      22.738  14.782   2.669  0.00  0.00    -0.345 N 
HETATM    3  C   UNK N   1      22.977  14.093   1.518  0.00  0.00     0.246 C 
HETATM    4  O   UNK N   1      22.360  14.364   0.494  0.00  0.00    -0.271 OA
HETATM    5  C   UNK N   1      24.031  12.989   1.503  0.00  0.00     0.113 C 
HETATM    6  C   UNK N   1      23.746  12.005   2.651  0.00  0.00     0.041 C 
HETATM    7  C   UNK N   1      22.396  11.283   2.535  0.00  0.00     0.003 C 
HETATM    8  C   UNK N   1      21.903  11.154   1.092  0.00  0.00     0.000 C 
HETATM    9  C   UNK N   1      23.067  11.010   0.116  0.00  0.00     0.003 C 
HETATM   10  C   UNK N   1      24.040  12.201   0.176  0.00  0.00     0.041 C 
HETATM   11  N   UNK N   1      25.383  13.506   1.708  0.00  0.00    -0.343 N 
HETATM   12  C   UNK N   1      25.829  14.782   1.523  0.00  0.00     0.219 C 
HETATM   13  O   UNK N   1      25.109  15.647   1.051  0.00  0.00    -0.274 OA
HETATM   14  C   UNK N   1      27.237  15.143   1.906  0.00  0.00     0.116 C 
HETATM   15  C   UNK N   1      27.590  14.861   3.380  0.00  0.00     0.049 C 
HETATM   16  C   UNK N   1      26.444  14.657   4.327  0.00  0.00    -0.021 C 
HETATM   17  C   UNK N   1      26.007  13.431   4.626  0.00  0.00    -0.029 C 
HETATM   18  C   UNK N   1      24.791  13.132   5.459  0.00  0.00     0.033 C 
HETATM   19  C   UNK N   1      23.905  14.288   5.937  0.00  0.00     0.011 C 
HETATM   20  C   UNK N   1      23.831  15.513   5.025  0.00  0.00     0.128 C 
HETATM   21  N   UNK N   1      22.598  16.225   5.212  0.00  0.00    -0.359 N 
HETATM   22  C   UNK N   1      21.684  16.440   4.227  0.00  0.00     0.240 C 
HETATM   23  O   UNK N   1      20.697  17.105   4.497  0.00  0.00    -0.271 OA
HETATM   24  H   UNK N   1      23.204  14.481   3.483  0.00  0.00     0.163 HD
HETATM   25  H   UNK N   1      26.052  12.855   2.019  0.00  0.00     0.163 HD
HETATM   26  H   UNK N   1      22.402  16.579   6.110  0.00  0.00     0.162 HD
ENDROOT
BRANCH  15  27
HETATM   27  C   UNK N   1      28.693  13.871   3.548  0.00  0.00    -0.050 A 
HETATM   28  C   UNK N   1      29.607  13.987   4.606  0.00  0.00     0.008 A 
HETATM   29  C   UNK N   1      30.607  13.028   4.771  0.00  0.00     0.008 A 
HETATM   30  C   UNK N   1      30.710  11.970   3.860  0.00  0.00    -0.047 A 
HETATM   31  C   UNK N   1      29.819  11.875   2.789  0.00  0.00     0.008 A 
HETATM   32  C   UNK N   1      28.812  12.824   2.633  0.00  0.00     0.008 A 
BRANCH  30  33
HETATM   33  C   UNK N   1      31.643  10.846   4.106  0.00  0.00     0.163 C 
BRANCH  33  34
HETATM   34  P   UNK N   1      30.732   9.617   5.170  0.00  0.00     0.240 P 
HETATM   35  O   UNK N   1      29.259  10.056   5.379  0.00  0.00    -0.653 OA
BRANCH  34  36
HETATM   36  O   UNK N   1      30.595   8.043   4.447  0.00  0.00    -0.329 OA
HETATM   37  H   UNK N   1      30.824   7.127   4.224  0.00  0.00     0.220 HD
ENDBRANCH  34  36
BRANCH  34  38
HETATM   38  O   UNK N   1      31.358   9.388   6.771  0.00  0.00    -0.329 OA
HETATM   39  H   UNK N   1      30.924   9.811   7.528  0.00  0.00     0.220 HD
ENDBRANCH  34  38
ENDBRANCH  33  34
ENDBRANCH  30  33
ENDBRANCH  15  27
BRANCH  19  40
HETATM   40  C   UNK N   1      24.085  14.598   7.420  0.00  0.00     0.046 C 
BRANCH  40  41
HETATM   41  C   UNK N   1      22.923  14.186   8.274  0.00  0.00    -0.047 A 
HETATM   42  C   UNK N   1      21.626  14.612   7.957  0.00  0.00     0.008 A 
HETATM   43  C   UNK N   1      20.542  14.228   8.750  0.00  0.00     0.001 A 
HETATM   44  C   UNK N   1      20.743  13.420   9.872  0.00  0.00     0.012 A 
HETATM   45  C   UNK N   1      22.031  12.994  10.205  0.00  0.00    -0.025 A 
HETATM   46  C   UNK N   1      22.233  12.188  11.329  0.00  0.00     0.012 A 
HETATM   47  C   UNK N   1      23.132  13.377   9.406  0.00  0.00    -0.020 A 
HETATM   48  C   UNK N   1      23.522  11.761  11.663  0.00  0.00     0.001 A 
HETATM   49  C   UNK N   1      24.614  12.136  10.876  0.00  0.00     0.001 A 
HETATM   50  C   UNK N   1      24.421  12.941   9.752  0.00  0.00     0.013 A 
ENDBRANCH  40  41
ENDBRANCH  19  40
BRANCH   1  51
HETATM   51  C   UNK N   1      20.492  15.711   2.097  0.00  0.00     0.137 C 
BRANCH  51  52
HETATM   52  C   UNK N   1      20.064  16.869   1.253  0.00  0.00     0.217 C 
HETATM   53  N   UNK N   1      19.354  17.870   1.807  0.00  0.00    -0.370 N 
HETATM   54  H   UNK N   1      19.745  18.571   2.377  0.00  0.00     0.159 HD
HETATM   55  H   UNK N   1      18.385  17.902   1.632  0.00  0.00     0.159 HD
HETATM   56  O   UNK N   1      20.334  16.901   0.064  0.00  0.00    -0.274 OA
ENDBRANCH  51  52
ENDBRANCH   1  51
TORSDOF 9
ENDMDL
MODEL 8
REMARK VINA RESULT:      -8.5      4.302      5.138
REMARK  9 active torsions:
REMARK  status: ('A' for Active; 'I' for Inactive)
REMARK       I    between atoms: N_1  and  C_2 
REMARK    1  A    between atoms: C_2  and  C_4 
REMARK    2  A    between atoms: C_5  and  C_4 
REMARK    3  A    between atoms: C_19  and  C_39 
REMARK    4  A    between atoms: C_23  and  C_28 
REMARK    5  A    between atoms: C_28  and  C_29 
REMARK    6  A    between atoms: C_42  and  C_43 
REMARK    7  A    between atoms: C_43  and  P_44 
REMARK    8  A    between atoms: P_44  and  O_45 
REMARK    9  A    between atoms: P_44  and  O_46 
ROOT
HETATM    1  C   UNK N   1      22.326  15.996   5.544  0.00  0.00     0.185 C 
HETATM    2  N   UNK N   1      23.301  14.922   5.669  0.00  0.00    -0.345 N 
HETATM    3  C   UNK N   1      23.004  13.594   5.712  0.00  0.00     0.246 C 
HETATM    4  O   UNK N   1      21.836  13.220   5.731  0.00  0.00    -0.271 OA
HETATM    5  C   UNK N   1      24.133  12.566   5.718  0.00  0.00     0.113 C 
HETATM    6  C   UNK N   1      25.124  12.915   6.843  0.00  0.00     0.041 C 
HETATM    7  C   UNK N   1      24.516  12.864   8.251  0.00  0.00     0.003 C 
HETATM    8  C   UNK N   1      23.329  11.906   8.361  0.00  0.00     0.000 C 
HETATM    9  C   UNK N   1      23.488  10.711   7.426  0.00  0.00     0.003 C 
HETATM   10  C   UNK N   1      23.619  11.129   5.950  0.00  0.00     0.041 C 
HETATM   11  N   UNK N   1      24.888  12.560   4.467  0.00  0.00    -0.343 N 
HETATM   12  C   UNK N   1      24.494  13.030   3.249  0.00  0.00     0.219 C 
HETATM   13  O   UNK N   1      23.364  13.446   3.061  0.00  0.00    -0.274 OA
HETATM   14  C   UNK N   1      25.469  13.041   2.104  0.00  0.00     0.116 C 
HETATM   15  C   UNK N   1      26.767  13.826   2.377  0.00  0.00     0.049 C 
HETATM   16  C   UNK N   1      26.751  14.786   3.530  0.00  0.00    -0.021 C 
HETATM   17  C   UNK N   1      27.203  14.425   4.734  0.00  0.00    -0.029 C 
HETATM   18  C   UNK N   1      27.110  15.271   5.975  0.00  0.00     0.033 C 
HETATM   19  C   UNK N   1      26.364  16.609   5.917  0.00  0.00     0.011 C 
HETATM   20  C   UNK N   1      25.196  16.697   4.935  0.00  0.00     0.128 C 
HETATM   21  N   UNK N   1      24.237  17.679   5.357  0.00  0.00    -0.359 N 
HETATM   22  C   UNK N   1      22.933  17.403   5.632  0.00  0.00     0.240 C 
HETATM   23  O   UNK N   1      22.201  18.332   5.932  0.00  0.00    -0.271 OA
HETATM   24  H   UNK N   1      24.251  15.177   5.729  0.00  0.00     0.163 HD
HETATM   25  H   UNK N   1      25.791  12.170   4.510  0.00  0.00     0.163 HD
HETATM   26  H   UNK N   1      24.542  18.610   5.456  0.00  0.00     0.162 HD
ENDROOT
BRANCH  15  27
HETATM   27  C   UNK N   1      27.995  12.982   2.314  0.00  0.00    -0.050 A 
HETATM   28  C   UNK N   1      29.232  13.541   1.958  0.00  0.00     0.008 A 
HETATM   29  C   UNK N   1      30.378  12.745   1.944  0.00  0.00     0.008 A 
HETATM   30  C   UNK N   1      30.281  11.384   2.257  0.00  0.00    -0.047 A 
HETATM   31  C   UNK N   1      29.043  10.823   2.579  0.00  0.00     0.008 A 
HETATM   32  C   UNK N   1      27.902  11.621   2.607  0.00  0.00     0.008 A 
BRANCH  30  33
HETATM   33  C   UNK N   1      31.498  10.555   2.423  0.00  0.00     0.163 C 
BRANCH  33  34
HETATM   34  P   UNK N   1      31.832  10.456   4.253  0.00  0.00     0.240 P 
HETATM   35  O   UNK N   1      31.200   9.176   4.860  0.00  0.00    -0.653 OA
BRANCH  34  36
HETATM   36  O   UNK N   1      33.519  10.306   4.641  0.00  0.00    -0.329 OA
HETATM   37  H   UNK N   1      34.430  10.576   4.836  0.00  0.00     0.220 HD
ENDBRANCH  34  36
BRANCH  34  38
HETATM   38  O   UNK N   1      31.205  11.757   5.212  0.00  0.00    -0.329 OA
HETATM   39  H   UNK N   1      30.308  11.704   5.576  0.00  0.00     0.220 HD
ENDBRANCH  34  38
ENDBRANCH  33  34
ENDBRANCH  30  33
ENDBRANCH  15  27
BRANCH  19  40
HETATM   40  C   UNK N   1      27.304  17.811   5.913  0.00  0.00     0.046 C 
BRANCH  40  41
HETATM   41  C   UNK N   1      28.443  17.698   6.882  0.00  0.00    -0.047 A 
HETATM   42  C   UNK N   1      28.211  17.793   8.260  0.00  0.00     0.008 A 
HETATM   43  C   UNK N   1      29.272  17.686   9.164  0.00  0.00     0.001 A 
HETATM   44  C   UNK N   1      30.574  17.489   8.699  0.00  0.00     0.012 A 
HETATM   45  C   UNK N   1      30.822  17.400   7.327  0.00  0.00    -0.025 A 
HETATM   46  C   UNK N   1      32.125  17.207   6.862  0.00  0.00     0.012 A 
HETATM   47  C   UNK N   1      29.753  17.506   6.407  0.00  0.00    -0.020 A 
HETATM   48  C   UNK N   1      32.374  17.118   5.489  0.00  0.00     0.001 A 
HETATM   49  C   UNK N   1      31.322  17.221   4.575  0.00  0.00     0.001 A 
HETATM   50  C   UNK N   1      30.017  17.414   5.031  0.00  0.00     0.013 A 
ENDBRANCH  40  41
ENDBRANCH  19  40
BRANCH   1  51
HETATM   51  C   UNK N   1      21.121  15.827   6.485  0.00  0.00     0.137 C 
BRANCH  51  52
HETATM   52  C   UNK N   1      19.804  16.038   5.808  0.00  0.00     0.217 C 
HETATM   53  N   UNK N   1      19.765  16.620   4.595  0.00  0.00    -0.370 N 
HETATM   54  H   UNK N   1      19.997  16.160   3.757  0.00  0.00     0.159 HD
HETATM   55  H   UNK N   1      19.487  17.564   4.544  0.00  0.00     0.159 HD
HETATM   56  O   UNK N   1      18.767  15.707   6.358  0.00  0.00    -0.274 OA
ENDBRANCH  51  52
ENDBRANCH   1  51
TORSDOF 9
ENDMDL
MODEL 9
REMARK VINA RESULT:      -8.5      4.698      7.679
REMARK  9 active torsions:
REMARK  status: ('A' for Active; 'I' for Inactive)
REMARK       I    between atoms: N_1  and  C_2 
REMARK    1  A    between atoms: C_2  and  C_4 
REMARK    2  A    between atoms: C_5  and  C_4 
REMARK    3  A    between atoms: C_19  and  C_39 
REMARK    4  A    between atoms: C_23  and  C_28 
REMARK    5  A    between atoms: C_28  and  C_29 
REMARK    6  A    between atoms: C_42  and  C_43 
REMARK    7  A    between atoms: C_43  and  P_44 
REMARK    8  A    between atoms: P_44  and  O_45 
REMARK    9  A    between atoms: P_44  and  O_46 
ROOT
HETATM    1  C   UNK N   1      21.742  13.213   2.483  0.00  0.00     0.185 C 
HETATM    2  N   UNK N   1      22.841  13.050   3.424  0.00  0.00    -0.345 N 
HETATM    3  C   UNK N   1      23.625  11.941   3.530  0.00  0.00     0.246 C 
HETATM    4  O   UNK N   1      23.379  10.942   2.862  0.00  0.00    -0.271 OA
HETATM    5  C   UNK N   1      24.824  11.950   4.474  0.00  0.00     0.113 C 
HETATM    6  C   UNK N   1      24.360  12.398   5.872  0.00  0.00     0.041 C 
HETATM    7  C   UNK N   1      23.336  11.458   6.522  0.00  0.00     0.003 C 
HETATM    8  C   UNK N   1      23.441  10.014   6.026  0.00  0.00     0.000 C 
HETATM    9  C   UNK N   1      24.882   9.646   5.683  0.00  0.00     0.003 C 
HETATM   10  C   UNK N   1      25.484  10.560   4.601  0.00  0.00     0.041 C 
HETATM   11  N   UNK N   1      25.862  12.886   4.047  0.00  0.00    -0.343 N 
HETATM   12  C   UNK N   1      26.058  13.409   2.802  0.00  0.00     0.219 C 
HETATM   13  O   UNK N   1      25.391  13.048   1.848  0.00  0.00    -0.274 OA
HETATM   14  C   UNK N   1      27.117  14.455   2.591  0.00  0.00     0.116 C 
HETATM   15  C   UNK N   1      26.962  15.708   3.476  0.00  0.00     0.049 C 
HETATM   16  C   UNK N   1      25.623  15.926   4.118  0.00  0.00    -0.021 C 
HETATM   17  C   UNK N   1      25.384  15.520   5.368  0.00  0.00    -0.029 C 
HETATM   18  C   UNK N   1      24.043  15.578   6.047  0.00  0.00     0.033 C 
HETATM   19  C   UNK N   1      22.817  16.041   5.252  0.00  0.00     0.011 C 
HETATM   20  C   UNK N   1      22.818  15.727   3.755  0.00  0.00     0.128 C 
HETATM   21  N   UNK N   1      21.478  15.635   3.245  0.00  0.00    -0.359 N 
HETATM   22  C   UNK N   1      20.961  14.522   2.657  0.00  0.00     0.240 C 
HETATM   23  O   UNK N   1      19.825  14.583   2.215  0.00  0.00    -0.271 OA
HETATM   24  H   UNK N   1      23.032  13.800   4.032  0.00  0.00     0.163 HD
HETATM   25  H   UNK N   1      26.497  13.174   4.742  0.00  0.00     0.163 HD
HETATM   26  H   UNK N   1      20.897  16.426   3.327  0.00  0.00     0.162 HD
ENDROOT
BRANCH  15  27
HETATM   27  C   UNK N   1      28.114  15.932   4.396  0.00  0.00    -0.050 A 
HETATM   28  C   UNK N   1      28.971  14.876   4.744  0.00  0.00     0.008 A 
HETATM   29  C   UNK N   1      30.067  15.114   5.573  0.00  0.00     0.008 A 
HETATM   30  C   UNK N   1      30.290  16.400   6.078  0.00  0.00    -0.047 A 
HETATM   31  C   UNK N   1      29.417  17.442   5.756  0.00  0.00     0.008 A 
HETATM   32  C   UNK N   1      28.331  17.208   4.917  0.00  0.00     0.008 A 
BRANCH  30  33
HETATM   33  C   UNK N   1      31.536  16.722   6.812  0.00  0.00     0.163 C 
BRANCH  33  34
HETATM   34  P   UNK N   1      32.873  16.933   5.532  0.00  0.00     0.240 P 
HETATM   35  O   UNK N   1      32.327  17.671   4.282  0.00  0.00    -0.653 OA
BRANCH  34  36
HETATM   36  O   UNK N   1      34.187  17.937   6.063  0.00  0.00    -0.329 OA
HETATM   37  H   UNK N   1      34.648  18.652   6.530  0.00  0.00     0.220 HD
ENDBRANCH  34  36
BRANCH  34  38
HETATM   38  O   UNK N   1      33.569  15.470   4.914  0.00  0.00    -0.329 OA
HETATM   39  H   UNK N   1      34.514  15.290   5.041  0.00  0.00     0.220 HD
ENDBRANCH  34  38
ENDBRANCH  33  34
ENDBRANCH  30  33
ENDBRANCH  15  27
BRANCH  19  40
HETATM   40  C   UNK N   1      22.374  17.455   5.615  0.00  0.00     0.046 C 
BRANCH  40  41
HETATM   41  C   UNK N   1      22.942  18.519   4.725  0.00  0.00    -0.047 A 
HETATM   42  C   UNK N   1      24.296  18.869   4.816  0.00  0.00     0.008 A 
HETATM   43  C   UNK N   1      24.828  19.860   3.986  0.00  0.00     0.001 A 
HETATM   44  C   UNK N   1      24.011  20.516   3.063  0.00  0.00     0.012 A 
HETATM   45  C   UNK N   1      22.656  20.184   2.966  0.00  0.00    -0.025 A 
HETATM   46  C   UNK N   1      21.839  20.842   2.044  0.00  0.00     0.012 A 
HETATM   47  C   UNK N   1      22.113  19.181   3.801  0.00  0.00    -0.020 A 
HETATM   48  C   UNK N   1      20.483  20.510   1.947  0.00  0.00     0.001 A 
HETATM   49  C   UNK N   1      19.941  19.519   2.769  0.00  0.00     0.001 A 
HETATM   50  C   UNK N   1      20.751  18.857   3.693  0.00  0.00     0.013 A 
ENDBRANCH  40  41
ENDBRANCH  19  40
BRANCH   1  51
HETATM   51  C   UNK N   1      20.812  11.989   2.426  0.00  0.00     0.137 C 
BRANCH  51  52
HETATM   52  C   UNK N   1      20.587  11.477   1.039  0.00  0.00     0.217 C 
HETATM   53  N   UNK N   1      21.474  10.626   0.491  0.00  0.00    -0.370 N 
HETATM   54  H   UNK N   1      21.529   9.669   0.717  0.00  0.00     0.159 HD
HETATM   55  H   UNK N   1      22.106  10.982  -0.175  0.00  0.00     0.159 HD
HETATM   56  O   UNK N   1      19.618  11.845   0.394  0.00  0.00    -0.274 OA
ENDBRANCH  51  52
ENDBRANCH   1  51
TORSDOF 9
ENDMDL
