MODEL 1
REMARK VINA RESULT:      -7.4      0.000      0.000
REMARK  7 active torsions:
REMARK  status: ('A' for Active; 'I' for Inactive)
REMARK    1  A    between atoms: N_2  and  C_3 
REMARK    2  A    between atoms: N_2  and  C_6 
REMARK    3  A    between atoms: C_3  and  C_4 
REMARK    4  A    between atoms: C_6  and  C_7 
REMARK    5  A    between atoms: C_10  and  C_13 
REMARK    6  A    between atoms: C_16  and  C_19 
REMARK    7  A    between atoms: C_19  and  C_21 
ROOT
HETATM    1  C   UNK N   1      35.744  14.722  11.069  0.00  0.00    -0.026 A 
HETATM    2  C   UNK N   1      35.802  16.072  11.430  0.00  0.00     0.013 A 
HETATM    3  C   UNK N   1      35.381  17.059  10.551  0.00  0.00     0.016 A 
HETATM    4  C   UNK N   1      34.880  16.737   9.287  0.00  0.00     0.015 A 
HETATM    5  C   UNK N   1      34.811  15.380   8.918  0.00  0.00     0.016 A 
HETATM    6  C   UNK N   1      35.243  14.378   9.802  0.00  0.00     0.013 A 
ENDROOT
BRANCH   1   7
HETATM    7  C   UNK N   1      36.203  13.700  12.039  0.00  0.00    -0.026 A 
HETATM    8  C   UNK N   1      36.627  12.448  11.568  0.00  0.00     0.013 A 
HETATM    9  C   UNK N   1      37.088  11.474  12.448  0.00  0.00     0.010 A 
HETATM   10  C   UNK N   1      37.126  11.723  13.818  0.00  0.00    -0.030 A 
HETATM   11  C   UNK N   1      36.689  12.966  14.307  0.00  0.00     0.010 A 
HETATM   12  C   UNK N   1      36.234  13.954  13.420  0.00  0.00     0.013 A 
BRANCH  10  13
HETATM   13  C   UNK N   1      37.674  10.636  14.705  0.00  0.00     0.310 C 
BRANCH  13  14
HETATM   14  N   UNK N   1      36.796  10.186  15.781  0.00  0.00     0.091 N 
HETATM   15  C   UNK N   1      37.457   9.102  16.501  0.00  0.00     0.310 C 
BRANCH  14  16
HETATM   16  C   UNK N   1      35.654   9.596  15.091  0.00  0.00     0.299 C 
BRANCH  16  17
HETATM   17  C   UNK N   1      34.371  10.242  15.496  0.00  0.00    -0.007 C 
HETATM   18  C   UNK N   1      33.591  10.791  14.570  0.00  0.00     0.008 C 
ENDBRANCH  16  17
ENDBRANCH  14  16
ENDBRANCH  13  14
ENDBRANCH  10  13
ENDBRANCH   1   7
BRANCH   4  19
HETATM   19  C   UNK N   1      34.430  17.807   8.342  0.00  0.00     0.192 C 
HETATM   20  O   UNK N   1      34.976  18.899   8.395  0.00  0.00    -0.287 OA
BRANCH  19  21
HETATM   21  C   UNK N   1      33.331  17.603   7.340  0.00  0.00     0.015 A 
HETATM   22  C   UNK N   1      33.592  17.518   5.962  0.00  0.00     0.017 A 
HETATM   23  C   UNK N   1      32.563  17.316   5.044  0.00  0.00     0.020 A 
HETATM   24  C   UNK N   1      31.249  17.195   5.489  0.00  0.00     0.011 A 
HETATM   25 Br   UNK N   1      29.850  16.916   4.227  0.00  0.00    -0.051 Br
HETATM   26  C   UNK N   1      30.965  17.276   6.855  0.00  0.00     0.020 A 
HETATM   27  C   UNK N   1      32.001  17.479   7.777  0.00  0.00     0.017 A 
ENDBRANCH  19  21
ENDBRANCH   4  19
TORSDOF 7
ENDMDL
MODEL 2
REMARK VINA RESULT:      -7.3      0.191      1.619
REMARK  7 active torsions:
REMARK  status: ('A' for Active; 'I' for Inactive)
REMARK    1  A    between atoms: N_2  and  C_3 
REMARK    2  A    between atoms: N_2  and  C_6 
REMARK    3  A    between atoms: C_3  and  C_4 
REMARK    4  A    between atoms: C_6  and  C_7 
REMARK    5  A    between atoms: C_10  and  C_13 
REMARK    6  A    between atoms: C_16  and  C_19 
REMARK    7  A    between atoms: C_19  and  C_21 
ROOT
HETATM    1  C   UNK N   1      35.862  14.770  11.054  0.00  0.00    -0.026 A 
HETATM    2  C   UNK N   1      35.502  14.445   9.743  0.00  0.00     0.013 A 
HETATM    3  C   UNK N   1      35.047  15.423   8.871  0.00  0.00     0.016 A 
HETATM    4  C   UNK N   1      34.942  16.757   9.269  0.00  0.00     0.015 A 
HETATM    5  C   UNK N   1      35.310  17.096  10.586  0.00  0.00     0.016 A 
HETATM    6  C   UNK N   1      35.764  16.108  11.475  0.00  0.00     0.013 A 
ENDROOT
BRANCH   1   7
HETATM    7  C   UNK N   1      36.344  13.696  11.953  0.00  0.00    -0.026 A 
HETATM    8  C   UNK N   1      36.336  13.905  13.341  0.00  0.00     0.013 A 
HETATM    9  C   UNK N   1      36.758  12.909  14.215  0.00  0.00     0.010 A 
HETATM   10  C   UNK N   1      37.208  11.685  13.725  0.00  0.00    -0.030 A 
HETATM   11  C   UNK N   1      37.237  11.465  12.337  0.00  0.00     0.010 A 
HETATM   12  C   UNK N   1      36.802  12.465  11.454  0.00  0.00     0.013 A 
BRANCH  10  13
HETATM   13  C   UNK N   1      37.610  10.641  14.732  0.00  0.00     0.310 C 
BRANCH  13  14
HETATM   14  N   UNK N   1      36.628  10.345  15.773  0.00  0.00     0.091 N 
HETATM   15  C   UNK N   1      37.215   9.397  16.714  0.00  0.00     0.310 C 
BRANCH  14  16
HETATM   16  C   UNK N   1      35.564   9.636  15.072  0.00  0.00     0.299 C 
BRANCH  16  17
HETATM   17  C   UNK N   1      34.252  10.336  15.206  0.00  0.00    -0.007 C 
HETATM   18  C   UNK N   1      33.625  10.769  14.117  0.00  0.00     0.008 C 
ENDBRANCH  16  17
ENDBRANCH  14  16
ENDBRANCH  13  14
ENDBRANCH  10  13
ENDBRANCH   1   7
BRANCH   4  19
HETATM   19  C   UNK N   1      34.448  17.807   8.324  0.00  0.00     0.192 C 
HETATM   20  O   UNK N   1      34.954  18.919   8.370  0.00  0.00    -0.287 OA
BRANCH  19  21
HETATM   21  C   UNK N   1      33.352  17.560   7.328  0.00  0.00     0.015 A 
HETATM   22  C   UNK N   1      32.018  17.369   7.725  0.00  0.00     0.017 A 
HETATM   23  C   UNK N   1      31.010  17.153   6.789  0.00  0.00     0.020 A 
HETATM   24  C   UNK N   1      31.318  17.124   5.431  0.00  0.00     0.011 A 
HETATM   25 Br   UNK N   1      29.932  16.832   4.158  0.00  0.00    -0.051 Br
HETATM   26  C   UNK N   1      32.638  17.311   5.011  0.00  0.00     0.020 A 
HETATM   27  C   UNK N   1      33.651  17.529   5.954  0.00  0.00     0.017 A 
ENDBRANCH  19  21
ENDBRANCH   4  19
TORSDOF 7
ENDMDL
MODEL 3
REMARK VINA RESULT:      -7.1      3.933      6.258
REMARK  7 active torsions:
REMARK  status: ('A' for Active; 'I' for Inactive)
REMARK    1  A    between atoms: N_2  and  C_3 
REMARK    2  A    between atoms: N_2  and  C_6 
REMARK    3  A    between atoms: C_3  and  C_4 
REMARK    4  A    between atoms: C_6  and  C_7 
REMARK    5  A    between atoms: C_10  and  C_13 
REMARK    6  A    between atoms: C_16  and  C_19 
REMARK    7  A    between atoms: C_19  and  C_21 
ROOT
HETATM    1  C   UNK N   1      35.717  11.858  15.813  0.00  0.00    -0.026 A 
HETATM    2  C   UNK N   1      36.450  11.075  14.915  0.00  0.00     0.013 A 
HETATM    3  C   UNK N   1      36.796  11.569  13.666  0.00  0.00     0.016 A 
HETATM    4  C   UNK N   1      36.433  12.858  13.270  0.00  0.00     0.015 A 
HETATM    5  C   UNK N   1      35.700  13.656  14.170  0.00  0.00     0.016 A 
HETATM    6  C   UNK N   1      35.341  13.158  15.433  0.00  0.00     0.013 A 
ENDROOT
BRANCH   1   7
HETATM    7  C   UNK N   1      35.368  11.293  17.138  0.00  0.00    -0.026 A 
HETATM    8  C   UNK N   1      35.467  12.105  18.278  0.00  0.00     0.013 A 
HETATM    9  C   UNK N   1      35.125  11.614  19.534  0.00  0.00     0.010 A 
HETATM   10  C   UNK N   1      34.687  10.300  19.683  0.00  0.00    -0.030 A 
HETATM   11  C   UNK N   1      34.598   9.469  18.552  0.00  0.00     0.010 A 
HETATM   12  C   UNK N   1      34.933   9.966  17.283  0.00  0.00     0.013 A 
BRANCH  10  13
HETATM   13  C   UNK N   1      34.295   9.852  21.066  0.00  0.00     0.310 C 
BRANCH  13  14
HETATM   14  N   UNK N   1      32.909  10.105  21.450  0.00  0.00     0.091 N 
HETATM   15  C   UNK N   1      32.877  10.491  22.858  0.00  0.00     0.310 C 
BRANCH  14  16
HETATM   16  C   UNK N   1      32.267   8.798  21.359  0.00  0.00     0.299 C 
BRANCH  16  17
HETATM   17  C   UNK N   1      31.284   8.744  20.237  0.00  0.00    -0.007 C 
HETATM   18  C   UNK N   1      30.596   7.627  20.020  0.00  0.00     0.008 C 
ENDBRANCH  16  17
ENDBRANCH  14  16
ENDBRANCH  13  14
ENDBRANCH  10  13
ENDBRANCH   1   7
BRANCH   4  19
HETATM   19  C   UNK N   1      36.807  13.382  11.919  0.00  0.00     0.192 C 
HETATM   20  O   UNK N   1      37.886  13.057  11.445  0.00  0.00    -0.287 OA
BRANCH  19  21
HETATM   21  C   UNK N   1      35.922  14.298  11.123  0.00  0.00     0.015 A 
HETATM   22  C   UNK N   1      34.839  13.813  10.372  0.00  0.00     0.017 A 
HETATM   23  C   UNK N   1      34.018  14.676   9.648  0.00  0.00     0.020 A 
HETATM   24  C   UNK N   1      34.268  16.046   9.663  0.00  0.00     0.011 A 
HETATM   25 Br   UNK N   1      33.139  17.219   8.674  0.00  0.00    -0.051 Br
HETATM   26  C   UNK N   1      35.340  16.553  10.404  0.00  0.00     0.020 A 
HETATM   27  C   UNK N   1      36.163  15.683  11.132  0.00  0.00     0.017 A 
ENDBRANCH  19  21
ENDBRANCH   4  19
TORSDOF 7
ENDMDL
MODEL 4
REMARK VINA RESULT:      -7.0      4.940     10.724
REMARK  7 active torsions:
REMARK  status: ('A' for Active; 'I' for Inactive)
REMARK    1  A    between atoms: N_2  and  C_3 
REMARK    2  A    between atoms: N_2  and  C_6 
REMARK    3  A    between atoms: C_3  and  C_4 
REMARK    4  A    between atoms: C_6  and  C_7 
REMARK    5  A    between atoms: C_10  and  C_13 
REMARK    6  A    between atoms: C_16  and  C_19 
REMARK    7  A    between atoms: C_19  and  C_21 
ROOT
HETATM    1  C   UNK N   1      31.884  17.065   7.631  0.00  0.00    -0.026 A 
HETATM    2  C   UNK N   1      31.988  15.914   8.418  0.00  0.00     0.013 A 
HETATM    3  C   UNK N   1      33.097  15.706   9.225  0.00  0.00     0.016 A 
HETATM    4  C   UNK N   1      34.135  16.638   9.284  0.00  0.00     0.015 A 
HETATM    5  C   UNK N   1      34.036  17.804   8.500  0.00  0.00     0.016 A 
HETATM    6  C   UNK N   1      32.919  18.015   7.675  0.00  0.00     0.013 A 
ENDROOT
BRANCH   1   7
HETATM    7  C   UNK N   1      30.683  17.248   6.783  0.00  0.00    -0.026 A 
HETATM    8  C   UNK N   1      29.428  17.398   7.393  0.00  0.00     0.013 A 
HETATM    9  C   UNK N   1      28.283  17.597   6.629  0.00  0.00     0.010 A 
HETATM   10  C   UNK N   1      28.362  17.639   5.238  0.00  0.00    -0.030 A 
HETATM   11  C   UNK N   1      29.609  17.475   4.611  0.00  0.00     0.010 A 
HETATM   12  C   UNK N   1      30.767  17.285   5.381  0.00  0.00     0.013 A 
BRANCH  10  13
HETATM   13  C   UNK N   1      27.087  17.898   4.480  0.00  0.00     0.310 C 
BRANCH  13  14
HETATM   14  N   UNK N   1      26.179  18.877   5.072  0.00  0.00     0.091 N 
HETATM   15  C   UNK N   1      24.825  18.603   4.603  0.00  0.00     0.310 C 
BRANCH  14  16
HETATM   16  C   UNK N   1      26.580  20.147   4.477  0.00  0.00     0.299 C 
BRANCH  16  17
HETATM   17  C   UNK N   1      27.218  21.050   5.479  0.00  0.00    -0.007 C 
HETATM   18  C   UNK N   1      26.610  21.276   6.639  0.00  0.00     0.008 C 
ENDBRANCH  16  17
ENDBRANCH  14  16
ENDBRANCH  13  14
ENDBRANCH  10  13
ENDBRANCH   1   7
BRANCH   4  19
HETATM   19  C   UNK N   1      35.330  16.406  10.155  0.00  0.00     0.192 C 
HETATM   20  O   UNK N   1      35.994  17.371  10.503  0.00  0.00    -0.287 OA
BRANCH  19  21
HETATM   21  C   UNK N   1      35.756  15.041  10.612  0.00  0.00     0.015 A 
HETATM   22  C   UNK N   1      36.546  14.203   9.807  0.00  0.00     0.017 A 
HETATM   23  C   UNK N   1      36.945  12.943  10.249  0.00  0.00     0.020 A 
HETATM   24  C   UNK N   1      36.559  12.497  11.511  0.00  0.00     0.011 A 
HETATM   25 Br   UNK N   1      37.111  10.774  12.109  0.00  0.00    -0.051 Br
HETATM   26  C   UNK N   1      35.773  13.313  12.330  0.00  0.00     0.020 A 
HETATM   27  C   UNK N   1      35.374  14.579  11.884  0.00  0.00     0.017 A 
ENDBRANCH  19  21
ENDBRANCH   4  19
TORSDOF 7
ENDMDL
MODEL 5
REMARK VINA RESULT:      -7.0      3.015      4.489
REMARK  7 active torsions:
REMARK  status: ('A' for Active; 'I' for Inactive)
REMARK    1  A    between atoms: N_2  and  C_3 
REMARK    2  A    between atoms: N_2  and  C_6 
REMARK    3  A    between atoms: C_3  and  C_4 
REMARK    4  A    between atoms: C_6  and  C_7 
REMARK    5  A    between atoms: C_10  and  C_13 
REMARK    6  A    between atoms: C_16  and  C_19 
REMARK    7  A    between atoms: C_19  and  C_21 
ROOT
HETATM    1  C   UNK N   1      35.461  12.878  14.392  0.00  0.00    -0.026 A 
HETATM    2  C   UNK N   1      34.897  12.512  13.165  0.00  0.00     0.013 A 
HETATM    3  C   UNK N   1      35.029  13.331  12.054  0.00  0.00     0.016 A 
HETATM    4  C   UNK N   1      35.731  14.536  12.121  0.00  0.00     0.015 A 
HETATM    5  C   UNK N   1      36.308  14.910  13.350  0.00  0.00     0.016 A 
HETATM    6  C   UNK N   1      36.171  14.088  14.480  0.00  0.00     0.013 A 
ENDROOT
BRANCH   1   7
HETATM    7  C   UNK N   1      35.298  11.974  15.555  0.00  0.00    -0.026 A 
HETATM    8  C   UNK N   1      35.018  10.617  15.335  0.00  0.00     0.013 A 
HETATM    9  C   UNK N   1      34.883   9.736  16.403  0.00  0.00     0.010 A 
HETATM   10  C   UNK N   1      35.012  10.190  17.714  0.00  0.00    -0.030 A 
HETATM   11  C   UNK N   1      35.276  11.550  17.950  0.00  0.00     0.010 A 
HETATM   12  C   UNK N   1      35.424  12.439  16.874  0.00  0.00     0.013 A 
BRANCH  10  13
HETATM   13  C   UNK N   1      34.894   9.171  18.815  0.00  0.00     0.310 C 
BRANCH  13  14
HETATM   14  N   UNK N   1      33.848   9.419  19.805  0.00  0.00     0.091 N 
HETATM   15  C   UNK N   1      34.413   9.232  21.138  0.00  0.00     0.310 C 
BRANCH  14  16
HETATM   16  C   UNK N   1      32.893   8.336  19.599  0.00  0.00     0.299 C 
BRANCH  16  17
HETATM   17  C   UNK N   1      31.600   8.600  20.297  0.00  0.00    -0.007 C 
HETATM   18  C   UNK N   1      30.542   7.842  20.028  0.00  0.00     0.008 C 
ENDBRANCH  16  17
ENDBRANCH  14  16
ENDBRANCH  13  14
ENDBRANCH  10  13
ENDBRANCH   1   7
BRANCH   4  19
HETATM   19  C   UNK N   1      35.867  15.417  10.918  0.00  0.00     0.192 C 
HETATM   20  O   UNK N   1      36.979  15.824  10.615  0.00  0.00    -0.287 OA
BRANCH  19  21
HETATM   21  C   UNK N   1      34.698  15.831  10.072  0.00  0.00     0.015 A 
HETATM   22  C   UNK N   1      33.581  14.998   9.891  0.00  0.00     0.017 A 
HETATM   23  C   UNK N   1      32.498  15.401   9.113  0.00  0.00     0.020 A 
HETATM   24  C   UNK N   1      32.512  16.651   8.499  0.00  0.00     0.011 A 
HETATM   25 Br   UNK N   1      31.025  17.195   7.440  0.00  0.00    -0.051 Br
HETATM   26  C   UNK N   1      33.612  17.498   8.664  0.00  0.00     0.020 A 
HETATM   27  C   UNK N   1      34.700  17.091   9.447  0.00  0.00     0.017 A 
ENDBRANCH  19  21
ENDBRANCH   4  19
TORSDOF 7
ENDMDL
MODEL 6
REMARK VINA RESULT:      -6.9      4.444      6.692
REMARK  7 active torsions:
REMARK  status: ('A' for Active; 'I' for Inactive)
REMARK    1  A    between atoms: N_2  and  C_3 
REMARK    2  A    between atoms: N_2  and  C_6 
REMARK    3  A    between atoms: C_3  and  C_4 
REMARK    4  A    between atoms: C_6  and  C_7 
REMARK    5  A    between atoms: C_10  and  C_13 
REMARK    6  A    between atoms: C_16  and  C_19 
REMARK    7  A    between atoms: C_19  and  C_21 
ROOT
HETATM    1  C   UNK N   1      35.557  12.766  15.960  0.00  0.00    -0.026 A 
HETATM    2  C   UNK N   1      34.826  12.334  14.848  0.00  0.00     0.013 A 
HETATM    3  C   UNK N   1      35.013  12.922  13.606  0.00  0.00     0.016 A 
HETATM    4  C   UNK N   1      35.936  13.953  13.424  0.00  0.00     0.015 A 
HETATM    5  C   UNK N   1      36.682  14.391  14.536  0.00  0.00     0.016 A 
HETATM    6  C   UNK N   1      36.491  13.804  15.798  0.00  0.00     0.013 A 
ENDROOT
BRANCH   1   7
HETATM    7  C   UNK N   1      35.328  12.111  17.268  0.00  0.00    -0.026 A 
HETATM    8  C   UNK N   1      35.135  10.722  17.316  0.00  0.00     0.013 A 
HETATM    9  C   UNK N   1      34.941  10.070  18.530  0.00  0.00     0.010 A 
HETATM   10  C   UNK N   1      34.925  10.791  19.723  0.00  0.00    -0.030 A 
HETATM   11  C   UNK N   1      35.101  12.185  19.690  0.00  0.00     0.010 A 
HETATM   12  C   UNK N   1      35.306  12.842  18.467  0.00  0.00     0.013 A 
BRANCH  10  13
HETATM   13  C   UNK N   1      34.751  10.012  21.000  0.00  0.00     0.310 C 
BRANCH  13  14
HETATM   14  N   UNK N   1      33.399   9.985  21.552  0.00  0.00     0.091 N 
HETATM   15  C   UNK N   1      33.490   9.902  23.006  0.00  0.00     0.310 C 
BRANCH  14  16
HETATM   16  C   UNK N   1      32.848   8.715  21.093  0.00  0.00     0.299 C 
BRANCH  16  17
HETATM   17  C   UNK N   1      31.548   8.901  20.385  0.00  0.00    -0.007 C 
HETATM   18  C   UNK N   1      30.797   7.842  20.101  0.00  0.00     0.008 C 
ENDBRANCH  16  17
ENDBRANCH  14  16
ENDBRANCH  13  14
ENDBRANCH  10  13
ENDBRANCH   1   7
BRANCH   4  19
HETATM   19  C   UNK N   1      36.130  14.586  12.082  0.00  0.00     0.192 C 
HETATM   20  O   UNK N   1      35.650  15.692  11.883  0.00  0.00    -0.287 OA
BRANCH  19  21
HETATM   21  C   UNK N   1      36.879  13.919  10.964  0.00  0.00     0.015 A 
HETATM   22  C   UNK N   1      37.786  12.872  11.201  0.00  0.00     0.017 A 
HETATM   23  C   UNK N   1      38.465  12.254  10.153  0.00  0.00     0.020 A 
HETATM   24  C   UNK N   1      38.248  12.674   8.843  0.00  0.00     0.011 A 
HETATM   25 Br   UNK N   1      39.179  11.822   7.416  0.00  0.00    -0.051 Br
HETATM   26  C   UNK N   1      37.351  13.714   8.582  0.00  0.00     0.020 A 
HETATM   27  C   UNK N   1      36.668  14.333   9.637  0.00  0.00     0.017 A 
ENDBRANCH  19  21
ENDBRANCH   4  19
TORSDOF 7
ENDMDL
MODEL 7
REMARK VINA RESULT:      -6.7      4.774      7.683
REMARK  7 active torsions:
REMARK  status: ('A' for Active; 'I' for Inactive)
REMARK    1  A    between atoms: N_2  and  C_3 
REMARK    2  A    between atoms: N_2  and  C_6 
REMARK    3  A    between atoms: C_3  and  C_4 
REMARK    4  A    between atoms: C_6  and  C_7 
REMARK    5  A    between atoms: C_10  and  C_13 
REMARK    6  A    between atoms: C_16  and  C_19 
REMARK    7  A    between atoms: C_19  and  C_21 
ROOT
HETATM    1  C   UNK N   1      35.334  11.304  17.412  0.00  0.00    -0.026 A 
HETATM    2  C   UNK N   1      35.064  12.673  17.519  0.00  0.00     0.013 A 
HETATM    3  C   UNK N   1      35.425  13.546  16.504  0.00  0.00     0.016 A 
HETATM    4  C   UNK N   1      36.058  13.089  15.346  0.00  0.00     0.015 A 
HETATM    5  C   UNK N   1      36.328  11.712  15.226  0.00  0.00     0.016 A 
HETATM    6  C   UNK N   1      35.971  10.825  16.255  0.00  0.00     0.013 A 
ENDROOT
BRANCH   1   7
HETATM    7  C   UNK N   1      34.930  10.406  18.519  0.00  0.00    -0.026 A 
HETATM    8  C   UNK N   1      34.984  10.876  19.840  0.00  0.00     0.013 A 
HETATM    9  C   UNK N   1      34.590  10.067  20.901  0.00  0.00     0.010 A 
HETATM   10  C   UNK N   1      34.144   8.768  20.670  0.00  0.00    -0.030 A 
HETATM   11  C   UNK N   1      34.099   8.277  19.353  0.00  0.00     0.010 A 
HETATM   12  C   UNK N   1      34.486   9.095  18.281  0.00  0.00     0.013 A 
BRANCH  10  13
HETATM   13  C   UNK N   1      33.695   7.967  21.863  0.00  0.00     0.310 C 
BRANCH  13  14
HETATM   14  N   UNK N   1      32.265   8.006  22.158  0.00  0.00     0.091 N 
HETATM   15  C   UNK N   1      32.089   8.214  23.591  0.00  0.00     0.310 C 
BRANCH  14  16
HETATM   16  C   UNK N   1      31.801   6.653  21.870  0.00  0.00     0.299 C 
BRANCH  16  17
HETATM   17  C   UNK N   1      30.851   6.629  20.719  0.00  0.00    -0.007 C 
HETATM   18  C   UNK N   1      30.492   7.770  20.139  0.00  0.00     0.008 C 
ENDBRANCH  16  17
ENDBRANCH  14  16
ENDBRANCH  13  14
ENDBRANCH  10  13
ENDBRANCH   1   7
BRANCH   4  19
HETATM   19  C   UNK N   1      36.448  14.038  14.256  0.00  0.00     0.192 C 
HETATM   20  O   UNK N   1      36.932  15.117  14.567  0.00  0.00    -0.287 OA
BRANCH  19  21
HETATM   21  C   UNK N   1      36.262  13.730  12.798  0.00  0.00     0.015 A 
HETATM   22  C   UNK N   1      37.242  13.053  12.053  0.00  0.00     0.017 A 
HETATM   23  C   UNK N   1      37.051  12.763  10.704  0.00  0.00     0.020 A 
HETATM   24  C   UNK N   1      35.870  13.146  10.072  0.00  0.00     0.011 A 
HETATM   25 Br   UNK N   1      35.615  12.742   8.228  0.00  0.00    -0.051 Br
HETATM   26  C   UNK N   1      34.880  13.820  10.793  0.00  0.00     0.020 A 
HETATM   27  C   UNK N   1      35.074  14.111  12.150  0.00  0.00     0.017 A 
ENDBRANCH  19  21
ENDBRANCH   4  19
TORSDOF 7
ENDMDL
MODEL 8
REMARK VINA RESULT:      -6.5      3.098      4.886
REMARK  7 active torsions:
REMARK  status: ('A' for Active; 'I' for Inactive)
REMARK    1  A    between atoms: N_2  and  C_3 
REMARK    2  A    between atoms: N_2  and  C_6 
REMARK    3  A    between atoms: C_3  and  C_4 
REMARK    4  A    between atoms: C_6  and  C_7 
REMARK    5  A    between atoms: C_10  and  C_13 
REMARK    6  A    between atoms: C_16  and  C_19 
REMARK    7  A    between atoms: C_19  and  C_21 
ROOT
HETATM    1  C   UNK N   1      35.593  13.077  14.835  0.00  0.00    -0.026 A 
HETATM    2  C   UNK N   1      34.931  12.343  13.846  0.00  0.00     0.013 A 
HETATM    3  C   UNK N   1      35.013  12.718  12.513  0.00  0.00     0.016 A 
HETATM    4  C   UNK N   1      35.761  13.828  12.117  0.00  0.00     0.015 A 
HETATM    5  C   UNK N   1      36.437  14.569  13.105  0.00  0.00     0.016 A 
HETATM    6  C   UNK N   1      36.352  14.199  14.457  0.00  0.00     0.013 A 
ENDROOT
BRANCH   1   7
HETATM    7  C   UNK N   1      35.480  12.643  16.247  0.00  0.00    -0.026 A 
HETATM    8  C   UNK N   1      35.558  11.276  16.553  0.00  0.00     0.013 A 
HETATM    9  C   UNK N   1      35.480  10.835  17.871  0.00  0.00     0.010 A 
HETATM   10  C   UNK N   1      35.312  11.746  18.911  0.00  0.00    -0.030 A 
HETATM   11  C   UNK N   1      35.217  13.118  18.619  0.00  0.00     0.010 A 
HETATM   12  C   UNK N   1      35.306  13.565  17.292  0.00  0.00     0.013 A 
BRANCH  10  13
HETATM   13  C   UNK N   1      35.278  11.198  20.313  0.00  0.00     0.310 C 
BRANCH  13  14
HETATM   14  N   UNK N   1      35.647   9.792  20.459  0.00  0.00     0.091 N 
HETATM   15  C   UNK N   1      34.599   9.110  21.211  0.00  0.00     0.310 C 
BRANCH  14  16
HETATM   16  C   UNK N   1      36.828   9.817  21.313  0.00  0.00     0.299 C 
BRANCH  16  17
HETATM   17  C   UNK N   1      37.967   9.069  20.703  0.00  0.00    -0.007 C 
HETATM   18  C   UNK N   1      37.804   8.472  19.526  0.00  0.00     0.008 C 
ENDBRANCH  16  17
ENDBRANCH  14  16
ENDBRANCH  13  14
ENDBRANCH  10  13
ENDBRANCH   1   7
BRANCH   4  19
HETATM   19  C   UNK N   1      35.843  14.228  10.677  0.00  0.00     0.192 C 
HETATM   20  O   UNK N   1      36.820  13.881  10.029  0.00  0.00    -0.287 OA
BRANCH  19  21
HETATM   21  C   UNK N   1      34.785  15.045   9.994  0.00  0.00     0.015 A 
HETATM   22  C   UNK N   1      34.969  16.408   9.708  0.00  0.00     0.017 A 
HETATM   23  C   UNK N   1      33.983  17.150   9.062  0.00  0.00     0.020 A 
HETATM   24  C   UNK N   1      32.789  16.540   8.688  0.00  0.00     0.011 A 
HETATM   25 Br   UNK N   1      31.447  17.563   7.802  0.00  0.00    -0.051 Br
HETATM   26  C   UNK N   1      32.582  15.185   8.961  0.00  0.00     0.020 A 
HETATM   27  C   UNK N   1      33.575  14.440   9.610  0.00  0.00     0.017 A 
ENDBRANCH  19  21
ENDBRANCH   4  19
TORSDOF 7
ENDMDL
MODEL 9
REMARK VINA RESULT:      -6.5      4.917     10.545
REMARK  7 active torsions:
REMARK  status: ('A' for Active; 'I' for Inactive)
REMARK    1  A    between atoms: N_2  and  C_3 
REMARK    2  A    between atoms: N_2  and  C_6 
REMARK    3  A    between atoms: C_3  and  C_4 
REMARK    4  A    between atoms: C_6  and  C_7 
REMARK    5  A    between atoms: C_10  and  C_13 
REMARK    6  A    between atoms: C_16  and  C_19 
REMARK    7  A    between atoms: C_19  and  C_21 
ROOT
HETATM    1  C   UNK N   1      32.356  16.621   8.685  0.00  0.00    -0.026 A 
HETATM    2  C   UNK N   1      33.467  17.470   8.714  0.00  0.00     0.013 A 
HETATM    3  C   UNK N   1      34.628  17.093   9.374  0.00  0.00     0.016 A 
HETATM    4  C   UNK N   1      34.727  15.858  10.019  0.00  0.00     0.015 A 
HETATM    5  C   UNK N   1      33.615  14.994   9.989  0.00  0.00     0.016 A 
HETATM    6  C   UNK N   1      32.435  15.374   9.328  0.00  0.00     0.013 A 
ENDROOT
BRANCH   1   7
HETATM    7  C   UNK N   1      31.136  17.062   7.969  0.00  0.00    -0.026 A 
HETATM    8  C   UNK N   1      30.185  17.839   8.646  0.00  0.00     0.013 A 
HETATM    9  C   UNK N   1      29.040  18.290   7.998  0.00  0.00     0.010 A 
HETATM   10  C   UNK N   1      28.813  17.968   6.662  0.00  0.00    -0.030 A 
HETATM   11  C   UNK N   1      29.749  17.176   5.973  0.00  0.00     0.010 A 
HETATM   12  C   UNK N   1      30.909  16.729   6.623  0.00  0.00     0.013 A 
BRANCH  10  13
HETATM   13  C   UNK N   1      27.572  18.525   6.015  0.00  0.00     0.310 C 
BRANCH  13  14
HETATM   14  N   UNK N   1      27.792  19.475   4.927  0.00  0.00     0.091 N 
HETATM   15  C   UNK N   1      27.337  20.793   5.358  0.00  0.00     0.310 C 
BRANCH  14  16
HETATM   16  C   UNK N   1      26.877  19.038   3.878  0.00  0.00     0.299 C 
BRANCH  16  17
HETATM   17  C   UNK N   1      26.388  17.648   4.116  0.00  0.00    -0.007 C 
HETATM   18  C   UNK N   1      25.818  16.973   3.123  0.00  0.00     0.008 C 
ENDBRANCH  16  17
ENDBRANCH  14  16
ENDBRANCH  13  14
ENDBRANCH  10  13
ENDBRANCH   1   7
BRANCH   4  19
HETATM   19  C   UNK N   1      35.981  15.460  10.731  0.00  0.00     0.192 C 
HETATM   20  O   UNK N   1      36.967  16.174  10.620  0.00  0.00    -0.287 OA
BRANCH  19  21
HETATM   21  C   UNK N   1      36.088  14.217  11.567  0.00  0.00     0.015 A 
HETATM   22  C   UNK N   1      36.511  12.993  11.024  0.00  0.00     0.017 A 
HETATM   23  C   UNK N   1      36.617  11.850  11.814  0.00  0.00     0.020 A 
HETATM   24  C   UNK N   1      36.300  11.912  13.169  0.00  0.00     0.011 A 
HETATM   25 Br   UNK N   1      36.451  10.346  14.243  0.00  0.00    -0.051 Br
HETATM   26  C   UNK N   1      35.877  13.119  13.732  0.00  0.00     0.020 A 
HETATM   27  C   UNK N   1      35.772  14.267  12.936  0.00  0.00     0.017 A 
ENDBRANCH  19  21
ENDBRANCH   4  19
TORSDOF 7
ENDMDL
