MODEL 1
REMARK VINA RESULT:      -4.5      0.000      0.000
REMARK  18 active torsions:
REMARK  status: ('A' for Active; 'I' for Inactive)
REMARK    1  A    between atoms: C_3  and  C_2 
REMARK    2  A    between atoms: C_4  and  C_3 
REMARK    3  A    between atoms: C_5  and  C_4 
REMARK    4  A    between atoms: C_6  and  C_5 
REMARK    5  A    between atoms: C_7  and  C_6 
REMARK    6  A    between atoms: C_8  and  C_7 
REMARK    7  A    between atoms: C_9  and  C_8 
REMARK    8  A    between atoms: C_10  and  C_9 
REMARK    9  A    between atoms: C_11  and  C_10 
REMARK   10  A    between atoms: C_12  and  C_11 
REMARK   11  A    between atoms: C_13  and  C_12 
REMARK   12  A    between atoms: C_14  and  C_13 
REMARK   13  A    between atoms: C_18  and  C_15 
REMARK   14  A    between atoms: C_17  and  C_16 
REMARK   15  A    between atoms: O_20  and  C_16 
REMARK   16  A    between atoms: C_18  and  C_17 
REMARK   17  A    between atoms: C_17  and  N_19 
REMARK   18  A    between atoms: C_18  and  O_21 
ROOT
HETATM    1  C   UNK N   1      30.535  27.109  -4.364  0.00  0.00     0.027 C 
ENDROOT
BRANCH   1   2
HETATM    2  C   UNK N   1      29.312  27.751  -4.996  0.00  0.00     0.004 C 
BRANCH   2   3
HETATM    3  C   UNK N   1      29.124  27.210  -6.402  0.00  0.00     0.000 C 
BRANCH   3   4
HETATM    4  C   UNK N   1      27.730  27.508  -6.925  0.00  0.00     0.000 C 
BRANCH   4   5
HETATM    5  C   UNK N   1      27.015  28.402  -5.929  0.00  0.00     0.000 C 
BRANCH   5   6
HETATM    6  C   UNK N   1      25.760  27.740  -5.391  0.00  0.00     0.000 C 
BRANCH   6   7
HETATM    7  C   UNK N   1      25.754  27.845  -3.879  0.00  0.00     0.000 C 
BRANCH   7   8
HETATM    8  C   UNK N   1      26.352  26.601  -3.252  0.00  0.00     0.000 C 
BRANCH   8   9
HETATM    9  C   UNK N   1      26.029  25.433  -4.157  0.00  0.00     0.000 C 
BRANCH   9  10
HETATM   10  C   UNK N   1      27.065  24.336  -4.046  0.00  0.00     0.000 C 
BRANCH  10  11
HETATM   11  C   UNK N   1      27.388  23.867  -5.450  0.00  0.00    -0.000 C 
BRANCH  11  12
HETATM   12  C   UNK N   1      26.243  24.166  -6.392  0.00  0.00    -0.005 C 
HETATM   13  C   UNK N   1      26.004  22.957  -7.274  0.00  0.00     0.005 C 
ENDBRANCH  11  12
ENDBRANCH  10  11
ENDBRANCH   9  10
ENDBRANCH   8   9
ENDBRANCH   7   8
ENDBRANCH   6   7
ENDBRANCH   5   6
ENDBRANCH   4   5
ENDBRANCH   3   4
ENDBRANCH   2   3
ENDBRANCH   1   2
BRANCH   1  14
HETATM   14  C   UNK N   1      30.352  25.630  -4.268  0.00  0.00    -0.028 C 
HETATM   15  C   UNK N   1      30.882  24.945  -3.245  0.00  0.00     0.003 C 
BRANCH  15  16
HETATM   16  C   UNK N   1      30.713  23.448  -3.097  0.00  0.00     0.165 C 
BRANCH  16  17
HETATM   17  C   UNK N   1      31.883  22.633  -3.694  0.00  0.00     0.130 C 
BRANCH  17  18
HETATM   18  C   UNK N   1      31.896  21.230  -3.095  0.00  0.00     0.191 C 
BRANCH  18  19
HETATM   19  O   UNK N   1      32.736  21.180  -1.981  0.00  0.00    -0.399 OA
HETATM   20  H   UNK N   1      33.007  21.889  -1.377  0.00  0.00     0.209 HD
ENDBRANCH  18  19
ENDBRANCH  17  18
BRANCH  17  21
HETATM   21  N   UNK N   1      31.764  22.518  -5.138  0.00  0.00    -0.422 N 
HETATM   22  H   UNK N   1      32.306  23.133  -5.746  0.00  0.00     0.150 HD
HETATM   23  H   UNK N   1      31.139  21.822  -5.545  0.00  0.00     0.150 HD
ENDBRANCH  17  21
ENDBRANCH  16  17
BRANCH  16  24
HETATM   24  O   UNK N   1      30.614  23.156  -1.733  0.00  0.00    -0.390 OA
HETATM   25  H   UNK N   1      31.007  22.342  -1.380  0.00  0.00     0.210 HD
ENDBRANCH  16  24
ENDBRANCH  15  16
ENDBRANCH   1  14
TORSDOF 18
ENDMDL
MODEL 2
REMARK VINA RESULT:      -4.5      1.765      3.096
REMARK  18 active torsions:
REMARK  status: ('A' for Active; 'I' for Inactive)
REMARK    1  A    between atoms: C_3  and  C_2 
REMARK    2  A    between atoms: C_4  and  C_3 
REMARK    3  A    between atoms: C_5  and  C_4 
REMARK    4  A    between atoms: C_6  and  C_5 
REMARK    5  A    between atoms: C_7  and  C_6 
REMARK    6  A    between atoms: C_8  and  C_7 
REMARK    7  A    between atoms: C_9  and  C_8 
REMARK    8  A    between atoms: C_10  and  C_9 
REMARK    9  A    between atoms: C_11  and  C_10 
REMARK   10  A    between atoms: C_12  and  C_11 
REMARK   11  A    between atoms: C_13  and  C_12 
REMARK   12  A    between atoms: C_14  and  C_13 
REMARK   13  A    between atoms: C_18  and  C_15 
REMARK   14  A    between atoms: C_17  and  C_16 
REMARK   15  A    between atoms: O_20  and  C_16 
REMARK   16  A    between atoms: C_18  and  C_17 
REMARK   17  A    between atoms: C_17  and  N_19 
REMARK   18  A    between atoms: C_18  and  O_21 
ROOT
HETATM    1  C   UNK N   1      29.847  26.746  -4.285  0.00  0.00     0.027 C 
ENDROOT
BRANCH   1   2
HETATM    2  C   UNK N   1      30.897  27.323  -3.352  0.00  0.00     0.004 C 
BRANCH   2   3
HETATM    3  C   UNK N   1      30.337  28.548  -2.652  0.00  0.00     0.000 C 
BRANCH   3   4
HETATM    4  C   UNK N   1      29.168  29.136  -3.423  0.00  0.00     0.000 C 
BRANCH   4   5
HETATM    5  C   UNK N   1      27.971  29.240  -2.494  0.00  0.00     0.000 C 
BRANCH   5   6
HETATM    6  C   UNK N   1      26.666  29.088  -3.253  0.00  0.00     0.000 C 
BRANCH   6   7
HETATM    7  C   UNK N   1      26.226  27.640  -3.196  0.00  0.00     0.000 C 
BRANCH   7   8
HETATM    8  C   UNK N   1      25.606  27.214  -4.513  0.00  0.00     0.000 C 
BRANCH   8   9
HETATM    9  C   UNK N   1      26.316  27.967  -5.616  0.00  0.00     0.000 C 
BRANCH   9  10
HETATM   10  C   UNK N   1      26.690  27.057  -6.765  0.00  0.00     0.000 C 
BRANCH  10  11
HETATM   11  C   UNK N   1      27.885  27.672  -7.466  0.00  0.00    -0.000 C 
BRANCH  11  12
HETATM   12  C   UNK N   1      28.210  29.029  -6.883  0.00  0.00    -0.005 C 
HETATM   13  C   UNK N   1      29.326  29.657  -7.693  0.00  0.00     0.005 C 
ENDBRANCH  11  12
ENDBRANCH  10  11
ENDBRANCH   9  10
ENDBRANCH   8   9
ENDBRANCH   7   8
ENDBRANCH   6   7
ENDBRANCH   5   6
ENDBRANCH   4   5
ENDBRANCH   3   4
ENDBRANCH   2   3
ENDBRANCH   1   2
BRANCH   1  14
HETATM   14  C   UNK N   1      29.545  25.332  -3.914  0.00  0.00    -0.028 C 
HETATM   15  C   UNK N   1      30.455  24.592  -3.265  0.00  0.00     0.003 C 
BRANCH  15  16
HETATM   16  C   UNK N   1      30.193  23.159  -2.856  0.00  0.00     0.165 C 
BRANCH  16  17
HETATM   17  C   UNK N   1      30.990  22.124  -3.684  0.00  0.00     0.130 C 
BRANCH  17  18
HETATM   18  C   UNK N   1      32.415  22.020  -3.150  0.00  0.00     0.191 C 
BRANCH  18  19
HETATM   19  O   UNK N   1      32.466  21.156  -2.054  0.00  0.00    -0.399 OA
HETATM   20  H   UNK N   1      32.130  20.251  -1.963  0.00  0.00     0.209 HD
ENDBRANCH  18  19
ENDBRANCH  17  18
BRANCH  17  21
HETATM   21  N   UNK N   1      30.375  20.808  -3.620  0.00  0.00    -0.422 N 
HETATM   22  H   UNK N   1      30.535  20.209  -2.809  0.00  0.00     0.150 HD
HETATM   23  H   UNK N   1      29.785  20.483  -4.385  0.00  0.00     0.150 HD
ENDBRANCH  17  21
ENDBRANCH  16  17
BRANCH  16  24
HETATM   24  O   UNK N   1      30.545  23.021  -1.510  0.00  0.00    -0.390 OA
HETATM   25  H   UNK N   1      31.376  22.584  -1.267  0.00  0.00     0.210 HD
ENDBRANCH  16  24
ENDBRANCH  15  16
ENDBRANCH   1  14
TORSDOF 18
ENDMDL
MODEL 3
REMARK VINA RESULT:      -4.4     21.198     25.353
REMARK  18 active torsions:
REMARK  status: ('A' for Active; 'I' for Inactive)
REMARK    1  A    between atoms: C_3  and  C_2 
REMARK    2  A    between atoms: C_4  and  C_3 
REMARK    3  A    between atoms: C_5  and  C_4 
REMARK    4  A    between atoms: C_6  and  C_5 
REMARK    5  A    between atoms: C_7  and  C_6 
REMARK    6  A    between atoms: C_8  and  C_7 
REMARK    7  A    between atoms: C_9  and  C_8 
REMARK    8  A    between atoms: C_10  and  C_9 
REMARK    9  A    between atoms: C_11  and  C_10 
REMARK   10  A    between atoms: C_12  and  C_11 
REMARK   11  A    between atoms: C_13  and  C_12 
REMARK   12  A    between atoms: C_14  and  C_13 
REMARK   13  A    between atoms: C_18  and  C_15 
REMARK   14  A    between atoms: C_17  and  C_16 
REMARK   15  A    between atoms: O_20  and  C_16 
REMARK   16  A    between atoms: C_18  and  C_17 
REMARK   17  A    between atoms: C_17  and  N_19 
REMARK   18  A    between atoms: C_18  and  O_21 
ROOT
HETATM    1  C   UNK N   1      36.048  13.372  16.012  0.00  0.00     0.027 C 
ENDROOT
BRANCH   1   2
HETATM    2  C   UNK N   1      35.179  12.681  17.049  0.00  0.00     0.004 C 
BRANCH   2   3
HETATM    3  C   UNK N   1      35.173  13.495  18.331  0.00  0.00     0.000 C 
BRANCH   3   4
HETATM    4  C   UNK N   1      35.194  12.596  19.554  0.00  0.00     0.000 C 
BRANCH   4   5
HETATM    5  C   UNK N   1      35.631  11.205  19.131  0.00  0.00     0.000 C 
BRANCH   5   6
HETATM    6  C   UNK N   1      34.666  10.145  19.631  0.00  0.00     0.000 C 
BRANCH   6   7
HETATM    7  C   UNK N   1      34.648   8.991  18.649  0.00  0.00     0.000 C 
BRANCH   7   8
HETATM    8  C   UNK N   1      35.826   9.077  17.698  0.00  0.00     0.000 C 
BRANCH   8   9
HETATM    9  C   UNK N   1      35.348   8.614  16.338  0.00  0.00     0.000 C 
BRANCH   9  10
HETATM   10  C   UNK N   1      35.680   9.619  15.258  0.00  0.00     0.000 C 
BRANCH  10  11
HETATM   11  C   UNK N   1      36.843   9.065  14.460  0.00  0.00    -0.000 C 
BRANCH  11  12
HETATM   12  C   UNK N   1      38.150   9.666  14.928  0.00  0.00    -0.005 C 
HETATM   13  C   UNK N   1      38.306  11.042  14.313  0.00  0.00     0.005 C 
ENDBRANCH  11  12
ENDBRANCH  10  11
ENDBRANCH   9  10
ENDBRANCH   8   9
ENDBRANCH   7   8
ENDBRANCH   6   7
ENDBRANCH   5   6
ENDBRANCH   4   5
ENDBRANCH   3   4
ENDBRANCH   2   3
ENDBRANCH   1   2
BRANCH   1  14
HETATM   14  C   UNK N   1      35.411  13.287  14.664  0.00  0.00    -0.028 C 
HETATM   15  C   UNK N   1      35.817  14.090  13.670  0.00  0.00     0.003 C 
BRANCH  15  16
HETATM   16  C   UNK N   1      35.212  14.034  12.284  0.00  0.00     0.165 C 
BRANCH  16  17
HETATM   17  C   UNK N   1      36.251  13.782  11.167  0.00  0.00     0.130 C 
BRANCH  17  18
HETATM   18  C   UNK N   1      36.331  14.998  10.250  0.00  0.00     0.191 C 
BRANCH  18  19
HETATM   19  O   UNK N   1      37.109  16.001  10.831  0.00  0.00    -0.399 OA
HETATM   20  H   UNK N   1      38.073  16.113  10.835  0.00  0.00     0.209 HD
ENDBRANCH  18  19
ENDBRANCH  17  18
BRANCH  17  21
HETATM   21  N   UNK N   1      37.573  13.534  11.720  0.00  0.00    -0.422 N 
HETATM   22  H   UNK N   1      37.669  13.078  12.628  0.00  0.00     0.150 HD
HETATM   23  H   UNK N   1      38.404  13.816  11.201  0.00  0.00     0.150 HD
ENDBRANCH  17  21
ENDBRANCH  16  17
BRANCH  16  24
HETATM   24  O   UNK N   1      34.272  13.000  12.263  0.00  0.00    -0.390 OA
HETATM   25  H   UNK N   1      34.391  12.223  12.831  0.00  0.00     0.210 HD
ENDBRANCH  16  24
ENDBRANCH  15  16
ENDBRANCH   1  14
TORSDOF 18
ENDMDL
MODEL 4
REMARK VINA RESULT:      -4.3      1.531      3.337
REMARK  18 active torsions:
REMARK  status: ('A' for Active; 'I' for Inactive)
REMARK    1  A    between atoms: C_3  and  C_2 
REMARK    2  A    between atoms: C_4  and  C_3 
REMARK    3  A    between atoms: C_5  and  C_4 
REMARK    4  A    between atoms: C_6  and  C_5 
REMARK    5  A    between atoms: C_7  and  C_6 
REMARK    6  A    between atoms: C_8  and  C_7 
REMARK    7  A    between atoms: C_9  and  C_8 
REMARK    8  A    between atoms: C_10  and  C_9 
REMARK    9  A    between atoms: C_11  and  C_10 
REMARK   10  A    between atoms: C_12  and  C_11 
REMARK   11  A    between atoms: C_13  and  C_12 
REMARK   12  A    between atoms: C_14  and  C_13 
REMARK   13  A    between atoms: C_18  and  C_15 
REMARK   14  A    between atoms: C_17  and  C_16 
REMARK   15  A    between atoms: O_20  and  C_16 
REMARK   16  A    between atoms: C_18  and  C_17 
REMARK   17  A    between atoms: C_17  and  N_19 
REMARK   18  A    between atoms: C_18  and  O_21 
ROOT
HETATM    1  C   UNK N   1      27.495  24.340  -3.384  0.00  0.00     0.027 C 
ENDROOT
BRANCH   1   2
HETATM    2  C   UNK N   1      27.323  24.052  -4.866  0.00  0.00     0.004 C 
BRANCH   2   3
HETATM    3  C   UNK N   1      25.930  24.467  -5.305  0.00  0.00     0.000 C 
BRANCH   3   4
HETATM    4  C   UNK N   1      25.946  25.048  -6.707  0.00  0.00     0.000 C 
BRANCH   4   5
HETATM    5  C   UNK N   1      25.778  26.554  -6.616  0.00  0.00     0.000 C 
BRANCH   5   6
HETATM    6  C   UNK N   1      24.789  26.936  -5.529  0.00  0.00     0.000 C 
BRANCH   6   7
HETATM    7  C   UNK N   1      25.389  28.039  -4.680  0.00  0.00     0.000 C 
BRANCH   7   8
HETATM    8  C   UNK N   1      26.882  28.150  -4.920  0.00  0.00     0.000 C 
BRANCH   8   9
HETATM    9  C   UNK N   1      27.571  28.015  -3.580  0.00  0.00     0.000 C 
BRANCH   9  10
HETATM   10  C   UNK N   1      29.063  27.823  -3.734  0.00  0.00     0.000 C 
BRANCH  10  11
HETATM   11  C   UNK N   1      29.302  27.146  -5.069  0.00  0.00    -0.000 C 
BRANCH  11  12
HETATM   12  C   UNK N   1      30.428  26.142  -4.968  0.00  0.00    -0.005 C 
HETATM   13  C   UNK N   1      31.012  26.197  -3.571  0.00  0.00     0.005 C 
ENDBRANCH  11  12
ENDBRANCH  10  11
ENDBRANCH   9  10
ENDBRANCH   8   9
ENDBRANCH   7   8
ENDBRANCH   6   7
ENDBRANCH   5   6
ENDBRANCH   4   5
ENDBRANCH   3   4
ENDBRANCH   2   3
ENDBRANCH   1   2
BRANCH   1  14
HETATM   14  C   UNK N   1      28.564  23.471  -2.809  0.00  0.00    -0.028 C 
HETATM   15  C   UNK N   1      29.372  22.766  -3.615  0.00  0.00     0.003 C 
BRANCH  15  16
HETATM   16  C   UNK N   1      30.478  21.880  -3.082  0.00  0.00     0.165 C 
BRANCH  16  17
HETATM   17  C   UNK N   1      31.442  21.370  -4.177  0.00  0.00     0.130 C 
BRANCH  17  18
HETATM   18  C   UNK N   1      32.810  22.025  -4.008  0.00  0.00     0.191 C 
BRANCH  18  19
HETATM   19  O   UNK N   1      32.822  23.294  -4.591  0.00  0.00    -0.399 OA
HETATM   20  H   UNK N   1      32.131  23.748  -5.098  0.00  0.00     0.209 HD
ENDBRANCH  18  19
ENDBRANCH  17  18
BRANCH  17  21
HETATM   21  N   UNK N   1      31.609  19.928  -4.105  0.00  0.00    -0.422 N 
HETATM   22  H   UNK N   1      31.098  19.389  -3.406  0.00  0.00     0.150 HD
HETATM   23  H   UNK N   1      32.237  19.454  -4.754  0.00  0.00     0.150 HD
ENDBRANCH  17  21
ENDBRANCH  16  17
BRANCH  16  24
HETATM   24  O   UNK N   1      31.211  22.618  -2.147  0.00  0.00    -0.390 OA
HETATM   25  H   UNK N   1      30.989  22.564  -1.204  0.00  0.00     0.210 HD
ENDBRANCH  16  24
ENDBRANCH  15  16
ENDBRANCH   1  14
TORSDOF 18
ENDMDL
MODEL 5
REMARK VINA RESULT:      -4.3      1.604      3.959
REMARK  18 active torsions:
REMARK  status: ('A' for Active; 'I' for Inactive)
REMARK    1  A    between atoms: C_3  and  C_2 
REMARK    2  A    between atoms: C_4  and  C_3 
REMARK    3  A    between atoms: C_5  and  C_4 
REMARK    4  A    between atoms: C_6  and  C_5 
REMARK    5  A    between atoms: C_7  and  C_6 
REMARK    6  A    between atoms: C_8  and  C_7 
REMARK    7  A    between atoms: C_9  and  C_8 
REMARK    8  A    between atoms: C_10  and  C_9 
REMARK    9  A    between atoms: C_11  and  C_10 
REMARK   10  A    between atoms: C_12  and  C_11 
REMARK   11  A    between atoms: C_13  and  C_12 
REMARK   12  A    between atoms: C_14  and  C_13 
REMARK   13  A    between atoms: C_18  and  C_15 
REMARK   14  A    between atoms: C_17  and  C_16 
REMARK   15  A    between atoms: O_20  and  C_16 
REMARK   16  A    between atoms: C_18  and  C_17 
REMARK   17  A    between atoms: C_17  and  N_19 
REMARK   18  A    between atoms: C_18  and  O_21 
ROOT
HETATM    1  C   UNK N   1      26.843  25.027  -3.674  0.00  0.00     0.027 C 
ENDROOT
BRANCH   1   2
HETATM    2  C   UNK N   1      26.432  24.704  -5.100  0.00  0.00     0.004 C 
BRANCH   2   3
HETATM    3  C   UNK N   1      25.329  25.653  -5.537  0.00  0.00     0.000 C 
BRANCH   3   4
HETATM    4  C   UNK N   1      25.847  26.677  -6.532  0.00  0.00     0.000 C 
BRANCH   4   5
HETATM    5  C   UNK N   1      26.407  27.863  -5.768  0.00  0.00     0.000 C 
BRANCH   5   6
HETATM    6  C   UNK N   1      27.552  28.517  -6.520  0.00  0.00     0.000 C 
BRANCH   6   7
HETATM    7  C   UNK N   1      28.609  27.472  -6.817  0.00  0.00     0.000 C 
BRANCH   7   8
HETATM    8  C   UNK N   1      29.262  26.990  -5.536  0.00  0.00     0.000 C 
BRANCH   8   9
HETATM    9  C   UNK N   1      29.849  28.198  -4.840  0.00  0.00     0.000 C 
BRANCH   9  10
HETATM   10  C   UNK N   1      29.500  28.221  -3.369  0.00  0.00     0.000 C 
BRANCH  10  11
HETATM   11  C   UNK N   1      28.991  29.610  -3.041  0.00  0.00    -0.000 C 
BRANCH  11  12
HETATM   12  C   UNK N   1      27.555  29.559  -2.568  0.00  0.00    -0.005 C 
HETATM   13  C   UNK N   1      26.734  30.534  -3.386  0.00  0.00     0.005 C 
ENDBRANCH  11  12
ENDBRANCH  10  11
ENDBRANCH   9  10
ENDBRANCH   8   9
ENDBRANCH   7   8
ENDBRANCH   6   7
ENDBRANCH   5   6
ENDBRANCH   4   5
ENDBRANCH   3   4
ENDBRANCH   2   3
ENDBRANCH   1   2
BRANCH   1  14
HETATM   14  C   UNK N   1      27.565  23.868  -3.070  0.00  0.00    -0.028 C 
HETATM   15  C   UNK N   1      28.894  23.749  -3.210  0.00  0.00     0.003 C 
BRANCH  15  16
HETATM   16  C   UNK N   1      29.673  22.600  -2.606  0.00  0.00     0.165 C 
BRANCH  16  17
HETATM   17  C   UNK N   1      30.690  21.964  -3.582  0.00  0.00     0.130 C 
BRANCH  17  18
HETATM   18  C   UNK N   1      32.111  22.247  -3.106  0.00  0.00     0.191 C 
BRANCH  18  19
HETATM   19  O   UNK N   1      32.492  21.328  -2.126  0.00  0.00    -0.399 OA
HETATM   20  H   UNK N   1      32.112  20.463  -1.907  0.00  0.00     0.209 HD
ENDBRANCH  18  19
ENDBRANCH  17  18
BRANCH  17  21
HETATM   21  N   UNK N   1      30.510  20.524  -3.669  0.00  0.00    -0.422 N 
HETATM   22  H   UNK N   1      30.195  19.999  -2.853  0.00  0.00     0.150 HD
HETATM   23  H   UNK N   1      30.700  20.038  -4.545  0.00  0.00     0.150 HD
ENDBRANCH  17  21
ENDBRANCH  16  17
BRANCH  16  24
HETATM   24  O   UNK N   1      30.364  23.084  -1.491  0.00  0.00    -0.390 OA
HETATM   25  H   UNK N   1      30.392  22.563  -0.673  0.00  0.00     0.210 HD
ENDBRANCH  16  24
ENDBRANCH  15  16
ENDBRANCH   1  14
TORSDOF 18
ENDMDL
MODEL 6
REMARK VINA RESULT:      -4.3      1.750      3.115
REMARK  18 active torsions:
REMARK  status: ('A' for Active; 'I' for Inactive)
REMARK    1  A    between atoms: C_3  and  C_2 
REMARK    2  A    between atoms: C_4  and  C_3 
REMARK    3  A    between atoms: C_5  and  C_4 
REMARK    4  A    between atoms: C_6  and  C_5 
REMARK    5  A    between atoms: C_7  and  C_6 
REMARK    6  A    between atoms: C_8  and  C_7 
REMARK    7  A    between atoms: C_9  and  C_8 
REMARK    8  A    between atoms: C_10  and  C_9 
REMARK    9  A    between atoms: C_11  and  C_10 
REMARK   10  A    between atoms: C_12  and  C_11 
REMARK   11  A    between atoms: C_13  and  C_12 
REMARK   12  A    between atoms: C_14  and  C_13 
REMARK   13  A    between atoms: C_18  and  C_15 
REMARK   14  A    between atoms: C_17  and  C_16 
REMARK   15  A    between atoms: O_20  and  C_16 
REMARK   16  A    between atoms: C_18  and  C_17 
REMARK   17  A    between atoms: C_17  and  N_19 
REMARK   18  A    between atoms: C_18  and  O_21 
ROOT
HETATM    1  C   UNK N   1      26.767  25.178  -3.778  0.00  0.00     0.027 C 
ENDROOT
BRANCH   1   2
HETATM    2  C   UNK N   1      25.746  24.834  -4.849  0.00  0.00     0.004 C 
BRANCH   2   3
HETATM    3  C   UNK N   1      25.229  26.112  -5.486  0.00  0.00     0.000 C 
BRANCH   3   4
HETATM    4  C   UNK N   1      25.879  26.356  -6.836  0.00  0.00     0.000 C 
BRANCH   4   5
HETATM    5  C   UNK N   1      26.955  27.415  -6.677  0.00  0.00     0.000 C 
BRANCH   5   6
HETATM    6  C   UNK N   1      28.310  26.902  -7.133  0.00  0.00     0.000 C 
BRANCH   6   7
HETATM    7  C   UNK N   1      28.226  25.404  -7.342  0.00  0.00     0.000 C 
BRANCH   7   8
HETATM    8  C   UNK N   1      29.485  24.720  -6.846  0.00  0.00     0.000 C 
BRANCH   8   9
HETATM    9  C   UNK N   1      29.343  23.241  -7.129  0.00  0.00     0.000 C 
BRANCH   9  10
HETATM   10  C   UNK N   1      28.065  22.679  -6.548  0.00  0.00     0.000 C 
BRANCH  10  11
HETATM   11  C   UNK N   1      27.366  21.901  -7.644  0.00  0.00    -0.000 C 
BRANCH  11  12
HETATM   12  C   UNK N   1      25.865  22.050  -7.536  0.00  0.00    -0.005 C 
HETATM   13  C   UNK N   1      25.404  23.105  -8.522  0.00  0.00     0.005 C 
ENDBRANCH  11  12
ENDBRANCH  10  11
ENDBRANCH   9  10
ENDBRANCH   8   9
ENDBRANCH   7   8
ENDBRANCH   6   7
ENDBRANCH   5   6
ENDBRANCH   4   5
ENDBRANCH   3   4
ENDBRANCH   2   3
ENDBRANCH   1   2
BRANCH   1  14
HETATM   14  C   UNK N   1      27.486  23.947  -3.336  0.00  0.00    -0.028 C 
HETATM   15  C   UNK N   1      28.807  23.978  -3.105  0.00  0.00     0.003 C 
BRANCH  15  16
HETATM   16  C   UNK N   1      29.580  22.761  -2.644  0.00  0.00     0.165 C 
BRANCH  16  17
HETATM   17  C   UNK N   1      30.576  22.227  -3.698  0.00  0.00     0.130 C 
BRANCH  17  18
HETATM   18  C   UNK N   1      32.001  22.333  -3.164  0.00  0.00     0.191 C 
BRANCH  18  19
HETATM   19  O   UNK N   1      32.230  21.366  -2.183  0.00  0.00    -0.399 OA
HETATM   20  H   UNK N   1      31.605  20.766  -1.747  0.00  0.00     0.209 HD
ENDBRANCH  18  19
ENDBRANCH  17  18
BRANCH  17  21
HETATM   21  N   UNK N   1      30.307  20.836  -4.023  0.00  0.00    -0.422 N 
HETATM   22  H   UNK N   1      29.638  20.302  -3.468  0.00  0.00     0.150 HD
HETATM   23  H   UNK N   1      30.788  20.392  -4.806  0.00  0.00     0.150 HD
ENDBRANCH  17  21
ENDBRANCH  16  17
BRANCH  16  24
HETATM   24  O   UNK N   1      30.290  23.110  -1.492  0.00  0.00    -0.390 OA
HETATM   25  H   UNK N   1      30.932  22.491  -1.110  0.00  0.00     0.210 HD
ENDBRANCH  16  24
ENDBRANCH  15  16
ENDBRANCH   1  14
TORSDOF 18
ENDMDL
MODEL 7
REMARK VINA RESULT:      -4.2     21.145     25.304
REMARK  18 active torsions:
REMARK  status: ('A' for Active; 'I' for Inactive)
REMARK    1  A    between atoms: C_3  and  C_2 
REMARK    2  A    between atoms: C_4  and  C_3 
REMARK    3  A    between atoms: C_5  and  C_4 
REMARK    4  A    between atoms: C_6  and  C_5 
REMARK    5  A    between atoms: C_7  and  C_6 
REMARK    6  A    between atoms: C_8  and  C_7 
REMARK    7  A    between atoms: C_9  and  C_8 
REMARK    8  A    between atoms: C_10  and  C_9 
REMARK    9  A    between atoms: C_11  and  C_10 
REMARK   10  A    between atoms: C_12  and  C_11 
REMARK   11  A    between atoms: C_13  and  C_12 
REMARK   12  A    between atoms: C_14  and  C_13 
REMARK   13  A    between atoms: C_18  and  C_15 
REMARK   14  A    between atoms: C_17  and  C_16 
REMARK   15  A    between atoms: O_20  and  C_16 
REMARK   16  A    between atoms: C_18  and  C_17 
REMARK   17  A    between atoms: C_17  and  N_19 
REMARK   18  A    between atoms: C_18  and  O_21 
ROOT
HETATM    1  C   UNK N   1      34.945  12.877  16.975  0.00  0.00     0.027 C 
ENDROOT
BRANCH   1   2
HETATM    2  C   UNK N   1      35.171  13.569  18.307  0.00  0.00     0.004 C 
BRANCH   2   3
HETATM    3  C   UNK N   1      35.362  12.527  19.395  0.00  0.00     0.000 C 
BRANCH   3   4
HETATM    4  C   UNK N   1      35.236  11.120  18.837  0.00  0.00     0.000 C 
BRANCH   4   5
HETATM    5  C   UNK N   1      36.506  10.352  19.155  0.00  0.00     0.000 C 
BRANCH   5   6
HETATM    6  C   UNK N   1      36.716   9.203  18.186  0.00  0.00     0.000 C 
BRANCH   6   7
HETATM    7  C   UNK N   1      36.511   9.705  16.771  0.00  0.00     0.000 C 
BRANCH   7   8
HETATM    8  C   UNK N   1      35.387   8.950  16.090  0.00  0.00     0.000 C 
BRANCH   8   9
HETATM    9  C   UNK N   1      35.031   9.704  14.827  0.00  0.00     0.000 C 
BRANCH   9  10
HETATM   10  C   UNK N   1      36.245   9.943  13.957  0.00  0.00     0.000 C 
BRANCH  10  11
HETATM   11  C   UNK N   1      36.451   8.705  13.108  0.00  0.00    -0.000 C 
BRANCH  11  12
HETATM   12  C   UNK N   1      35.169   8.318  12.404  0.00  0.00    -0.005 C 
HETATM   13  C   UNK N   1      35.088   6.807  12.328  0.00  0.00     0.005 C 
ENDBRANCH  11  12
ENDBRANCH  10  11
ENDBRANCH   9  10
ENDBRANCH   8   9
ENDBRANCH   7   8
ENDBRANCH   6   7
ENDBRANCH   5   6
ENDBRANCH   4   5
ENDBRANCH   3   4
ENDBRANCH   2   3
ENDBRANCH   1   2
BRANCH   1  14
HETATM   14  C   UNK N   1      35.818  13.479  15.924  0.00  0.00    -0.028 C 
HETATM   15  C   UNK N   1      35.466  13.419  14.632  0.00  0.00     0.003 C 
BRANCH  15  16
HETATM   16  C   UNK N   1      36.310  14.025  13.531  0.00  0.00     0.165 C 
BRANCH  16  17
HETATM   17  C   UNK N   1      35.503  14.392  12.265  0.00  0.00     0.130 C 
BRANCH  17  18
HETATM   18  C   UNK N   1      36.454  14.640  11.099  0.00  0.00     0.191 C 
BRANCH  18  19
HETATM   19  O   UNK N   1      36.883  15.969  11.089  0.00  0.00    -0.399 OA
HETATM   20  H   UNK N   1      37.036  16.576  11.830  0.00  0.00     0.209 HD
ENDBRANCH  18  19
ENDBRANCH  17  18
BRANCH  17  21
HETATM   21  N   UNK N   1      34.585  13.327  11.895  0.00  0.00    -0.422 N 
HETATM   22  H   UNK N   1      34.675  12.404  12.322  0.00  0.00     0.150 HD
HETATM   23  H   UNK N   1      33.852  13.501  11.208  0.00  0.00     0.150 HD
ENDBRANCH  17  21
ENDBRANCH  16  17
BRANCH  16  24
HETATM   24  O   UNK N   1      36.909  15.185  14.033  0.00  0.00    -0.390 OA
HETATM   25  H   UNK N   1      36.744  15.459  14.949  0.00  0.00     0.210 HD
ENDBRANCH  16  24
ENDBRANCH  15  16
ENDBRANCH   1  14
TORSDOF 18
ENDMDL
MODEL 8
REMARK VINA RESULT:      -4.2      1.651      2.373
REMARK  18 active torsions:
REMARK  status: ('A' for Active; 'I' for Inactive)
REMARK    1  A    between atoms: C_3  and  C_2 
REMARK    2  A    between atoms: C_4  and  C_3 
REMARK    3  A    between atoms: C_5  and  C_4 
REMARK    4  A    between atoms: C_6  and  C_5 
REMARK    5  A    between atoms: C_7  and  C_6 
REMARK    6  A    between atoms: C_8  and  C_7 
REMARK    7  A    between atoms: C_9  and  C_8 
REMARK    8  A    between atoms: C_10  and  C_9 
REMARK    9  A    between atoms: C_11  and  C_10 
REMARK   10  A    between atoms: C_12  and  C_11 
REMARK   11  A    between atoms: C_13  and  C_12 
REMARK   12  A    between atoms: C_14  and  C_13 
REMARK   13  A    between atoms: C_18  and  C_15 
REMARK   14  A    between atoms: C_17  and  C_16 
REMARK   15  A    between atoms: O_20  and  C_16 
REMARK   16  A    between atoms: C_18  and  C_17 
REMARK   17  A    between atoms: C_17  and  N_19 
REMARK   18  A    between atoms: C_18  and  O_21 
ROOT
HETATM    1  C   UNK N   1      30.880  25.923  -4.400  0.00  0.00     0.027 C 
ENDROOT
BRANCH   1   2
HETATM    2  C   UNK N   1      30.258  27.141  -3.738  0.00  0.00     0.004 C 
BRANCH   2   3
HETATM    3  C   UNK N   1      30.267  28.307  -4.711  0.00  0.00     0.000 C 
BRANCH   3   4
HETATM    4  C   UNK N   1      29.269  29.374  -4.300  0.00  0.00     0.000 C 
BRANCH   4   5
HETATM    5  C   UNK N   1      28.627  28.965  -2.987  0.00  0.00     0.000 C 
BRANCH   5   6
HETATM    6  C   UNK N   1      27.285  29.646  -2.789  0.00  0.00     0.000 C 
BRANCH   6   7
HETATM    7  C   UNK N   1      26.475  29.521  -4.064  0.00  0.00     0.000 C 
BRANCH   7   8
HETATM    8  C   UNK N   1      25.657  28.245  -4.059  0.00  0.00     0.000 C 
BRANCH   8   9
HETATM    9  C   UNK N   1      25.920  27.529  -5.366  0.00  0.00     0.000 C 
BRANCH   9  10
HETATM   10  C   UNK N   1      26.944  26.428  -5.206  0.00  0.00     0.000 C 
BRANCH  10  11
HETATM   11  C   UNK N   1      26.711  25.779  -3.857  0.00  0.00    -0.000 C 
BRANCH  11  12
HETATM   12  C   UNK N   1      26.317  24.328  -4.020  0.00  0.00    -0.005 C 
HETATM   13  C   UNK N   1      26.663  23.880  -5.425  0.00  0.00     0.005 C 
ENDBRANCH  11  12
ENDBRANCH  10  11
ENDBRANCH   9  10
ENDBRANCH   8   9
ENDBRANCH   7   8
ENDBRANCH   6   7
ENDBRANCH   5   6
ENDBRANCH   4   5
ENDBRANCH   3   4
ENDBRANCH   2   3
ENDBRANCH   1   2
BRANCH   1  14
HETATM   14  C   UNK N   1      30.863  24.761  -3.463  0.00  0.00    -0.028 C 
HETATM   15  C   UNK N   1      29.923  23.812  -3.575  0.00  0.00     0.003 C 
BRANCH  15  16
HETATM   16  C   UNK N   1      29.871  22.608  -2.659  0.00  0.00     0.165 C 
BRANCH  16  17
HETATM   17  C   UNK N   1      30.473  21.329  -3.284  0.00  0.00     0.130 C 
BRANCH  17  18
HETATM   18  C   UNK N   1      30.317  21.372  -4.801  0.00  0.00     0.191 C 
BRANCH  18  19
HETATM   19  O   UNK N   1      31.285  20.575  -5.416  0.00  0.00    -0.399 OA
HETATM   20  H   UNK N   1      31.788  19.826  -5.059  0.00  0.00     0.209 HD
ENDBRANCH  18  19
ENDBRANCH  17  18
BRANCH  17  21
HETATM   21  N   UNK N   1      31.887  21.201  -2.968  0.00  0.00    -0.422 N 
HETATM   22  H   UNK N   1      32.213  20.426  -2.390  0.00  0.00     0.150 HD
HETATM   23  H   UNK N   1      32.553  21.887  -3.324  0.00  0.00     0.150 HD
ENDBRANCH  17  21
ENDBRANCH  16  17
BRANCH  16  24
HETATM   24  O   UNK N   1      30.584  22.918  -1.496  0.00  0.00    -0.390 OA
HETATM   25  H   UNK N   1      31.296  22.334  -1.193  0.00  0.00     0.210 HD
ENDBRANCH  16  24
ENDBRANCH  15  16
ENDBRANCH   1  14
TORSDOF 18
ENDMDL
MODEL 9
REMARK VINA RESULT:      -4.2     10.545     12.761
REMARK  18 active torsions:
REMARK  status: ('A' for Active; 'I' for Inactive)
REMARK    1  A    between atoms: C_3  and  C_2 
REMARK    2  A    between atoms: C_4  and  C_3 
REMARK    3  A    between atoms: C_5  and  C_4 
REMARK    4  A    between atoms: C_6  and  C_5 
REMARK    5  A    between atoms: C_7  and  C_6 
REMARK    6  A    between atoms: C_8  and  C_7 
REMARK    7  A    between atoms: C_9  and  C_8 
REMARK    8  A    between atoms: C_10  and  C_9 
REMARK    9  A    between atoms: C_11  and  C_10 
REMARK   10  A    between atoms: C_12  and  C_11 
REMARK   11  A    between atoms: C_13  and  C_12 
REMARK   12  A    between atoms: C_14  and  C_13 
REMARK   13  A    between atoms: C_18  and  C_15 
REMARK   14  A    between atoms: C_17  and  C_16 
REMARK   15  A    between atoms: O_20  and  C_16 
REMARK   16  A    between atoms: C_18  and  C_17 
REMARK   17  A    between atoms: C_17  and  N_19 
REMARK   18  A    between atoms: C_18  and  O_21 
ROOT
HETATM    1  C   UNK N   1      24.635  18.797   4.075  0.00  0.00     0.027 C 
ENDROOT
BRANCH   1   2
HETATM    2  C   UNK N   1      25.046  19.873   3.084  0.00  0.00     0.004 C 
BRANCH   2   3
HETATM    3  C   UNK N   1      26.427  20.393   3.443  0.00  0.00     0.000 C 
BRANCH   3   4
HETATM    4  C   UNK N   1      26.495  20.815   4.900  0.00  0.00     0.000 C 
BRANCH   4   5
HETATM    5  C   UNK N   1      27.836  20.392   5.470  0.00  0.00     0.000 C 
BRANCH   5   6
HETATM    6  C   UNK N   1      28.266  19.040   4.931  0.00  0.00     0.000 C 
BRANCH   6   7
HETATM    7  C   UNK N   1      27.855  17.963   5.914  0.00  0.00     0.000 C 
BRANCH   7   8
HETATM    8  C   UNK N   1      27.813  16.606   5.238  0.00  0.00     0.000 C 
BRANCH   8   9
HETATM    9  C   UNK N   1      27.941  16.835   3.748  0.00  0.00     0.000 C 
BRANCH   9  10
HETATM   10  C   UNK N   1      26.728  16.332   2.998  0.00  0.00     0.000 C 
BRANCH  10  11
HETATM   11  C   UNK N   1      27.172  15.166   2.138  0.00  0.00    -0.000 C 
BRANCH  11  12
HETATM   12  C   UNK N   1      26.025  14.211   1.893  0.00  0.00    -0.005 C 
HETATM   13  C   UNK N   1      24.721  14.926   2.182  0.00  0.00     0.005 C 
ENDBRANCH  11  12
ENDBRANCH  10  11
ENDBRANCH   9  10
ENDBRANCH   8   9
ENDBRANCH   7   8
ENDBRANCH   6   7
ENDBRANCH   5   6
ENDBRANCH   4   5
ENDBRANCH   3   4
ENDBRANCH   2   3
ENDBRANCH   1   2
BRANCH   1  14
HETATM   14  C   UNK N   1      23.147  18.693   4.137  0.00  0.00    -0.028 C 
HETATM   15  C   UNK N   1      22.377  19.528   3.424  0.00  0.00     0.003 C 
BRANCH  15  16
HETATM   16  C   UNK N   1      20.866  19.454   3.443  0.00  0.00     0.165 C 
BRANCH  16  17
HETATM   17  C   UNK N   1      20.222  19.612   2.046  0.00  0.00     0.130 C 
BRANCH  17  18
HETATM   18  C   UNK N   1      21.136  20.438   1.146  0.00  0.00     0.191 C 
BRANCH  18  19
HETATM   19  O   UNK N   1      20.513  20.699  -0.077  0.00  0.00    -0.399 OA
HETATM   20  H   UNK N   1      20.896  20.764  -0.965  0.00  0.00     0.209 HD
ENDBRANCH  18  19
ENDBRANCH  17  18
BRANCH  17  21
HETATM   21  N   UNK N   1      19.999  18.321   1.418  0.00  0.00    -0.422 N 
HETATM   22  H   UNK N   1      19.968  17.474   1.987  0.00  0.00     0.150 HD
HETATM   23  H   UNK N   1      19.873  18.260   0.408  0.00  0.00     0.150 HD
ENDBRANCH  17  21
ENDBRANCH  16  17
BRANCH  16  24
HETATM   24  O   UNK N   1      20.499  18.211   3.968  0.00  0.00    -0.390 OA
HETATM   25  H   UNK N   1      20.848  17.924   4.826  0.00  0.00     0.210 HD
ENDBRANCH  16  24
ENDBRANCH  15  16
ENDBRANCH   1  14
TORSDOF 18
ENDMDL
