MODEL 1
REMARK VINA RESULT:      -4.0      0.000      0.000
REMARK  5 active torsions:
REMARK  status: ('A' for Active; 'I' for Inactive)
REMARK    1  A    between atoms: C_2  and  N_1 
REMARK    2  A    between atoms: C_2  and  C_3 
REMARK    3  A    between atoms: C_2  and  C_5 
REMARK    4  A    between atoms: C_3  and  N_4 
REMARK    5  A    between atoms: C_5  and  O_6 
ROOT
HETATM    1  C   UNK N   1      20.593  20.009   1.615  0.00  0.00     0.199 C 
ENDROOT
BRANCH   1   2
HETATM    2  N   UNK N   1      20.566  20.748   0.367  0.00  0.00    -0.416 N 
HETATM    3  H   UNK N   1      21.383  21.285   0.075  0.00  0.00     0.150 HD
HETATM    4  H   UNK N   1      19.732  20.731  -0.218  0.00  0.00     0.150 HD
ENDBRANCH   1   2
BRANCH   1   5
HETATM    5  C   UNK N   1      20.238  18.522   1.513  0.00  0.00     0.264 C 
BRANCH   5   6
HETATM    6  N   UNK N   1      19.044  18.178   2.265  0.00  0.00    -0.077 N 
HETATM    7  H   UNK N   1      18.706  17.217   2.274  0.00  0.00     0.274 HD
HETATM    8  H   UNK N   1      18.544  18.900   2.784  0.00  0.00     0.274 HD
HETATM    9  H   UNK N   1      18.205  17.937   2.793  0.00  0.00     0.274 HD
ENDBRANCH   5   6
ENDBRANCH   1   5
BRANCH   1  10
HETATM   10  C   UNK N   1      20.965  20.787   2.853  0.00  0.00     0.164 C 
HETATM   11  O   UNK N   1      20.412  20.579   3.914  0.00  0.00    -0.648 OA
BRANCH  10  12
HETATM   12  O   UNK N   1      21.929  21.730   2.777  0.00  0.00    -0.775 OA
HETATM   13  H   UNK N   1      22.174  22.083   1.944  0.00  0.00     0.167 HD
ENDBRANCH  10  12
ENDBRANCH   1  10
TORSDOF 5
ENDMDL
MODEL 2
REMARK VINA RESULT:      -4.0     15.350     15.692
REMARK  5 active torsions:
REMARK  status: ('A' for Active; 'I' for Inactive)
REMARK    1  A    between atoms: C_2  and  N_1 
REMARK    2  A    between atoms: C_2  and  C_3 
REMARK    3  A    between atoms: C_2  and  C_5 
REMARK    4  A    between atoms: C_3  and  N_4 
REMARK    5  A    between atoms: C_5  and  O_6 
ROOT
HETATM    1  C   UNK N   1      33.848  17.262   8.915  0.00  0.00     0.199 C 
ENDROOT
BRANCH   1   2
HETATM    2  N   UNK N   1      32.399  17.214   8.855  0.00  0.00    -0.416 N 
HETATM    3  H   UNK N   1      31.869  16.847   9.646  0.00  0.00     0.150 HD
HETATM    4  H   UNK N   1      31.911  17.547   8.024  0.00  0.00     0.150 HD
ENDBRANCH   1   2
BRANCH   1   5
HETATM    5  C   UNK N   1      34.503  16.293   9.905  0.00  0.00     0.264 C 
BRANCH   5   6
HETATM    6  N   UNK N   1      35.225  16.977  10.964  0.00  0.00    -0.077 N 
HETATM    7  H   UNK N   1      36.180  16.703  11.189  0.00  0.00     0.274 HD
HETATM    8  H   UNK N   1      34.774  17.732  11.482  0.00  0.00     0.274 HD
HETATM    9  H   UNK N   1      35.731  17.458  11.707  0.00  0.00     0.274 HD
ENDBRANCH   5   6
ENDBRANCH   1   5
BRANCH   1  10
HETATM   10  C   UNK N   1      34.529  18.250   8.002  0.00  0.00     0.164 C 
HETATM   11  O   UNK N   1      34.400  18.184   6.797  0.00  0.00    -0.648 OA
BRANCH  10  12
HETATM   12  O   UNK N   1      35.296  19.225   8.538  0.00  0.00    -0.775 OA
HETATM   13  H   UNK N   1      36.230  19.149   8.520  0.00  0.00     0.167 HD
ENDBRANCH  10  12
ENDBRANCH   1  10
TORSDOF 5
ENDMDL
MODEL 3
REMARK VINA RESULT:      -3.8     15.469     15.774
REMARK  5 active torsions:
REMARK  status: ('A' for Active; 'I' for Inactive)
REMARK    1  A    between atoms: C_2  and  N_1 
REMARK    2  A    between atoms: C_2  and  C_3 
REMARK    3  A    between atoms: C_2  and  C_5 
REMARK    4  A    between atoms: C_3  and  N_4 
REMARK    5  A    between atoms: C_5  and  O_6 
ROOT
HETATM    1  C   UNK N   1      34.370  17.065   9.212  0.00  0.00     0.199 C 
ENDROOT
BRANCH   1   2
HETATM    2  N   UNK N   1      34.988  17.199  10.517  0.00  0.00    -0.416 N 
HETATM    3  H   UNK N   1      35.101  18.123  10.935  0.00  0.00     0.150 HD
HETATM    4  H   UNK N   1      35.309  16.371  11.019  0.00  0.00     0.150 HD
ENDBRANCH   1   2
BRANCH   1   5
HETATM    5  C   UNK N   1      33.477  15.834   9.024  0.00  0.00     0.264 C 
BRANCH   5   6
HETATM    6  N   UNK N   1      33.044  15.258  10.285  0.00  0.00    -0.077 N 
HETATM    7  H   UNK N   1      33.417  15.616  11.164  0.00  0.00     0.274 HD
HETATM    8  H   UNK N   1      32.367  14.495  10.291  0.00  0.00     0.274 HD
HETATM    9  H   UNK N   1      32.740  14.853  11.171  0.00  0.00     0.274 HD
ENDBRANCH   5   6
ENDBRANCH   1   5
BRANCH   1  10
HETATM   10  C   UNK N   1      34.679  18.143   8.204  0.00  0.00     0.164 C 
HETATM   11  O   UNK N   1      34.351  18.028   7.041  0.00  0.00    -0.648 OA
BRANCH  10  12
HETATM   12  O   UNK N   1      35.333  19.255   8.606  0.00  0.00    -0.775 OA
HETATM   13  H   UNK N   1      35.053  20.098   8.305  0.00  0.00     0.167 HD
ENDBRANCH  10  12
ENDBRANCH   1  10
TORSDOF 5
ENDMDL
MODEL 4
REMARK VINA RESULT:      -3.6      2.183      2.672
REMARK  5 active torsions:
REMARK  status: ('A' for Active; 'I' for Inactive)
REMARK    1  A    between atoms: C_2  and  N_1 
REMARK    2  A    between atoms: C_2  and  C_3 
REMARK    3  A    between atoms: C_2  and  C_5 
REMARK    4  A    between atoms: C_3  and  N_4 
REMARK    5  A    between atoms: C_5  and  O_6 
ROOT
HETATM    1  C   UNK N   1      20.289  19.132   2.350  0.00  0.00     0.199 C 
ENDROOT
BRANCH   1   2
HETATM    2  N   UNK N   1      18.887  18.770   2.277  0.00  0.00    -0.416 N 
HETATM    3  H   UNK N   1      18.367  18.917   1.411  0.00  0.00     0.150 HD
HETATM    4  H   UNK N   1      18.420  18.368   3.090  0.00  0.00     0.150 HD
ENDBRANCH   1   2
BRANCH   1   5
HETATM    5  C   UNK N   1      21.117  18.372   3.392  0.00  0.00     0.264 C 
BRANCH   5   6
HETATM    6  N   UNK N   1      22.322  19.084   3.779  0.00  0.00    -0.077 N 
HETATM    7  H   UNK N   1      22.276  20.076   4.008  0.00  0.00     0.274 HD
HETATM    8  H   UNK N   1      23.213  18.591   3.822  0.00  0.00     0.274 HD
HETATM    9  H   UNK N   1      23.168  19.584   4.051  0.00  0.00     0.274 HD
ENDBRANCH   5   6
ENDBRANCH   1   5
BRANCH   1  10
HETATM   10  C   UNK N   1      20.760  20.204   1.400  0.00  0.00     0.164 C 
HETATM   11  O   UNK N   1      21.249  21.237   1.812  0.00  0.00    -0.648 OA
BRANCH  10  12
HETATM   12  O   UNK N   1      20.635  20.010   0.069  0.00  0.00    -0.775 OA
HETATM   13  H   UNK N   1      21.011  20.624  -0.531  0.00  0.00     0.167 HD
ENDBRANCH  10  12
ENDBRANCH   1  10
TORSDOF 5
ENDMDL
MODEL 5
REMARK VINA RESULT:      -3.5     17.882     18.206
REMARK  5 active torsions:
REMARK  status: ('A' for Active; 'I' for Inactive)
REMARK    1  A    between atoms: C_2  and  N_1 
REMARK    2  A    between atoms: C_2  and  C_3 
REMARK    3  A    between atoms: C_2  and  C_5 
REMARK    4  A    between atoms: C_3  and  N_4 
REMARK    5  A    between atoms: C_5  and  O_6 
ROOT
HETATM    1  C   UNK N   1      34.823  15.071  11.349  0.00  0.00     0.199 C 
ENDROOT
BRANCH   1   2
HETATM    2  N   UNK N   1      33.466  15.009  10.840  0.00  0.00    -0.416 N 
HETATM    3  H   UNK N   1      33.298  14.770   9.863  0.00  0.00     0.150 HD
HETATM    4  H   UNK N   1      32.679  15.206  11.459  0.00  0.00     0.150 HD
ENDBRANCH   1   2
BRANCH   1   5
HETATM    5  C   UNK N   1      35.224  13.941  12.304  0.00  0.00     0.264 C 
BRANCH   5   6
HETATM    6  N   UNK N   1      36.148  14.381  13.334  0.00  0.00    -0.077 N 
HETATM    7  H   UNK N   1      36.436  13.737  14.069  0.00  0.00     0.274 HD
HETATM    8  H   UNK N   1      36.508  15.335  13.322  0.00  0.00     0.274 HD
HETATM    9  H   UNK N   1      36.797  14.691  14.058  0.00  0.00     0.274 HD
ENDBRANCH   5   6
ENDBRANCH   1   5
BRANCH   1  10
HETATM   10  C   UNK N   1      35.668  16.228  10.880  0.00  0.00     0.164 C 
HETATM   11  O   UNK N   1      35.160  17.271  10.521  0.00  0.00    -0.648 OA
BRANCH  10  12
HETATM   12  O   UNK N   1      37.012  16.100  10.861  0.00  0.00    -0.775 OA
HETATM   13  H   UNK N   1      37.499  16.142  11.661  0.00  0.00     0.167 HD
ENDBRANCH  10  12
ENDBRANCH   1  10
TORSDOF 5
ENDMDL
MODEL 6
REMARK VINA RESULT:      -3.5     11.810     12.535
REMARK  5 active torsions:
REMARK  status: ('A' for Active; 'I' for Inactive)
REMARK    1  A    between atoms: C_2  and  N_1 
REMARK    2  A    between atoms: C_2  and  C_3 
REMARK    3  A    between atoms: C_2  and  C_5 
REMARK    4  A    between atoms: C_3  and  N_4 
REMARK    5  A    between atoms: C_5  and  O_6 
ROOT
HETATM    1  C   UNK N   1      22.582  12.004  11.230  0.00  0.00     0.199 C 
ENDROOT
BRANCH   1   2
HETATM    2  N   UNK N   1      21.269  11.803  11.811  0.00  0.00    -0.416 N 
HETATM    3  H   UNK N   1      21.172  11.287  12.686  0.00  0.00     0.150 HD
HETATM    4  H   UNK N   1      20.441  12.178  11.346  0.00  0.00     0.150 HD
ENDBRANCH   1   2
BRANCH   1   5
HETATM    5  C   UNK N   1      22.623  12.098   9.701  0.00  0.00     0.264 C 
BRANCH   5   6
HETATM    6  N   UNK N   1      23.392  13.238   9.230  0.00  0.00    -0.077 N 
HETATM    7  H   UNK N   1      24.054  13.698   9.852  0.00  0.00     0.274 HD
HETATM    8  H   UNK N   1      23.267  13.576   8.276  0.00  0.00     0.274 HD
HETATM    9  H   UNK N   1      23.931  14.037   8.898  0.00  0.00     0.274 HD
ENDBRANCH   5   6
ENDBRANCH   1   5
BRANCH   1  10
HETATM   10  C   UNK N   1      23.740  12.096  12.192  0.00  0.00     0.164 C 
HETATM   11  O   UNK N   1      23.567  12.009  13.391  0.00  0.00    -0.648 OA
BRANCH  10  12
HETATM   12  O   UNK N   1      24.988  12.278  11.710  0.00  0.00    -0.775 OA
HETATM   13  H   UNK N   1      25.718  12.310  12.297  0.00  0.00     0.167 HD
ENDBRANCH  10  12
ENDBRANCH   1  10
TORSDOF 5
ENDMDL
MODEL 7
REMARK VINA RESULT:      -3.5      1.739      2.205
REMARK  5 active torsions:
REMARK  status: ('A' for Active; 'I' for Inactive)
REMARK    1  A    between atoms: C_2  and  N_1 
REMARK    2  A    between atoms: C_2  and  C_3 
REMARK    3  A    between atoms: C_2  and  C_5 
REMARK    4  A    between atoms: C_3  and  N_4 
REMARK    5  A    between atoms: C_5  and  O_6 
ROOT
HETATM    1  C   UNK N   1      20.708  19.368   2.650  0.00  0.00     0.199 C 
ENDROOT
BRANCH   1   2
HETATM    2  N   UNK N   1      21.070  19.265   4.051  0.00  0.00    -0.416 N 
HETATM    3  H   UNK N   1      20.473  18.747   4.695  0.00  0.00     0.150 HD
HETATM    4  H   UNK N   1      21.922  19.710   4.392  0.00  0.00     0.150 HD
ENDBRANCH   1   2
BRANCH   1   5
HETATM    5  C   UNK N   1      19.843  18.227   2.104  0.00  0.00     0.264 C 
BRANCH   5   6
HETATM    6  N   UNK N   1      20.092  17.959   0.698  0.00  0.00    -0.077 N 
HETATM    7  H   UNK N   1      20.725  17.208   0.427  0.00  0.00     0.274 HD
HETATM    8  H   UNK N   1      19.632  18.522  -0.017  0.00  0.00     0.274 HD
HETATM    9  H   UNK N   1      20.266  17.771  -0.289  0.00  0.00     0.274 HD
ENDBRANCH   5   6
ENDBRANCH   1   5
BRANCH   1  10
HETATM   10  C   UNK N   1      21.221  20.575   1.907  0.00  0.00     0.164 C 
HETATM   11  O   UNK N   1      21.316  20.573   0.696  0.00  0.00    -0.648 OA
BRANCH  10  12
HETATM   12  O   UNK N   1      21.580  21.676   2.601  0.00  0.00    -0.775 OA
HETATM   13  H   UNK N   1      22.217  22.266   2.248  0.00  0.00     0.167 HD
ENDBRANCH  10  12
ENDBRANCH   1  10
TORSDOF 5
ENDMDL
MODEL 8
REMARK VINA RESULT:      -3.4     11.483     12.235
REMARK  5 active torsions:
REMARK  status: ('A' for Active; 'I' for Inactive)
REMARK    1  A    between atoms: C_2  and  N_1 
REMARK    2  A    between atoms: C_2  and  C_3 
REMARK    3  A    between atoms: C_2  and  C_5 
REMARK    4  A    between atoms: C_3  and  N_4 
REMARK    5  A    between atoms: C_5  and  O_6 
ROOT
HETATM    1  C   UNK N   1      22.771  12.115  11.323  0.00  0.00     0.199 C 
ENDROOT
BRANCH   1   2
HETATM    2  N   UNK N   1      22.630  11.570  12.659  0.00  0.00    -0.416 N 
HETATM    3  H   UNK N   1      21.798  11.032  12.906  0.00  0.00     0.150 HD
HETATM    4  H   UNK N   1      23.361  11.723  13.354  0.00  0.00     0.150 HD
ENDBRANCH   1   2
BRANCH   1   5
HETATM    5  C   UNK N   1      21.466  12.528  10.634  0.00  0.00     0.264 C 
BRANCH   5   6
HETATM    6  N   UNK N   1      21.598  13.759   9.875  0.00  0.00    -0.077 N 
HETATM    7  H   UNK N   1      21.053  14.580  10.136  0.00  0.00     0.274 HD
HETATM    8  H   UNK N   1      22.237  13.802   9.081  0.00  0.00     0.274 HD
HETATM    9  H   UNK N   1      21.691  14.623   9.342  0.00  0.00     0.274 HD
ENDBRANCH   5   6
ENDBRANCH   1   5
BRANCH   1  10
HETATM   10  C   UNK N   1      24.174  12.209  10.776  0.00  0.00     0.164 C 
HETATM   11  O   UNK N   1      24.390  12.121   9.585  0.00  0.00    -0.648 OA
BRANCH  10  12
HETATM   12  O   UNK N   1      25.204  12.394  11.629  0.00  0.00    -0.775 OA
HETATM   13  H   UNK N   1      25.088  12.917  12.398  0.00  0.00     0.167 HD
ENDBRANCH  10  12
ENDBRANCH   1  10
TORSDOF 5
ENDMDL
MODEL 9
REMARK VINA RESULT:      -3.2     17.224     17.552
REMARK  5 active torsions:
REMARK  status: ('A' for Active; 'I' for Inactive)
REMARK    1  A    between atoms: C_2  and  N_1 
REMARK    2  A    between atoms: C_2  and  C_3 
REMARK    3  A    between atoms: C_2  and  C_5 
REMARK    4  A    between atoms: C_3  and  N_4 
REMARK    5  A    between atoms: C_5  and  O_6 
ROOT
HETATM    1  C   UNK N   1      34.899  14.948  11.089  0.00  0.00     0.199 C 
ENDROOT
BRANCH   1   2
HETATM    2  N   UNK N   1      35.208  14.158  12.265  0.00  0.00    -0.416 N 
HETATM    3  H   UNK N   1      34.594  14.195  13.080  0.00  0.00     0.150 HD
HETATM    4  H   UNK N   1      36.037  13.564  12.279  0.00  0.00     0.150 HD
ENDBRANCH   1   2
BRANCH   1   5
HETATM    5  C   UNK N   1      33.764  14.413  10.210  0.00  0.00     0.264 C 
BRANCH   5   6
HETATM    6  N   UNK N   1      32.565  15.229  10.285  0.00  0.00    -0.077 N 
HETATM    7  H   UNK N   1      31.808  14.967  10.915  0.00  0.00     0.274 HD
HETATM    8  H   UNK N   1      32.480  16.064   9.705  0.00  0.00     0.274 HD
HETATM    9  H   UNK N   1      31.723  15.803  10.336  0.00  0.00     0.274 HD
ENDBRANCH   5   6
ENDBRANCH   1   5
BRANCH   1  10
HETATM   10  C   UNK N   1      35.725  16.191  10.875  0.00  0.00     0.164 C 
HETATM   11  O   UNK N   1      35.200  17.269  10.681  0.00  0.00    -0.648 OA
BRANCH  10  12
HETATM   12  O   UNK N   1      37.073  16.102  10.900  0.00  0.00    -0.775 OA
HETATM   13  H   UNK N   1      37.541  16.299  11.688  0.00  0.00     0.167 HD
ENDBRANCH  10  12
ENDBRANCH   1  10
TORSDOF 5
ENDMDL
