REMARK  12 active torsions:
REMARK  status: ('A' for Active; 'I' for Inactive)
REMARK    1  A    between atoms: C_24  and  C_25 
REMARK    2  A    between atoms: C_25  and  S_26 
REMARK    3  A    between atoms: C_27  and  C_28 
REMARK    4  A    between atoms: C_28  and  S_29 
REMARK    5  A    between atoms: C_30  and  C_31 
REMARK    6  A    between atoms: C_31  and  C_32 
REMARK    7  A    between atoms: C_32  and  C_37 
REMARK    8  A    between atoms: C_33  and  C_34 
REMARK    9  A    between atoms: C_34  and  C_35 
REMARK   10  A    between atoms: C_35  and  C_40 
REMARK   11  A    between atoms: C_37  and  O_36 
REMARK   12  A    between atoms: C_40  and  O_39 
ROOT
HETATM    1  C   UNK N   1      -2.811   1.405  -0.095  0.00  0.00     0.066 A 
HETATM    2  C   UNK N   1      -1.264   2.904  -0.014  0.00  0.00     0.067 A 
HETATM    3  C   UNK N   1       0.031   3.576   0.054  0.00  0.00     0.064 A 
HETATM    4  C   UNK N   1       1.182   2.942   0.001  0.00  0.00     0.066 A 
HETATM    5  C   UNK N   1       2.625   1.353  -0.118  0.00  0.00     0.067 A 
HETATM    6  C   UNK N   1       3.286   0.099  -0.103  0.00  0.00     0.064 C 
HETATM    7  C   UNK N   1       2.674  -1.037  -0.044  0.00  0.00     0.066 C 
HETATM    8  C   UNK N   1       1.151  -2.492   0.090  0.00  0.00     0.066 C 
HETATM    9  C   UNK N   1       0.014  -3.074   0.088  0.00  0.00     0.064 C 
HETATM   10  C   UNK N   1      -1.242  -2.429  -0.043  0.00  0.00     0.066 A 
HETATM   11  C   UNK N   1      -2.870  -1.019  -0.097  0.00  0.00     0.066 A 
HETATM   12  C   UNK N   1      -3.508   0.140  -0.116  0.00  0.00     0.064 A 
HETATM   13  N   UNK N   1       1.364   1.554   0.003  0.00  0.00    -0.248 N 
HETATM   14  N   UNK N   1       1.349  -1.201   0.047  0.00  0.00    -0.248 N 
HETATM   15  N   UNK N   1      -1.464  -1.195   0.018  0.00  0.00    -0.248 N 
HETATM   16  C   UNK N   1      -3.449   2.624  -0.006  0.00  0.00    -0.023 A 
HETATM   17  C   UNK N   1      -4.936   2.799   0.035  0.00  0.00     0.051 C 
HETATM   18  C   UNK N   1       2.491   3.587  -0.079  0.00  0.00    -0.023 A 
HETATM   19  C   UNK N   1       2.717   5.049  -0.176  0.00  0.00     0.051 C 
HETATM   20  C   UNK N   1       3.305  -2.225   0.094  0.00  0.00    -0.025 C 
HETATM   21  C   UNK N   1       4.766  -2.501   0.088  0.00  0.00     0.051 C 
HETATM   22  C   UNK N   1      -3.458  -2.335  -0.191  0.00  0.00    -0.025 A 
HETATM   23  C   UNK N   1      -4.898  -2.683  -0.345  0.00  0.00     0.051 C 
HETATM   24  C   UNK N   1      -2.460   3.588   0.037  0.00  0.00    -0.008 A 
HETATM   25  C   UNK N   1       3.388   2.595  -0.136  0.00  0.00    -0.008 A 
HETATM   26  C   UNK N   1      -2.417  -3.169  -0.162  0.00  0.00    -0.021 A 
HETATM   27  C   UNK N   1       2.309  -3.136   0.225  0.00  0.00    -0.021 C 
HETATM   28  N   UNK N   1      -1.468   1.583  -0.024  0.00  0.00    -0.248 N 
HETATM   29 Fe   UNK N   1      -0.078   0.205   0.011  0.00  0.00     0.000 Fe
ENDROOT
BRANCH  26  30
HETATM   30  C   UNK N   1      -2.303  -4.611  -0.260  0.00  0.00     0.052 C 
BRANCH  30  31
HETATM   31  C   UNK N   1      -2.866  -5.216   0.969  0.00  0.00     0.115 C 
BRANCH  31  32
HETATM   32  C   UNK N   1      -3.844  -6.065   0.302  0.00  0.00     0.139 C 
HETATM   33  O   UNK N   1      -3.441  -7.066  -0.253  0.00  0.00    -0.650 OA
BRANCH  32  34
HETATM   34  O   UNK N   1      -4.987  -5.492  -0.104  0.00  0.00    -0.776 OA
HETATM   35  H   UNK N   1      -5.039  -4.600  -0.388  0.00  0.00     0.167 HD
ENDBRANCH  32  34
ENDBRANCH  31  32
ENDBRANCH  30  31
ENDBRANCH  26  30
BRANCH  27  36
HETATM   36  C   UNK N   1       2.407  -4.558   0.408  0.00  0.00     0.052 C 
BRANCH  36  37
HETATM   37  C   UNK N   1       3.012  -5.081  -0.839  0.00  0.00     0.115 C 
BRANCH  37  38
HETATM   38  C   UNK N   1       3.934  -6.062  -0.245  0.00  0.00     0.139 C 
HETATM   39  O   UNK N   1       5.012  -5.670   0.126  0.00  0.00    -0.650 OA
BRANCH  38  40
HETATM   40  O   UNK N   1       3.398  -7.182   0.255  0.00  0.00    -0.776 OA
HETATM   41  H   UNK N   1       2.531  -7.249   0.605  0.00  0.00     0.167 HD
ENDBRANCH  38  40
ENDBRANCH  37  38
ENDBRANCH  36  37
ENDBRANCH  27  36
BRANCH  24  42
HETATM   42  C   UNK N   1      -2.586   5.076   0.117  0.00  0.00     0.076 C 
HETATM   43  C   UNK N   1      -1.359   5.980   0.036  0.00  0.00     0.026 C 
BRANCH  42  44
HETATM   44  S   UNK N   1      -4.194   5.868  -0.037  0.00  0.00    -0.173 SA
HETATM   45  H   UNK N   1      -4.283   7.220  -0.153  0.00  0.00     0.102 HD
ENDBRANCH  42  44
ENDBRANCH  24  42
BRANCH  25  46
HETATM   46  C   UNK N   1       4.908   2.626  -0.293  0.00  0.00     0.076 C 
HETATM   47  C   UNK N   1       5.610   1.513   0.478  0.00  0.00     0.026 C 
BRANCH  46  48
HETATM   48  S   UNK N   1       5.645   4.182   0.254  0.00  0.00    -0.173 SA
HETATM   49  H   UNK N   1       6.937   4.288   0.666  0.00  0.00     0.102 HD
ENDBRANCH  46  48
ENDBRANCH  25  46
TORSDOF 12
