REMARK  4 active torsions:
REMARK  status: ('A' for Active; 'I' for Inactive)
REMARK    1  A    between atoms: C_5  and  C_6 
REMARK    2  A    between atoms: C_8  and  C_9 
REMARK    3  A    between atoms: C_9  and  O_10 
REMARK    4  A    between atoms: C_19  and  C_20 
ROOT
HETATM    1  C   UNK N   1       0.558   1.095   1.127  0.00  0.00     0.178 C 
HETATM    2  N   UNK N   1       0.372  -0.240   0.583  0.00  0.00    -0.291 N 
HETATM    3  N   UNK N   1       1.358  -1.112   0.486  0.00  0.00    -0.296 N 
ATOM      4  HN  UNK N   1       2.326  -0.943   0.758  1.00  0.00     0.187 HD
HETATM    5  C   UNK N   1       0.878  -2.266  -0.032  0.00  0.00     0.081 A 
HETATM    6  C   UNK N   1      -0.493  -2.085  -0.296  0.00  0.00     0.073 A 
HETATM    7 Br   UNK N   1      -1.834  -3.231  -1.058  0.00  0.00    -0.046 Br
HETATM    8  C   UNK N   1      -0.769  -0.794   0.126  0.00  0.00     0.154 A 
ENDROOT
BRANCH   5   9
HETATM    9  C   UNK N   1       1.788  -3.448  -0.173  0.00  0.00     0.033 A 
HETATM   10  C   UNK N   1       3.152  -3.218   0.068  0.00  0.00     0.037 A 
HETATM   11  C   UNK N   1       4.106  -4.244   0.047  0.00  0.00     0.060 A 
HETATM   12  C   UNK N   1       3.672  -5.563  -0.219  0.00  0.00     0.053 A 
HETATM   13 Cl   UNK N   1       4.752  -6.951  -0.238  0.00  0.00    -0.083 Cl
HETATM   14  C   UNK N   1       2.321  -5.804  -0.469  0.00  0.00     0.068 A 
HETATM   15  C   UNK N   1       1.382  -4.772  -0.454  0.00  0.00     0.130 A 
HETATM   16  F   UNK N   1       0.096  -5.108  -0.653  0.00  0.00    -0.205 F 
BRANCH  11  17
HETATM   17  C   UNK N   1       5.525  -3.886   0.323  0.00  0.00     0.177 C 
HETATM   18  O   UNK N   1       5.830  -2.718   0.511  0.00  0.00    -0.646 OA
BRANCH  17  19
HETATM   19  O   UNK N   1       6.488  -4.825   0.374  0.00  0.00    -0.773 OA
HETATM   20  H   UNK N   1       6.258  -5.732   0.409  0.00  0.00     0.167 HD
ENDBRANCH  17  19
ENDBRANCH  11  17
ENDBRANCH   5   9
BRANCH   8  21
HETATM   21  C   UNK N   1      -2.126  -0.133   0.099  0.00  0.00     0.435 C 
HETATM   22  F   UNK N   1      -2.580  -0.052  -1.204  0.00  0.00    -0.165 F 
HETATM   23  F   UNK N   1      -2.095   1.140   0.635  0.00  0.00    -0.165 F 
HETATM   24  F   UNK N   1      -3.012  -0.893   0.841  0.00  0.00    -0.165 F 
ENDBRANCH   8  21
TORSDOF 4
