MODEL 1
REMARK VINA RESULT:      -5.1      0.000      0.000
REMARK  6 active torsions:
REMARK  status: ('A' for Active; 'I' for Inactive)
REMARK    1  A    between atoms: C_3  and  C_4 
REMARK    2  A    between atoms: C_4  and  C_5 
REMARK    3  A    between atoms: C_5  and  O_6 
REMARK    4  A    between atoms: O_6  and  P_7 
REMARK    5  A    between atoms: P_7  and  O_8 
REMARK    6  A    between atoms: P_7  and  O_9 
ROOT
HETATM    1  C   UNK N   1      35.199  15.833  11.225  0.00  0.00     0.075 C 
ENDROOT
BRANCH   1   2
HETATM    2  C   UNK N   1      36.224  14.745  11.234  0.00  0.00     0.008 A 
HETATM    3  C   UNK N   1      36.616  13.941  12.311  0.00  0.00     0.018 A 
HETATM    4  C   UNK N   1      36.014  14.023  13.668  0.00  0.00     0.069 C 
HETATM    5  N   UNK N   1      37.634  13.051  12.022  0.00  0.00    -0.363 N 
HETATM    6  C   UNK N   1      38.064  13.133  10.735  0.00  0.00     0.138 A 
ATOM      7  HN  UNK N   1      38.023  12.401  12.705  1.00  0.00     0.165 HD
HETATM    8  S   UNK N   1      37.177  14.304   9.965  0.00  0.00    -0.087 SA
ENDBRANCH   1   2
BRANCH   1   9
HETATM    9  C   UNK N   1      34.721  16.165   9.824  0.00  0.00     0.185 C 
BRANCH   9  10
HETATM   10  O   UNK N   1      35.085  17.487   9.546  0.00  0.00    -0.297 OA
BRANCH  10  11
HETATM   11  P   UNK N   1      34.013  18.027   8.288  0.00  0.00     0.390 P 
HETATM   12  O   UNK N   1      35.065  19.171   8.282  0.00  0.00    -0.632 OA
BRANCH  11  13
HETATM   13  O   UNK N   1      34.532  18.043   6.631  0.00  0.00    -0.307 OA
HETATM   14  H   UNK N   1      33.948  18.140   5.863  0.00  0.00     0.222 HD
ENDBRANCH  11  13
BRANCH  11  15
HETATM   15  O   UNK N   1      34.793  16.538   7.851  0.00  0.00    -0.307 OA
HETATM   16  H   UNK N   1      34.337  15.739   7.544  0.00  0.00     0.222 HD
ENDBRANCH  11  15
ENDBRANCH  10  11
ENDBRANCH   9  10
ENDBRANCH   1   9
TORSDOF 6
ENDMDL
MODEL 2
REMARK VINA RESULT:      -4.9     14.079     14.660
REMARK  6 active torsions:
REMARK  status: ('A' for Active; 'I' for Inactive)
REMARK    1  A    between atoms: C_3  and  C_4 
REMARK    2  A    between atoms: C_4  and  C_5 
REMARK    3  A    between atoms: C_5  and  O_6 
REMARK    4  A    between atoms: O_6  and  P_7 
REMARK    5  A    between atoms: P_7  and  O_8 
REMARK    6  A    between atoms: P_7  and  O_9 
ROOT
HETATM    1  C   UNK N   1      21.793  12.402   8.342  0.00  0.00     0.075 C 
ENDROOT
BRANCH   1   2
HETATM    2  C   UNK N   1      22.710  12.298   9.518  0.00  0.00     0.008 A 
HETATM    3  C   UNK N   1      22.368  12.231  10.873  0.00  0.00     0.018 A 
HETATM    4  C   UNK N   1      20.967  12.211  11.373  0.00  0.00     0.069 C 
HETATM    5  N   UNK N   1      23.446  12.195  11.737  0.00  0.00    -0.363 N 
HETATM    6  C   UNK N   1      24.644  12.235  11.096  0.00  0.00     0.138 A 
ATOM      7  HN  UNK N   1      23.353  12.144  12.752  1.00  0.00     0.165 HD
HETATM    8  S   UNK N   1      24.357  12.312   9.464  0.00  0.00    -0.087 SA
ENDBRANCH   1   2
BRANCH   1   9
HETATM    9  C   UNK N   1      21.531  13.840   7.939  0.00  0.00     0.185 C 
BRANCH   9  10
HETATM   10  O   UNK N   1      20.154  14.069   8.026  0.00  0.00    -0.297 OA
BRANCH  10  11
HETATM   11  P   UNK N   1      19.972  15.664   8.695  0.00  0.00     0.390 P 
HETATM   12  O   UNK N   1      19.199  15.823   7.356  0.00  0.00    -0.632 OA
BRANCH  11  13
HETATM   13  O   UNK N   1      18.418  16.226   9.229  0.00  0.00    -0.307 OA
HETATM   14  H   UNK N   1      18.251  16.708  10.055  0.00  0.00     0.222 HD
ENDBRANCH  11  13
BRANCH  11  15
HETATM   15  O   UNK N   1      19.168  14.477   9.676  0.00  0.00    -0.307 OA
HETATM   16  H   UNK N   1      18.978  13.566   9.405  0.00  0.00     0.222 HD
ENDBRANCH  11  15
ENDBRANCH  10  11
ENDBRANCH   9  10
ENDBRANCH   1   9
TORSDOF 6
ENDMDL
MODEL 3
REMARK VINA RESULT:      -4.8     17.655     18.967
REMARK  6 active torsions:
REMARK  status: ('A' for Active; 'I' for Inactive)
REMARK    1  A    between atoms: C_3  and  C_4 
REMARK    2  A    between atoms: C_4  and  C_5 
REMARK    3  A    between atoms: C_5  and  O_6 
REMARK    4  A    between atoms: O_6  and  P_7 
REMARK    5  A    between atoms: P_7  and  O_8 
REMARK    6  A    between atoms: P_7  and  O_9 
ROOT
HETATM    1  C   UNK N   1      27.186  24.146  -3.179  0.00  0.00     0.075 C 
ENDROOT
BRANCH   1   2
HETATM    2  C   UNK N   1      26.415  25.044  -4.093  0.00  0.00     0.008 A 
HETATM    3  C   UNK N   1      25.802  24.716  -5.307  0.00  0.00     0.018 A 
HETATM    4  C   UNK N   1      25.788  23.345  -5.883  0.00  0.00     0.069 C 
HETATM    5  N   UNK N   1      25.205  25.781  -5.956  0.00  0.00    -0.363 N 
HETATM    6  C   UNK N   1      25.334  26.955  -5.283  0.00  0.00     0.138 A 
ATOM      7  HN  UNK N   1      24.719  25.694  -6.849  1.00  0.00     0.165 HD
HETATM    8  S   UNK N   1      26.183  26.662  -3.888  0.00  0.00    -0.087 SA
ENDBRANCH   1   2
BRANCH   1   9
HETATM    9  C   UNK N   1      28.642  24.021  -3.586  0.00  0.00     0.185 C 
BRANCH   9  10
HETATM   10  O   UNK N   1      29.134  22.820  -3.063  0.00  0.00    -0.297 OA
BRANCH  10  11
HETATM   11  P   UNK N   1      30.859  23.015  -2.951  0.00  0.00     0.390 P 
HETATM   12  O   UNK N   1      30.460  23.116  -1.453  0.00  0.00    -0.632 OA
BRANCH  11  13
HETATM   13  O   UNK N   1      31.842  21.783  -2.223  0.00  0.00    -0.307 OA
HETATM   14  H   UNK N   1      31.805  21.516  -1.291  0.00  0.00     0.222 HD
ENDBRANCH  11  13
BRANCH  11  15
HETATM   15  O   UNK N   1      30.443  21.435  -3.544  0.00  0.00    -0.307 OA
HETATM   16  H   UNK N   1      30.276  21.214  -4.472  0.00  0.00     0.222 HD
ENDBRANCH  11  15
ENDBRANCH  10  11
ENDBRANCH   9  10
ENDBRANCH   1   9
TORSDOF 6
ENDMDL
MODEL 4
REMARK VINA RESULT:      -4.8     12.195     13.534
REMARK  6 active torsions:
REMARK  status: ('A' for Active; 'I' for Inactive)
REMARK    1  A    between atoms: C_3  and  C_4 
REMARK    2  A    between atoms: C_4  and  C_5 
REMARK    3  A    between atoms: C_5  and  O_6 
REMARK    4  A    between atoms: O_6  and  P_7 
REMARK    5  A    between atoms: P_7  and  O_8 
REMARK    6  A    between atoms: P_7  and  O_9 
ROOT
HETATM    1  C   UNK N   1      25.375  20.461   3.782  0.00  0.00     0.075 C 
ENDROOT
BRANCH   1   2
HETATM    2  C   UNK N   1      26.146  19.679   4.797  0.00  0.00     0.008 A 
HETATM    3  C   UNK N   1      26.755  20.149   5.965  0.00  0.00     0.018 A 
HETATM    4  C   UNK N   1      26.692  21.564   6.419  0.00  0.00     0.069 C 
HETATM    5  N   UNK N   1      27.447  19.189   6.679  0.00  0.00    -0.363 N 
HETATM    6  C   UNK N   1      27.402  17.959   6.101  0.00  0.00     0.138 A 
ATOM      7  HN  UNK N   1      27.940  19.383   7.551  1.00  0.00     0.165 HD
HETATM    8  S   UNK N   1      26.504  18.073   4.711  0.00  0.00    -0.087 SA
ENDBRANCH   1   2
BRANCH   1   9
HETATM    9  C   UNK N   1      24.062  19.796   3.415  0.00  0.00     0.185 C 
BRANCH   9  10
HETATM   10  O   UNK N   1      23.212  20.778   2.895  0.00  0.00    -0.297 OA
BRANCH  10  11
HETATM   11  P   UNK N   1      21.645  20.035   2.758  0.00  0.00     0.390 P 
HETATM   12  O   UNK N   1      22.062  19.570   4.180  0.00  0.00    -0.632 OA
BRANCH  11  13
HETATM   13  O   UNK N   1      20.317  20.587   3.731  0.00  0.00    -0.307 OA
HETATM   14  H   UNK N   1      19.947  20.113   4.492  0.00  0.00     0.222 HD
ENDBRANCH  11  13
BRANCH  11  15
HETATM   15  O   UNK N   1      21.521  21.768   2.742  0.00  0.00    -0.307 OA
HETATM   16  H   UNK N   1      20.880  22.285   3.252  0.00  0.00     0.222 HD
ENDBRANCH  11  15
ENDBRANCH  10  11
ENDBRANCH   9  10
ENDBRANCH   1   9
TORSDOF 6
ENDMDL
MODEL 5
REMARK VINA RESULT:      -4.6      1.236      2.277
REMARK  6 active torsions:
REMARK  status: ('A' for Active; 'I' for Inactive)
REMARK    1  A    between atoms: C_3  and  C_4 
REMARK    2  A    between atoms: C_4  and  C_5 
REMARK    3  A    between atoms: C_5  and  O_6 
REMARK    4  A    between atoms: O_6  and  P_7 
REMARK    5  A    between atoms: P_7  and  O_8 
REMARK    6  A    between atoms: P_7  and  O_9 
ROOT
HETATM    1  C   UNK N   1      35.421  14.211   8.894  0.00  0.00     0.075 C 
ENDROOT
BRANCH   1   2
HETATM    2  C   UNK N   1      35.907  14.039  10.297  0.00  0.00     0.008 A 
HETATM    3  C   UNK N   1      37.201  13.725  10.727  0.00  0.00     0.018 A 
HETATM    4  C   UNK N   1      38.357  13.545   9.809  0.00  0.00     0.069 C 
HETATM    5  N   UNK N   1      37.333  13.578  12.096  0.00  0.00    -0.363 N 
HETATM    6  C   UNK N   1      36.165  13.767  12.766  0.00  0.00     0.138 A 
ATOM      7  HN  UNK N   1      38.215  13.351  12.555  1.00  0.00     0.165 HD
HETATM    8  S   UNK N   1      34.982  14.117  11.658  0.00  0.00    -0.087 SA
ENDBRANCH   1   2
BRANCH   1   9
HETATM    9  C   UNK N   1      34.312  15.241   8.790  0.00  0.00     0.185 C 
BRANCH   9  10
HETATM   10  O   UNK N   1      34.733  16.239   7.903  0.00  0.00    -0.297 OA
BRANCH  10  11
HETATM   11  P   UNK N   1      34.046  17.725   8.489  0.00  0.00     0.390 P 
HETATM   12  O   UNK N   1      35.218  17.533   9.491  0.00  0.00    -0.632 OA
BRANCH  11  13
HETATM   13  O   UNK N   1      34.914  19.221   8.333  0.00  0.00    -0.307 OA
HETATM   14  H   UNK N   1      35.721  19.348   7.809  0.00  0.00     0.222 HD
ENDBRANCH  11  13
BRANCH  11  15
HETATM   15  O   UNK N   1      34.695  17.922   6.889  0.00  0.00    -0.307 OA
HETATM   16  H   UNK N   1      35.486  18.436   6.668  0.00  0.00     0.222 HD
ENDBRANCH  11  15
ENDBRANCH  10  11
ENDBRANCH   9  10
ENDBRANCH   1   9
TORSDOF 6
ENDMDL
MODEL 6
REMARK VINA RESULT:      -4.6      6.073      7.208
REMARK  6 active torsions:
REMARK  status: ('A' for Active; 'I' for Inactive)
REMARK    1  A    between atoms: C_3  and  C_4 
REMARK    2  A    between atoms: C_4  and  C_5 
REMARK    3  A    between atoms: C_5  and  O_6 
REMARK    4  A    between atoms: O_6  and  P_7 
REMARK    5  A    between atoms: P_7  and  O_8 
REMARK    6  A    between atoms: P_7  and  O_9 
ROOT
HETATM    1  C   UNK N   1      31.266  17.028   8.046  0.00  0.00     0.075 C 
ENDROOT
BRANCH   1   2
HETATM    2  C   UNK N   1      29.951  17.304   7.390  0.00  0.00     0.008 A 
HETATM    3  C   UNK N   1      28.742  17.658   7.999  0.00  0.00     0.018 A 
HETATM    4  C   UNK N   1      28.584  17.865   9.463  0.00  0.00     0.069 C 
HETATM    5  N   UNK N   1      27.678  17.795   7.128  0.00  0.00    -0.363 N 
HETATM    6  C   UNK N   1      28.014  17.554   5.833  0.00  0.00     0.138 A 
ATOM      7  HN  UNK N   1      26.737  18.051   7.426  1.00  0.00     0.165 HD
HETATM    8  S   UNK N   1      29.629  17.176   5.779  0.00  0.00    -0.087 SA
ENDBRANCH   1   2
BRANCH   1   9
HETATM    9  C   UNK N   1      32.285  16.454   7.079  0.00  0.00     0.185 C 
BRANCH   9  10
HETATM   10  O   UNK N   1      33.551  16.580   7.661  0.00  0.00    -0.297 OA
BRANCH  10  11
HETATM   11  P   UNK N   1      33.651  18.214   8.248  0.00  0.00     0.390 P 
HETATM   12  O   UNK N   1      34.374  17.452   9.392  0.00  0.00    -0.632 OA
BRANCH  11  13
HETATM   13  O   UNK N   1      35.180  19.033   8.327  0.00  0.00    -0.307 OA
HETATM   14  H   UNK N   1      35.443  19.783   7.770  0.00  0.00     0.222 HD
ENDBRANCH  11  13
BRANCH  11  15
HETATM   15  O   UNK N   1      34.554  18.020   6.777  0.00  0.00    -0.307 OA
HETATM   16  H   UNK N   1      34.261  17.510   6.006  0.00  0.00     0.222 HD
ENDBRANCH  11  15
ENDBRANCH  10  11
ENDBRANCH   9  10
ENDBRANCH   1   9
TORSDOF 6
ENDMDL
MODEL 7
REMARK VINA RESULT:      -4.6     17.337     18.503
REMARK  6 active torsions:
REMARK  status: ('A' for Active; 'I' for Inactive)
REMARK    1  A    between atoms: C_3  and  C_4 
REMARK    2  A    between atoms: C_4  and  C_5 
REMARK    3  A    between atoms: C_5  and  O_6 
REMARK    4  A    between atoms: O_6  and  P_7 
REMARK    5  A    between atoms: P_7  and  O_8 
REMARK    6  A    between atoms: P_7  and  O_9 
ROOT
HETATM    1  C   UNK N   1      29.069  23.535  -4.826  0.00  0.00     0.075 C 
ENDROOT
BRANCH   1   2
HETATM    2  C   UNK N   1      27.786  23.466  -5.590  0.00  0.00     0.008 A 
HETATM    3  C   UNK N   1      26.545  24.010  -5.238  0.00  0.00     0.018 A 
HETATM    4  C   UNK N   1      26.312  24.814  -4.009  0.00  0.00     0.069 C 
HETATM    5  N   UNK N   1      25.523  23.732  -6.126  0.00  0.00    -0.363 N 
HETATM    6  C   UNK N   1      25.925  22.973  -7.181  0.00  0.00     0.138 A 
ATOM      7  HN  UNK N   1      24.566  24.062  -6.004  1.00  0.00     0.165 HD
HETATM    8  S   UNK N   1      27.544  22.656  -7.004  0.00  0.00    -0.087 SA
ENDBRANCH   1   2
BRANCH   1   9
HETATM    9  C   UNK N   1      29.876  22.255  -4.937  0.00  0.00     0.185 C 
BRANCH   9  10
HETATM   10  O   UNK N   1      30.085  21.764  -3.644  0.00  0.00    -0.297 OA
BRANCH  10  11
HETATM   11  P   UNK N   1      31.739  22.129  -3.251  0.00  0.00     0.390 P 
HETATM   12  O   UNK N   1      31.027  22.576  -1.945  0.00  0.00    -0.632 OA
BRANCH  11  13
HETATM   13  O   UNK N   1      32.582  21.215  -2.038  0.00  0.00    -0.307 OA
HETATM   14  H   UNK N   1      32.204  20.925  -1.193  0.00  0.00     0.222 HD
ENDBRANCH  11  13
BRANCH  11  15
HETATM   15  O   UNK N   1      31.508  20.420  -3.466  0.00  0.00    -0.307 OA
HETATM   16  H   UNK N   1      31.299  19.987  -4.307  0.00  0.00     0.222 HD
ENDBRANCH  11  15
ENDBRANCH  10  11
ENDBRANCH   9  10
ENDBRANCH   1   9
TORSDOF 6
ENDMDL
MODEL 8
REMARK VINA RESULT:      -4.6      3.216      4.205
REMARK  6 active torsions:
REMARK  status: ('A' for Active; 'I' for Inactive)
REMARK    1  A    between atoms: C_3  and  C_4 
REMARK    2  A    between atoms: C_4  and  C_5 
REMARK    3  A    between atoms: C_5  and  O_6 
REMARK    4  A    between atoms: O_6  and  P_7 
REMARK    5  A    between atoms: P_7  and  O_8 
REMARK    6  A    between atoms: P_7  and  O_9 
ROOT
HETATM    1  C   UNK N   1      36.456  13.436  13.557  0.00  0.00     0.075 C 
ENDROOT
BRANCH   1   2
HETATM    2  C   UNK N   1      35.394  12.397  13.728  0.00  0.00     0.008 A 
HETATM    3  C   UNK N   1      34.602  12.153  14.855  0.00  0.00     0.018 A 
HETATM    4  C   UNK N   1      34.672  12.956  16.105  0.00  0.00     0.069 C 
HETATM    5  N   UNK N   1      33.738  11.081  14.730  0.00  0.00    -0.363 N 
HETATM    6  C   UNK N   1      33.828  10.463  13.522  0.00  0.00     0.138 A 
ATOM      7  HN  UNK N   1      33.099  10.784  15.467  1.00  0.00     0.165 HD
HETATM    8  S   UNK N   1      34.975  11.252  12.620  0.00  0.00    -0.087 SA
ENDBRANCH   1   2
BRANCH   1   9
HETATM    9  C   UNK N   1      35.995  14.598  12.699  0.00  0.00     0.185 C 
BRANCH   9  10
HETATM   10  O   UNK N   1      36.357  14.327  11.375  0.00  0.00    -0.297 OA
BRANCH  10  11
HETATM   11  P   UNK N   1      35.368  15.359  10.384  0.00  0.00     0.390 P 
HETATM   12  O   UNK N   1      34.413  15.108  11.583  0.00  0.00    -0.632 OA
BRANCH  11  13
HETATM   13  O   UNK N   1      34.986  16.974  10.897  0.00  0.00    -0.307 OA
HETATM   14  H   UNK N   1      34.139  17.254  11.279  0.00  0.00     0.222 HD
ENDBRANCH  11  13
BRANCH  11  15
HETATM   15  O   UNK N   1      36.780  16.199  10.951  0.00  0.00    -0.307 OA
HETATM   16  H   UNK N   1      36.795  17.115  11.267  0.00  0.00     0.222 HD
ENDBRANCH  11  15
ENDBRANCH  10  11
ENDBRANCH   9  10
ENDBRANCH   1   9
TORSDOF 6
ENDMDL
MODEL 9
REMARK VINA RESULT:      -4.6      4.739      6.420
REMARK  6 active torsions:
REMARK  status: ('A' for Active; 'I' for Inactive)
REMARK    1  A    between atoms: C_3  and  C_4 
REMARK    2  A    between atoms: C_4  and  C_5 
REMARK    3  A    between atoms: C_5  and  O_6 
REMARK    4  A    between atoms: O_6  and  P_7 
REMARK    5  A    between atoms: P_7  and  O_8 
REMARK    6  A    between atoms: P_7  and  O_9 
ROOT
HETATM    1  C   UNK N   1      33.946  17.706   8.449  0.00  0.00     0.075 C 
ENDROOT
BRANCH   1   2
HETATM    2  C   UNK N   1      32.642  17.419   7.777  0.00  0.00     0.008 A 
HETATM    3  C   UNK N   1      32.387  17.306   6.406  0.00  0.00     0.018 A 
HETATM    4  C   UNK N   1      33.435  17.419   5.357  0.00  0.00     0.069 C 
HETATM    5  N   UNK N   1      31.060  17.088   6.084  0.00  0.00    -0.363 N 
HETATM    6  C   UNK N   1      30.250  17.028   7.175  0.00  0.00     0.138 A 
ATOM      7  HN  UNK N   1      30.723  16.983   5.127  1.00  0.00     0.165 HD
HETATM    8  S   UNK N   1      31.186  17.242   8.528  0.00  0.00    -0.087 SA
ENDBRANCH   1   2
BRANCH   1   9
HETATM    9  C   UNK N   1      34.652  16.443   8.904  0.00  0.00     0.185 C 
BRANCH   9  10
HETATM   10  O   UNK N   1      34.480  16.327  10.288  0.00  0.00    -0.297 OA
BRANCH  10  11
HETATM   11  P   UNK N   1      34.812  14.665  10.677  0.00  0.00     0.390 P 
HETATM   12  O   UNK N   1      35.739  15.389  11.691  0.00  0.00    -0.632 OA
BRANCH  11  13
HETATM   13  O   UNK N   1      34.297  13.992  12.193  0.00  0.00    -0.307 OA
HETATM   14  H   UNK N   1      34.325  13.051  12.425  0.00  0.00     0.222 HD
ENDBRANCH  11  13
BRANCH  11  15
HETATM   15  O   UNK N   1      33.160  15.073  11.026  0.00  0.00    -0.307 OA
HETATM   16  H   UNK N   1      32.387  14.557  10.750  0.00  0.00     0.222 HD
ENDBRANCH  11  15
ENDBRANCH  10  11
ENDBRANCH   9  10
ENDBRANCH   1   9
TORSDOF 6
ENDMDL
