MODEL 1
REMARK VINA RESULT:      -6.1      0.000      0.000
REMARK  5 active torsions:
REMARK  status: ('A' for Active; 'I' for Inactive)
REMARK    1  A    between atoms: C_2  and  N_1 
REMARK    2  A    between atoms: C_2  and  C_3 
REMARK    3  A    between atoms: C_2  and  C_14 
REMARK    4  A    between atoms: C_3  and  C_4 
REMARK    5  A    between atoms: C_14  and  O_15 
ROOT
HETATM    1  C   UNK N   1      26.706  24.345  -4.148  0.00  0.00    -0.028 A 
HETATM    2  C   UNK N   1      26.165  23.654  -5.232  0.00  0.00     0.096 A 
HETATM    3  N   UNK N   1      25.406  24.504  -5.978  0.00  0.00    -0.365 N 
HETATM    4  C   UNK N   1      25.477  25.699  -5.365  0.00  0.00     0.043 A 
HETATM    5  C   UNK N   1      26.259  25.633  -4.252  0.00  0.00     0.001 A 
HETATM    6  C   UNK N   1      26.494  26.735  -3.438  0.00  0.00     0.056 A 
HETATM    7  C   UNK N   1      25.893  27.951  -3.797  0.00  0.00     0.117 A 
HETATM    8  F   UNK N   1      26.096  29.049  -3.032  0.00  0.00    -0.206 F 
HETATM    9  C   UNK N   1      25.078  28.030  -4.952  0.00  0.00     0.044 A 
HETATM   10  C   UNK N   1      24.863  26.890  -5.753  0.00  0.00     0.033 A 
HETATM   11  H   UNK N   1      24.907  24.287  -6.797  0.00  0.00     0.165 HD
ENDROOT
BRANCH   1  12
HETATM   12  C   UNK N   1      27.603  23.877  -3.042  0.00  0.00     0.076 C 
BRANCH  12  13
HETATM   13  C   UNK N   1      29.116  23.859  -3.245  0.00  0.00     0.177 C 
BRANCH  13  14
HETATM   14  N   UNK N   1      29.782  24.844  -4.083  0.00  0.00    -0.417 N 
HETATM   15  H   UNK N   1      30.440  25.503  -3.670  0.00  0.00     0.150 HD
HETATM   16  H   UNK N   1      29.590  24.874  -5.085  0.00  0.00     0.150 HD
ENDBRANCH  13  14
BRANCH  13  17
HETATM   17  C   UNK N   1      29.948  22.822  -2.557  0.00  0.00     0.163 C 
HETATM   18  O   UNK N   1      30.361  23.024  -1.425  0.00  0.00    -0.648 OA
BRANCH  17  19
HETATM   19  O   UNK N   1      30.243  21.664  -3.176  0.00  0.00    -0.775 OA
HETATM   20  H   UNK N   1      29.704  20.910  -3.039  0.00  0.00     0.167 HD
ENDBRANCH  17  19
ENDBRANCH  13  17
ENDBRANCH  12  13
ENDBRANCH   1  12
TORSDOF 5
ENDMDL
MODEL 2
REMARK VINA RESULT:      -6.1     10.101     11.498
REMARK  5 active torsions:
REMARK  status: ('A' for Active; 'I' for Inactive)
REMARK    1  A    between atoms: C_2  and  N_1 
REMARK    2  A    between atoms: C_2  and  C_3 
REMARK    3  A    between atoms: C_2  and  C_14 
REMARK    4  A    between atoms: C_3  and  C_4 
REMARK    5  A    between atoms: C_14  and  O_15 
ROOT
HETATM    1  C   UNK N   1      21.984  18.780   4.167  0.00  0.00    -0.028 A 
HETATM    2  C   UNK N   1      21.938  17.558   4.836  0.00  0.00     0.096 A 
HETATM    3  N   UNK N   1      23.200  17.063   4.962  0.00  0.00    -0.365 N 
HETATM    4  C   UNK N   1      24.012  17.964   4.380  0.00  0.00     0.043 A 
HETATM    5  C   UNK N   1      23.301  19.017   3.888  0.00  0.00     0.001 A 
HETATM    6  C   UNK N   1      23.906  20.086   3.238  0.00  0.00     0.056 A 
HETATM    7  C   UNK N   1      25.301  20.058   3.095  0.00  0.00     0.117 A 
HETATM    8  F   UNK N   1      25.930  21.080   2.468  0.00  0.00    -0.206 F 
HETATM    9  C   UNK N   1      26.048  18.968   3.602  0.00  0.00     0.044 A 
HETATM   10  C   UNK N   1      25.399  17.901   4.256  0.00  0.00     0.033 A 
HETATM   11  H   UNK N   1      23.464  16.217   5.390  0.00  0.00     0.165 HD
ENDROOT
BRANCH   1  12
HETATM   12  C   UNK N   1      20.884  19.724   3.782  0.00  0.00     0.076 C 
BRANCH  12  13
HETATM   13  C   UNK N   1      20.178  19.561   2.438  0.00  0.00     0.177 C 
BRANCH  13  14
HETATM   14  N   UNK N   1      19.036  18.674   2.282  0.00  0.00    -0.417 N 
HETATM   15  H   UNK N   1      18.993  18.032   1.492  0.00  0.00     0.150 HD
HETATM   16  H   UNK N   1      18.278  18.695   2.965  0.00  0.00     0.150 HD
ENDBRANCH  13  14
BRANCH  13  17
HETATM   17  C   UNK N   1      20.649  20.341   1.250  0.00  0.00     0.163 C 
HETATM   18  O   UNK N   1      21.087  21.471   1.397  0.00  0.00    -0.648 OA
BRANCH  17  19
HETATM   19  O   UNK N   1      20.595  19.802   0.018  0.00  0.00    -0.775 OA
HETATM   20  H   UNK N   1      19.840  19.938  -0.521  0.00  0.00     0.167 HD
ENDBRANCH  17  19
ENDBRANCH  13  17
ENDBRANCH  12  13
ENDBRANCH   1  12
TORSDOF 5
ENDMDL
MODEL 3
REMARK VINA RESULT:      -5.9     12.714     14.599
REMARK  5 active torsions:
REMARK  status: ('A' for Active; 'I' for Inactive)
REMARK    1  A    between atoms: C_2  and  N_1 
REMARK    2  A    between atoms: C_2  and  C_3 
REMARK    3  A    between atoms: C_2  and  C_14 
REMARK    4  A    between atoms: C_3  and  C_4 
REMARK    5  A    between atoms: C_14  and  O_15 
ROOT
HETATM    1  C   UNK N   1      31.323  17.032   8.196  0.00  0.00    -0.028 A 
HETATM    2  C   UNK N   1      30.455  17.598   9.130  0.00  0.00     0.096 A 
HETATM    3  N   UNK N   1      29.350  18.073   8.491  0.00  0.00    -0.365 N 
HETATM    4  C   UNK N   1      29.532  17.804   7.186  0.00  0.00     0.043 A 
HETATM    5  C   UNK N   1      30.721  17.173   6.977  0.00  0.00     0.001 A 
HETATM    6  C   UNK N   1      31.148  16.786   5.713  0.00  0.00     0.056 A 
HETATM    7  C   UNK N   1      30.307  17.066   4.625  0.00  0.00     0.117 A 
HETATM    8  F   UNK N   1      30.685  16.706   3.376  0.00  0.00    -0.206 F 
HETATM    9  C   UNK N   1      29.070  17.722   4.832  0.00  0.00     0.044 A 
HETATM   10  C   UNK N   1      28.670  18.100   6.130  0.00  0.00     0.033 A 
HETATM   11  H   UNK N   1      28.577  18.522   8.901  0.00  0.00     0.165 HD
ENDROOT
BRANCH   1  12
HETATM   12  C   UNK N   1      32.659  16.376   8.379  0.00  0.00     0.076 C 
BRANCH  12  13
HETATM   13  C   UNK N   1      33.852  17.200   8.854  0.00  0.00     0.177 C 
BRANCH  13  14
HETATM   14  N   UNK N   1      34.436  17.001  10.171  0.00  0.00    -0.417 N 
HETATM   15  H   UNK N   1      35.446  17.062  10.295  0.00  0.00     0.150 HD
HETATM   16  H   UNK N   1      33.835  16.802  10.971  0.00  0.00     0.150 HD
ENDBRANCH  13  14
BRANCH  13  17
HETATM   17  C   UNK N   1      34.458  18.226   7.948  0.00  0.00     0.163 C 
HETATM   18  O   UNK N   1      35.079  19.166   8.419  0.00  0.00    -0.648 OA
BRANCH  17  19
HETATM   19  O   UNK N   1      34.324  18.118   6.613  0.00  0.00    -0.775 OA
HETATM   20  H   UNK N   1      33.976  18.834   6.118  0.00  0.00     0.167 HD
ENDBRANCH  17  19
ENDBRANCH  13  17
ENDBRANCH  12  13
ENDBRANCH   1  12
TORSDOF 5
ENDMDL
MODEL 4
REMARK VINA RESULT:      -5.9     14.146     15.065
REMARK  5 active torsions:
REMARK  status: ('A' for Active; 'I' for Inactive)
REMARK    1  A    between atoms: C_2  and  N_1 
REMARK    2  A    between atoms: C_2  and  C_3 
REMARK    3  A    between atoms: C_2  and  C_14 
REMARK    4  A    between atoms: C_3  and  C_4 
REMARK    5  A    between atoms: C_14  and  O_15 
ROOT
HETATM    1  C   UNK N   1      31.684  17.153   6.580  0.00  0.00    -0.028 A 
HETATM    2  C   UNK N   1      31.005  16.424   5.605  0.00  0.00     0.096 A 
HETATM    3  N   UNK N   1      29.688  16.339   5.938  0.00  0.00    -0.365 N 
HETATM    4  C   UNK N   1      29.555  17.005   7.100  0.00  0.00     0.043 A 
HETATM    5  C   UNK N   1      30.751  17.509   7.513  0.00  0.00     0.001 A 
HETATM    6  C   UNK N   1      30.886  18.241   8.688  0.00  0.00     0.056 A 
HETATM    7  C   UNK N   1      29.734  18.453   9.460  0.00  0.00     0.117 A 
HETATM    8  F   UNK N   1      29.822  19.160  10.612  0.00  0.00    -0.206 F 
HETATM    9  C   UNK N   1      28.487  17.933   9.039  0.00  0.00     0.044 A 
HETATM   10  C   UNK N   1      28.389  17.196   7.841  0.00  0.00     0.033 A 
HETATM   11  H   UNK N   1      28.977  15.883   5.433  0.00  0.00     0.165 HD
ENDROOT
BRANCH   1  12
HETATM   12  C   UNK N   1      33.132  17.531   6.685  0.00  0.00     0.076 C 
BRANCH  12  13
HETATM   13  C   UNK N   1      33.977  16.992   7.836  0.00  0.00     0.177 C 
BRANCH  13  14
HETATM   14  N   UNK N   1      34.053  15.567   8.121  0.00  0.00    -0.417 N 
HETATM   15  H   UNK N   1      33.691  14.893   7.448  0.00  0.00     0.150 HD
HETATM   16  H   UNK N   1      34.469  15.244   8.994  0.00  0.00     0.150 HD
ENDBRANCH  13  14
BRANCH  13  17
HETATM   17  C   UNK N   1      34.766  17.937   8.687  0.00  0.00     0.163 C 
HETATM   18  O   UNK N   1      34.939  19.089   8.320  0.00  0.00    -0.648 OA
BRANCH  17  19
HETATM   19  O   UNK N   1      35.287  17.526   9.858  0.00  0.00    -0.775 OA
HETATM   20  H   UNK N   1      34.804  17.647  10.653  0.00  0.00     0.167 HD
ENDBRANCH  17  19
ENDBRANCH  13  17
ENDBRANCH  12  13
ENDBRANCH   1  12
TORSDOF 5
ENDMDL
MODEL 5
REMARK VINA RESULT:      -5.8     20.106     23.101
REMARK  5 active torsions:
REMARK  status: ('A' for Active; 'I' for Inactive)
REMARK    1  A    between atoms: C_2  and  N_1 
REMARK    2  A    between atoms: C_2  and  C_3 
REMARK    3  A    between atoms: C_2  and  C_14 
REMARK    4  A    between atoms: C_3  and  C_4 
REMARK    5  A    between atoms: C_14  and  O_15 
ROOT
HETATM    1  C   UNK N   1      35.929  13.972  13.461  0.00  0.00    -0.028 A 
HETATM    2  C   UNK N   1      36.718  14.885  14.161  0.00  0.00     0.096 A 
HETATM    3  N   UNK N   1      36.718  14.562  15.484  0.00  0.00    -0.365 N 
HETATM    4  C   UNK N   1      35.943  13.468  15.599  0.00  0.00     0.043 A 
HETATM    5  C   UNK N   1      35.451  13.088  14.387  0.00  0.00     0.001 A 
HETATM    6  C   UNK N   1      34.620  11.984  14.233  0.00  0.00     0.056 A 
HETATM    7  C   UNK N   1      34.290  11.250  15.382  0.00  0.00     0.117 A 
HETATM    8  F   UNK N   1      33.484  10.167  15.276  0.00  0.00    -0.206 F 
HETATM    9  C   UNK N   1      34.797  11.637  16.645  0.00  0.00     0.044 A 
HETATM   10  C   UNK N   1      35.637  12.764  16.763  0.00  0.00     0.033 A 
HETATM   11  H   UNK N   1      37.189  15.033  16.208  0.00  0.00     0.165 HD
ENDROOT
BRANCH   1  12
HETATM   12  C   UNK N   1      35.606  13.881  12.000  0.00  0.00     0.076 C 
BRANCH  12  13
HETATM   13  C   UNK N   1      34.939  15.059  11.294  0.00  0.00     0.177 C 
BRANCH  13  14
HETATM   14  N   UNK N   1      33.517  15.056  10.990  0.00  0.00    -0.417 N 
HETATM   15  H   UNK N   1      32.909  15.770  11.388  0.00  0.00     0.150 HD
HETATM   16  H   UNK N   1      33.128  14.339  10.377  0.00  0.00     0.150 HD
ENDBRANCH  13  14
BRANCH  13  17
HETATM   17  C   UNK N   1      35.751  16.259  10.918  0.00  0.00     0.163 C 
HETATM   18  O   UNK N   1      35.196  17.323  10.688  0.00  0.00    -0.648 OA
BRANCH  17  19
HETATM   19  O   UNK N   1      37.091  16.176  10.835  0.00  0.00    -0.775 OA
HETATM   20  H   UNK N   1      37.490  15.427  10.437  0.00  0.00     0.167 HD
ENDBRANCH  17  19
ENDBRANCH  13  17
ENDBRANCH  12  13
ENDBRANCH   1  12
TORSDOF 5
ENDMDL
MODEL 6
REMARK VINA RESULT:      -5.8     23.479     26.317
REMARK  5 active torsions:
REMARK  status: ('A' for Active; 'I' for Inactive)
REMARK    1  A    between atoms: C_2  and  N_1 
REMARK    2  A    between atoms: C_2  and  C_3 
REMARK    3  A    between atoms: C_2  and  C_14 
REMARK    4  A    between atoms: C_3  and  C_4 
REMARK    5  A    between atoms: C_14  and  O_15 
ROOT
HETATM    1  C   UNK N   1      35.101  13.003  16.994  0.00  0.00    -0.028 A 
HETATM    2  C   UNK N   1      35.262  14.033  17.920  0.00  0.00     0.096 A 
HETATM    3  N   UNK N   1      35.401  13.503  19.166  0.00  0.00    -0.365 N 
HETATM    4  C   UNK N   1      35.327  12.168  19.013  0.00  0.00     0.043 A 
HETATM    5  C   UNK N   1      35.145  11.836  17.704  0.00  0.00     0.001 A 
HETATM    6  C   UNK N   1      35.037  10.518  17.277  0.00  0.00     0.056 A 
HETATM    7  C   UNK N   1      35.122   9.509  18.249  0.00  0.00     0.117 A 
HETATM    8  F   UNK N   1      35.021   8.211  17.875  0.00  0.00    -0.206 F 
HETATM    9  C   UNK N   1      35.310   9.844  19.611  0.00  0.00     0.044 A 
HETATM   10  C   UNK N   1      35.416  11.194  20.006  0.00  0.00     0.033 A 
HETATM   11  H   UNK N   1      35.528  13.996  20.008  0.00  0.00     0.165 HD
ENDROOT
BRANCH   1  12
HETATM   12  C   UNK N   1      34.914  13.049  15.506  0.00  0.00     0.076 C 
BRANCH  12  13
HETATM   13  C   UNK N   1      36.089  13.410  14.602  0.00  0.00     0.177 C 
BRANCH  13  14
HETATM   14  N   UNK N   1      37.465  13.259  15.048  0.00  0.00    -0.417 N 
HETATM   15  H   UNK N   1      38.101  12.646  14.539  0.00  0.00     0.150 HD
HETATM   16  H   UNK N   1      37.794  13.767  15.869  0.00  0.00     0.150 HD
ENDBRANCH  13  14
BRANCH  13  17
HETATM   17  C   UNK N   1      35.835  13.915  13.216  0.00  0.00     0.163 C 
HETATM   18  O   UNK N   1      34.717  13.831  12.732  0.00  0.00    -0.648 OA
BRANCH  17  19
HETATM   19  O   UNK N   1      36.831  14.467  12.499  0.00  0.00    -0.775 OA
HETATM   20  H   UNK N   1      36.893  15.399  12.422  0.00  0.00     0.167 HD
ENDBRANCH  17  19
ENDBRANCH  13  17
ENDBRANCH  12  13
ENDBRANCH   1  12
TORSDOF 5
ENDMDL
MODEL 7
REMARK VINA RESULT:      -5.7      3.115      4.254
REMARK  5 active torsions:
REMARK  status: ('A' for Active; 'I' for Inactive)
REMARK    1  A    between atoms: C_2  and  N_1 
REMARK    2  A    between atoms: C_2  and  C_3 
REMARK    3  A    between atoms: C_2  and  C_14 
REMARK    4  A    between atoms: C_3  and  C_4 
REMARK    5  A    between atoms: C_14  and  O_15 
ROOT
HETATM    1  C   UNK N   1      25.755  27.295  -4.839  0.00  0.00    -0.028 A 
HETATM    2  C   UNK N   1      25.499  27.827  -3.575  0.00  0.00     0.096 A 
HETATM    3  N   UNK N   1      26.253  28.946  -3.394  0.00  0.00    -0.365 N 
HETATM    4  C   UNK N   1      26.963  29.102  -4.526  0.00  0.00     0.043 A 
HETATM    5  C   UNK N   1      26.681  28.115  -5.421  0.00  0.00     0.001 A 
HETATM    6  C   UNK N   1      27.283  28.047  -6.672  0.00  0.00     0.056 A 
HETATM    7  C   UNK N   1      28.212  29.045  -7.003  0.00  0.00     0.117 A 
HETATM    8  F   UNK N   1      28.822  29.016  -8.212  0.00  0.00    -0.206 F 
HETATM    9  C   UNK N   1      28.512  30.075  -6.080  0.00  0.00     0.044 A 
HETATM   10  C   UNK N   1      27.881  30.110  -4.820  0.00  0.00     0.033 A 
HETATM   11  H   UNK N   1      26.276  29.522  -2.597  0.00  0.00     0.165 HD
ENDROOT
BRANCH   1  12
HETATM   12  C   UNK N   1      25.189  26.085  -5.520  0.00  0.00     0.076 C 
BRANCH  12  13
HETATM   13  C   UNK N   1      25.781  24.707  -5.237  0.00  0.00     0.177 C 
BRANCH  13  14
HETATM   14  N   UNK N   1      25.433  23.550  -6.046  0.00  0.00    -0.417 N 
HETATM   15  H   UNK N   1      26.120  22.815  -6.208  0.00  0.00     0.150 HD
HETATM   16  H   UNK N   1      24.500  23.473  -6.452  0.00  0.00     0.150 HD
ENDBRANCH  13  14
BRANCH  13  17
HETATM   17  C   UNK N   1      26.758  24.531  -4.117  0.00  0.00     0.163 C 
HETATM   18  O   UNK N   1      26.365  24.189  -3.013  0.00  0.00    -0.648 OA
BRANCH  17  19
HETATM   19  O   UNK N   1      28.072  24.746  -4.320  0.00  0.00    -0.775 OA
HETATM   20  H   UNK N   1      28.471  24.479  -5.124  0.00  0.00     0.167 HD
ENDBRANCH  17  19
ENDBRANCH  13  17
ENDBRANCH  12  13
ENDBRANCH   1  12
TORSDOF 5
ENDMDL
MODEL 8
REMARK VINA RESULT:      -5.7     22.405     25.193
REMARK  5 active torsions:
REMARK  status: ('A' for Active; 'I' for Inactive)
REMARK    1  A    between atoms: C_2  and  N_1 
REMARK    2  A    between atoms: C_2  and  C_3 
REMARK    3  A    between atoms: C_2  and  C_14 
REMARK    4  A    between atoms: C_3  and  C_4 
REMARK    5  A    between atoms: C_14  and  O_15 
ROOT
HETATM    1  C   UNK N   1      34.925  11.285  15.393  0.00  0.00    -0.028 A 
HETATM    2  C   UNK N   1      35.080   9.927  15.674  0.00  0.00     0.096 A 
HETATM    3  N   UNK N   1      35.275   9.762  17.011  0.00  0.00    -0.365 N 
HETATM    4  C   UNK N   1      35.243  10.996  17.547  0.00  0.00     0.043 A 
HETATM    5  C   UNK N   1      35.032  11.939  16.588  0.00  0.00     0.001 A 
HETATM    6  C   UNK N   1      34.956  13.296  16.881  0.00  0.00     0.056 A 
HETATM    7  C   UNK N   1      35.105  13.684  18.221  0.00  0.00     0.117 A 
HETATM    8  F   UNK N   1      35.037  14.996  18.549  0.00  0.00    -0.206 F 
HETATM    9  C   UNK N   1      35.324  12.710  19.225  0.00  0.00     0.044 A 
HETATM   10  C   UNK N   1      35.396  11.342  18.889  0.00  0.00     0.033 A 
HETATM   11  H   UNK N   1      35.414   8.912  17.489  0.00  0.00     0.165 HD
ENDROOT
BRANCH   1  12
HETATM   12  C   UNK N   1      34.686  11.990  14.092  0.00  0.00     0.076 C 
BRANCH  12  13
HETATM   13  C   UNK N   1      35.776  12.876  13.495  0.00  0.00     0.177 C 
BRANCH  13  14
HETATM   14  N   UNK N   1      37.187  12.596  13.712  0.00  0.00    -0.417 N 
HETATM   15  H   UNK N   1      37.895  13.128  13.208  0.00  0.00     0.150 HD
HETATM   16  H   UNK N   1      37.467  11.867  14.368  0.00  0.00     0.150 HD
ENDBRANCH  13  14
BRANCH  13  17
HETATM   17  C   UNK N   1      35.400  14.053  12.650  0.00  0.00     0.163 C 
HETATM   18  O   UNK N   1      36.135  15.027  12.598  0.00  0.00    -0.648 OA
BRANCH  17  19
HETATM   19  O   UNK N   1      34.255  14.044  11.941  0.00  0.00    -0.775 OA
HETATM   20  H   UNK N   1      33.431  14.099  12.383  0.00  0.00     0.167 HD
ENDBRANCH  17  19
ENDBRANCH  13  17
ENDBRANCH  12  13
ENDBRANCH   1  12
TORSDOF 5
ENDMDL
MODEL 9
REMARK VINA RESULT:      -5.6     14.299     15.650
REMARK  5 active torsions:
REMARK  status: ('A' for Active; 'I' for Inactive)
REMARK    1  A    between atoms: C_2  and  N_1 
REMARK    2  A    between atoms: C_2  and  C_3 
REMARK    3  A    between atoms: C_2  and  C_14 
REMARK    4  A    between atoms: C_3  and  C_4 
REMARK    5  A    between atoms: C_14  and  O_15 
ROOT
HETATM    1  C   UNK N   1      32.967  17.274   7.418  0.00  0.00    -0.028 A 
HETATM    2  C   UNK N   1      32.998  16.660   6.166  0.00  0.00     0.096 A 
HETATM    3  N   UNK N   1      31.730  16.546   5.686  0.00  0.00    -0.365 N 
HETATM    4  C   UNK N   1      30.928  17.081   6.625  0.00  0.00     0.043 A 
HETATM    5  C   UNK N   1      31.652  17.531   7.688  0.00  0.00     0.001 A 
HETATM    6  C   UNK N   1      31.060  18.128   8.795  0.00  0.00     0.056 A 
HETATM    7  C   UNK N   1      29.663  18.261   8.795  0.00  0.00     0.117 A 
HETATM    8  F   UNK N   1      29.047  18.837   9.854  0.00  0.00    -0.206 F 
HETATM    9  C   UNK N   1      28.902  17.796   7.696  0.00  0.00     0.044 A 
HETATM   10  C   UNK N   1      29.539  17.196   6.590  0.00  0.00     0.033 A 
HETATM   11  H   UNK N   1      31.454  16.152   4.828  0.00  0.00     0.165 HD
ENDROOT
BRANCH   1  12
HETATM   12  C   UNK N   1      34.080  17.630   8.358  0.00  0.00     0.076 C 
BRANCH  12  13
HETATM   13  C   UNK N   1      34.371  16.739   9.563  0.00  0.00     0.177 C 
BRANCH  13  14
HETATM   14  N   UNK N   1      35.160  17.217  10.688  0.00  0.00    -0.417 N 
HETATM   15  H   UNK N   1      35.096  16.748  11.591  0.00  0.00     0.150 HD
HETATM   16  H   UNK N   1      35.778  18.020  10.573  0.00  0.00     0.150 HD
ENDBRANCH  13  14
BRANCH  13  17
HETATM   17  C   UNK N   1      33.822  15.347   9.611  0.00  0.00     0.163 C 
HETATM   18  O   UNK N   1      34.340  14.464   8.945  0.00  0.00    -0.648 OA
BRANCH  17  19
HETATM   19  O   UNK N   1      32.761  15.060  10.388  0.00  0.00    -0.775 OA
HETATM   20  H   UNK N   1      32.283  15.752  10.802  0.00  0.00     0.167 HD
ENDBRANCH  17  19
ENDBRANCH  13  17
ENDBRANCH  12  13
ENDBRANCH   1  12
TORSDOF 5
ENDMDL
