MODEL 1
REMARK VINA RESULT:      -3.7      0.000      0.000
REMARK  5 active torsions:
REMARK  status: ('A' for Active; 'I' for Inactive)
REMARK    1  A    between atoms: C_2  and  C_1 
REMARK    2  A    between atoms: S_8  and  C_1 
REMARK    3  A    between atoms: C_3  and  C_2 
REMARK    4  A    between atoms: C_2  and  N_4 
REMARK    5  A    between atoms: O_7  and  C_3 
ROOT
HETATM    1  C   UNK N   1      34.812  14.985  11.313  0.00  0.00     0.158 C 
ENDROOT
BRANCH   1   2
HETATM    2  C   UNK N   1      35.098  13.730  12.161  0.00  0.00     0.103 C 
BRANCH   2   3
HETATM    3  S   UNK N   1      36.089  13.951  13.687  0.00  0.00    -0.180 SA
HETATM    4  H   UNK N   1      36.839  12.922  14.166  0.00  0.00     0.101 HD
ENDBRANCH   2   3
ENDBRANCH   1   2
BRANCH   1   5
HETATM    5  C   UNK N   1      35.645  16.170  10.892  0.00  0.00     0.132 C 
HETATM    6  N   UNK N   1      35.070  17.269  10.550  0.00  0.00    -0.382 N 
HETATM    7  H   UNK N   1      34.088  17.336  10.562  0.00  0.00     0.158 HD
ATOM      8  HN  UNK N   1      35.632  18.073  10.265  1.00  0.00     0.158 HD
BRANCH   5   9
HETATM    9  O   UNK N   1      36.989  16.097  10.869  0.00  0.00    -0.348 OA
HETATM   10  H   UNK N   1      37.413  15.261  10.855  0.00  0.00     0.219 HD
ENDBRANCH   5   9
ENDBRANCH   1   5
BRANCH   1  11
HETATM   11  N   UNK N   1      33.432  14.950  10.852  0.00  0.00    -0.419 N 
HETATM   12  H   UNK N   1      32.668  15.080  11.517  0.00  0.00     0.150 HD
HETATM   13  H   UNK N   1      33.227  14.795   9.865  0.00  0.00     0.150 HD
ENDBRANCH   1  11
TORSDOF 5
ENDMDL
MODEL 2
REMARK VINA RESULT:      -3.6     17.578     17.794
REMARK  5 active torsions:
REMARK  status: ('A' for Active; 'I' for Inactive)
REMARK    1  A    between atoms: C_2  and  C_1 
REMARK    2  A    between atoms: S_8  and  C_1 
REMARK    3  A    between atoms: C_3  and  C_2 
REMARK    4  A    between atoms: C_2  and  N_4 
REMARK    5  A    between atoms: O_7  and  C_3 
ROOT
HETATM    1  C   UNK N   1      20.254  19.292   2.425  0.00  0.00     0.158 C 
ENDROOT
BRANCH   1   2
HETATM    2  C   UNK N   1      21.004  18.152   3.141  0.00  0.00     0.103 C 
BRANCH   2   3
HETATM    3  S   UNK N   1      21.461  18.415   4.896  0.00  0.00    -0.180 SA
HETATM    4  H   UNK N   1      20.590  19.030   5.741  0.00  0.00     0.101 HD
ENDBRANCH   2   3
ENDBRANCH   1   2
BRANCH   1   5
HETATM    5  C   UNK N   1      20.681  20.618   1.845  0.00  0.00     0.132 C 
HETATM    6  N   UNK N   1      20.380  20.914   0.630  0.00  0.00    -0.382 N 
HETATM    7  H   UNK N   1      19.872  20.275   0.078  0.00  0.00     0.158 HD
ATOM      8  HN  UNK N   1      20.668  21.810   0.236  1.00  0.00     0.158 HD
BRANCH   5   9
HETATM    9  O   UNK N   1      21.377  21.502   2.584  0.00  0.00    -0.348 OA
HETATM   10  H   UNK N   1      21.654  21.275   3.450  0.00  0.00     0.219 HD
ENDBRANCH   5   9
ENDBRANCH   1   5
BRANCH   1  11
HETATM   11  N   UNK N   1      18.844  18.947   2.317  0.00  0.00    -0.419 N 
HETATM   12  H   UNK N   1      18.462  18.634   1.423  0.00  0.00     0.150 HD
HETATM   13  H   UNK N   1      18.237  19.017   3.133  0.00  0.00     0.150 HD
ENDBRANCH   1  11
TORSDOF 5
ENDMDL
MODEL 3
REMARK VINA RESULT:      -3.5     11.679     12.243
REMARK  5 active torsions:
REMARK  status: ('A' for Active; 'I' for Inactive)
REMARK    1  A    between atoms: C_2  and  C_1 
REMARK    2  A    between atoms: S_8  and  C_1 
REMARK    3  A    between atoms: C_3  and  C_2 
REMARK    4  A    between atoms: C_2  and  N_4 
REMARK    5  A    between atoms: O_7  and  C_3 
ROOT
HETATM    1  C   UNK N   1      24.187  12.283  10.659  0.00  0.00     0.158 C 
ENDROOT
BRANCH   1   2
HETATM    2  C   UNK N   1      24.034  11.904   9.172  0.00  0.00     0.103 C 
BRANCH   2   3
HETATM    3  S   UNK N   1      24.700  13.076   7.931  0.00  0.00    -0.180 SA
HETATM    4  H   UNK N   1      24.214  13.069   6.660  0.00  0.00     0.101 HD
ENDBRANCH   2   3
ENDBRANCH   1   2
BRANCH   1   5
HETATM    5  C   UNK N   1      23.352  12.029  11.890  0.00  0.00     0.132 C 
HETATM    6  N   UNK N   1      22.146  11.595  11.769  0.00  0.00    -0.382 N 
HETATM    7  H   UNK N   1      21.769  11.429  10.874  0.00  0.00     0.158 HD
ATOM      8  HN  UNK N   1      21.580  11.422  12.601  1.00  0.00     0.158 HD
BRANCH   5   9
HETATM    9  O   UNK N   1      23.851  12.250  13.120  0.00  0.00    -0.348 OA
HETATM   10  H   UNK N   1      23.450  12.885  13.682  0.00  0.00     0.219 HD
ENDBRANCH   5   9
ENDBRANCH   1   5
BRANCH   1  11
HETATM   11  N   UNK N   1      25.418  13.037  10.839  0.00  0.00    -0.419 N 
HETATM   12  H   UNK N   1      26.320  12.589  10.674  0.00  0.00     0.150 HD
HETATM   13  H   UNK N   1      25.380  14.014  11.130  0.00  0.00     0.150 HD
ENDBRANCH   1  11
TORSDOF 5
ENDMDL
MODEL 4
REMARK VINA RESULT:      -3.4     12.375     12.836
REMARK  5 active torsions:
REMARK  status: ('A' for Active; 'I' for Inactive)
REMARK    1  A    between atoms: C_2  and  C_1 
REMARK    2  A    between atoms: S_8  and  C_1 
REMARK    3  A    between atoms: C_3  and  C_2 
REMARK    4  A    between atoms: C_2  and  N_4 
REMARK    5  A    between atoms: O_7  and  C_3 
ROOT
HETATM    1  C   UNK N   1      22.810  12.085  11.341  0.00  0.00     0.158 C 
ENDROOT
BRANCH   1   2
HETATM    2  C   UNK N   1      21.391  12.361  10.805  0.00  0.00     0.103 C 
BRANCH   2   3
HETATM    3  S   UNK N   1      21.166  13.829   9.730  0.00  0.00    -0.180 SA
HETATM    4  H   UNK N   1      21.637  13.815   8.453  0.00  0.00     0.101 HD
ENDBRANCH   2   3
ENDBRANCH   1   2
BRANCH   1   5
HETATM    5  C   UNK N   1      24.190  12.197  10.742  0.00  0.00     0.132 C 
HETATM    6  N   UNK N   1      24.368  11.955   9.490  0.00  0.00    -0.382 N 
HETATM    7  H   UNK N   1      23.604  11.697   8.925  0.00  0.00     0.158 HD
ATOM      8  HN  UNK N   1      25.301  12.031   9.083  1.00  0.00     0.158 HD
BRANCH   5   9
HETATM    9  O   UNK N   1      25.246  12.549  11.500  0.00  0.00    -0.348 OA
HETATM   10  H   UNK N   1      25.356  13.441  11.766  0.00  0.00     0.219 HD
ENDBRANCH   5   9
ENDBRANCH   1   5
BRANCH   1  11
HETATM   11  N   UNK N   1      22.723  11.627  12.719  0.00  0.00    -0.419 N 
HETATM   12  H   UNK N   1      22.186  12.163  13.402  0.00  0.00     0.150 HD
HETATM   13  H   UNK N   1      23.199  10.771  13.004  0.00  0.00     0.150 HD
ENDBRANCH   1  11
TORSDOF 5
ENDMDL
MODEL 5
REMARK VINA RESULT:      -3.3      3.574      3.940
REMARK  5 active torsions:
REMARK  status: ('A' for Active; 'I' for Inactive)
REMARK    1  A    between atoms: C_2  and  C_1 
REMARK    2  A    between atoms: S_8  and  C_1 
REMARK    3  A    between atoms: C_3  and  C_2 
REMARK    4  A    between atoms: C_2  and  N_4 
REMARK    5  A    between atoms: O_7  and  C_3 
ROOT
HETATM    1  C   UNK N   1      34.682  16.936   9.260  0.00  0.00     0.158 C 
ENDROOT
BRANCH   1   2
HETATM    2  C   UNK N   1      34.486  15.419   9.065  0.00  0.00     0.103 C 
BRANCH   2   3
HETATM    3  S   UNK N   1      35.319  14.638   7.632  0.00  0.00    -0.180 SA
HETATM    4  H   UNK N   1      35.051  13.343   7.312  0.00  0.00     0.101 HD
ENDBRANCH   2   3
ENDBRANCH   1   2
BRANCH   1   5
HETATM    5  C   UNK N   1      34.542  18.130   8.349  0.00  0.00     0.132 C 
HETATM    6  N   UNK N   1      33.687  18.107   7.388  0.00  0.00    -0.382 N 
HETATM    7  H   UNK N   1      33.125  17.310   7.247  0.00  0.00     0.158 HD
ATOM      8  HN  UNK N   1      33.591  18.914   6.770  1.00  0.00     0.158 HD
BRANCH   5   9
HETATM    9  O   UNK N   1      35.302  19.227   8.527  0.00  0.00    -0.348 OA
HETATM   10  H   UNK N   1      35.380  19.860   7.840  0.00  0.00     0.219 HD
ENDBRANCH   5   9
ENDBRANCH   1   5
BRANCH   1  11
HETATM   11  N   UNK N   1      35.081  17.197  10.635  0.00  0.00    -0.419 N 
HETATM   12  H   UNK N   1      34.672  16.654  11.397  0.00  0.00     0.150 HD
HETATM   13  H   UNK N   1      35.769  17.921  10.839  0.00  0.00     0.150 HD
ENDBRANCH   1  11
TORSDOF 5
ENDMDL
MODEL 6
REMARK VINA RESULT:      -3.3     17.821     18.041
REMARK  5 active torsions:
REMARK  status: ('A' for Active; 'I' for Inactive)
REMARK    1  A    between atoms: C_2  and  C_1 
REMARK    2  A    between atoms: S_8  and  C_1 
REMARK    3  A    between atoms: C_3  and  C_2 
REMARK    4  A    between atoms: C_2  and  N_4 
REMARK    5  A    between atoms: O_7  and  C_3 
ROOT
HETATM    1  C   UNK N   1      20.757  19.279   2.417  0.00  0.00     0.158 C 
ENDROOT
BRANCH   1   2
HETATM    2  C   UNK N   1      19.772  18.112   2.207  0.00  0.00     0.103 C 
BRANCH   2   3
HETATM    3  S   UNK N   1      20.046  17.028   0.755  0.00  0.00    -0.180 SA
HETATM    4  H   UNK N   1      20.337  15.711   0.935  0.00  0.00     0.101 HD
ENDBRANCH   2   3
ENDBRANCH   1   2
BRANCH   1   5
HETATM    5  C   UNK N   1      20.875  20.663   1.827  0.00  0.00     0.132 C 
HETATM    6  N   UNK N   1      20.430  20.895   0.642  0.00  0.00    -0.382 N 
HETATM    7  H   UNK N   1      20.013  20.170   0.121  0.00  0.00     0.158 HD
ATOM      8  HN  UNK N   1      20.508  21.830   0.241  1.00  0.00     0.158 HD
BRANCH   5   9
HETATM    9  O   UNK N   1      21.441  21.665   2.524  0.00  0.00    -0.348 OA
HETATM   10  H   UNK N   1      21.012  22.010   3.284  0.00  0.00     0.219 HD
ENDBRANCH   5   9
ENDBRANCH   1   5
BRANCH   1  11
HETATM   11  N   UNK N   1      21.752  18.896   3.408  0.00  0.00    -0.419 N 
HETATM   12  H   UNK N   1      22.641  18.493   3.109  0.00  0.00     0.150 HD
HETATM   13  H   UNK N   1      21.562  19.031   4.401  0.00  0.00     0.150 HD
ENDBRANCH   1  11
TORSDOF 5
ENDMDL
MODEL 7
REMARK VINA RESULT:      -3.3     12.812     13.289
REMARK  5 active torsions:
REMARK  status: ('A' for Active; 'I' for Inactive)
REMARK    1  A    between atoms: C_2  and  C_1 
REMARK    2  A    between atoms: S_8  and  C_1 
REMARK    3  A    between atoms: C_3  and  C_2 
REMARK    4  A    between atoms: C_2  and  N_4 
REMARK    5  A    between atoms: O_7  and  C_3 
ROOT
HETATM    1  C   UNK N   1      22.582  12.102  10.687  0.00  0.00     0.158 C 
ENDROOT
BRANCH   1   2
HETATM    2  C   UNK N   1      21.177  12.695  10.461  0.00  0.00     0.103 C 
BRANCH   2   3
HETATM    3  S   UNK N   1      21.059  14.231   9.469  0.00  0.00    -0.180 SA
HETATM    4  H   UNK N   1      21.342  14.204   8.138  0.00  0.00     0.101 HD
ENDBRANCH   2   3
ENDBRANCH   1   2
BRANCH   1   5
HETATM    5  C   UNK N   1      23.474  11.966  11.896  0.00  0.00     0.132 C 
HETATM    6  N   UNK N   1      22.971  11.617  13.028  0.00  0.00    -0.382 N 
HETATM    7  H   UNK N   1      22.006  11.439  13.104  0.00  0.00     0.158 HD
ATOM      8  HN  UNK N   1      23.573  11.524  13.847  1.00  0.00     0.158 HD
BRANCH   5   9
HETATM    9  O   UNK N   1      24.796  12.205  11.810  0.00  0.00    -0.348 OA
HETATM   10  H   UNK N   1      25.106  13.072  11.632  0.00  0.00     0.219 HD
ENDBRANCH   5   9
ENDBRANCH   1   5
BRANCH   1  11
HETATM   11  N   UNK N   1      23.092  11.579   9.428  0.00  0.00    -0.419 N 
HETATM   12  H   UNK N   1      23.572  10.678   9.406  0.00  0.00     0.150 HD
HETATM   13  H   UNK N   1      22.969  12.111   8.566  0.00  0.00     0.150 HD
ENDBRANCH   1  11
TORSDOF 5
ENDMDL
MODEL 8
REMARK VINA RESULT:      -3.3     13.865     14.030
REMARK  5 active torsions:
REMARK  status: ('A' for Active; 'I' for Inactive)
REMARK    1  A    between atoms: C_2  and  C_1 
REMARK    2  A    between atoms: S_8  and  C_1 
REMARK    3  A    between atoms: C_3  and  C_2 
REMARK    4  A    between atoms: C_2  and  N_4 
REMARK    5  A    between atoms: O_7  and  C_3 
ROOT
HETATM    1  C   UNK N   1      44.498  22.129   3.230  0.00  0.00     0.158 C 
ENDROOT
BRANCH   1   2
HETATM    2  C   UNK N   1      44.603  20.938   2.257  0.00  0.00     0.103 C 
BRANCH   2   3
HETATM    3  S   UNK N   1      44.262  19.268   2.928  0.00  0.00    -0.180 SA
HETATM    4  H   UNK N   1      43.223  18.537   2.438  0.00  0.00     0.101 HD
ENDBRANCH   2   3
ENDBRANCH   1   2
BRANCH   1   5
HETATM    5  C   UNK N   1      43.479  23.224   3.431  0.00  0.00     0.132 C 
HETATM    6  N   UNK N   1      42.545  23.398   2.563  0.00  0.00    -0.382 N 
HETATM    7  H   UNK N   1      42.496  22.819   1.768  0.00  0.00     0.158 HD
ATOM      8  HN  UNK N   1      41.854  24.138   2.698  1.00  0.00     0.158 HD
BRANCH   5   9
HETATM    9  O   UNK N   1      43.530  24.025   4.512  0.00  0.00    -0.348 OA
HETATM   10  H   UNK N   1      43.603  23.653   5.369  0.00  0.00     0.219 HD
ENDBRANCH   5   9
ENDBRANCH   1   5
BRANCH   1  11
HETATM   11  N   UNK N   1      45.656  22.134   4.112  0.00  0.00    -0.419 N 
HETATM   12  H   UNK N   1      46.080  23.019   4.392  0.00  0.00     0.150 HD
HETATM   13  H   UNK N   1      46.044  21.253   4.450  0.00  0.00     0.150 HD
ENDBRANCH   1  11
TORSDOF 5
ENDMDL
MODEL 9
REMARK VINA RESULT:      -3.2     13.279     13.692
REMARK  5 active torsions:
REMARK  status: ('A' for Active; 'I' for Inactive)
REMARK    1  A    between atoms: C_2  and  C_1 
REMARK    2  A    between atoms: S_8  and  C_1 
REMARK    3  A    between atoms: C_3  and  C_2 
REMARK    4  A    between atoms: C_2  and  N_4 
REMARK    5  A    between atoms: O_7  and  C_3 
ROOT
HETATM    1  C   UNK N   1      42.563  22.673   2.687  0.00  0.00     0.158 C 
ENDROOT
BRANCH   1   2
HETATM    2  C   UNK N   1      42.040  21.253   2.395  0.00  0.00     0.103 C 
BRANCH   2   3
HETATM    3  S   UNK N   1      40.224  21.030   2.278  0.00  0.00    -0.180 SA
HETATM    4  H   UNK N   1      39.687  19.782   2.339  0.00  0.00     0.101 HD
ENDBRANCH   2   3
ENDBRANCH   1   2
BRANCH   1   5
HETATM    5  C   UNK N   1      43.723  23.213   3.487  0.00  0.00     0.132 C 
HETATM    6  N   UNK N   1      44.924  22.851   3.199  0.00  0.00    -0.382 N 
HETATM    7  H   UNK N   1      45.085  22.222   2.458  0.00  0.00     0.158 HD
ATOM      8  HN  UNK N   1      45.710  23.215   3.739  1.00  0.00     0.158 HD
BRANCH   5   9
HETATM    9  O   UNK N   1      43.521  24.072   4.503  0.00  0.00    -0.348 OA
HETATM   10  H   UNK N   1      44.245  24.364   5.022  0.00  0.00     0.219 HD
ENDBRANCH   5   9
ENDBRANCH   1   5
BRANCH   1  11
HETATM   11  N   UNK N   1      41.714  23.646   2.016  0.00  0.00    -0.419 N 
HETATM   12  H   UNK N   1      40.995  24.145   2.542  0.00  0.00     0.150 HD
HETATM   13  H   UNK N   1      41.837  23.831   1.020  0.00  0.00     0.150 HD
ENDBRANCH   1  11
TORSDOF 5
ENDMDL
