MODEL 1
REMARK VINA RESULT:      -6.6      0.000      0.000
REMARK  6 active torsions:
REMARK  status: ('A' for Active; 'I' for Inactive)
REMARK    1  A    between atoms: C_5  and  N_4 
REMARK    2  A    between atoms: C_8  and  C_9 
REMARK    3  A    between atoms: C_9  and  O_10 
REMARK    4  A    between atoms: O_10  and  P_11 
REMARK    5  A    between atoms: P_11  and  O_12 
REMARK    6  A    between atoms: P_11  and  O_13 
ROOT
HETATM    1  C   UNK N   1      21.901  17.278   6.122  0.00  0.00     0.232 C 
HETATM    2  C   UNK N   1      23.234  16.830   5.554  0.00  0.00     0.057 C 
HETATM    3  C   UNK N   1      23.211  17.430   4.186  0.00  0.00     0.038 C 
HETATM    4  C   UNK N   1      21.729  17.558   3.887  0.00  0.00     0.148 C 
HETATM    5  O   UNK N   1      20.985  17.348   5.059  0.00  0.00    -0.359 OA
ENDROOT
BRANCH   1   6
HETATM    6  N   UNK N   1      21.358  16.374   7.149  0.00  0.00    -0.282 N 
HETATM    7  C   UNK N   1      21.642  15.041   7.128  0.00  0.00     0.110 A 
HETATM    8  C   UNK N   1      21.066  14.175   8.053  0.00  0.00     0.022 A 
HETATM    9  C   UNK N   1      21.384  12.720   7.995  0.00  0.00     0.056 C 
HETATM   10  C   UNK N   1      20.184  14.694   9.003  0.00  0.00     0.256 A 
HETATM   11  N   UNK N   1      19.926  16.036   9.024  0.00  0.00    -0.275 N 
HETATM   12  O   UNK N   1      19.641  13.962   9.811  0.00  0.00    -0.267 OA
HETATM   13  C   UNK N   1      20.504  16.880   8.112  0.00  0.00     0.331 A 
HETATM   14  H   UNK N   1      19.316  16.402   9.704  0.00  0.00     0.173 HD
HETATM   15  O   UNK N   1      20.244  18.069   8.150  0.00  0.00    -0.246 OA
ENDBRANCH   1   6
BRANCH   4  16
HETATM   16  C   UNK N   1      21.403  18.931   3.324  0.00  0.00     0.212 C 
BRANCH  16  17
HETATM   17  O   UNK N   1      21.222  18.844   1.937  0.00  0.00    -0.295 OA
BRANCH  17  18
HETATM   18  P   UNK N   1      20.639  20.406   1.454  0.00  0.00     0.390 P 
HETATM   19  O   UNK N   1      22.137  20.695   1.748  0.00  0.00    -0.632 OA
BRANCH  18  20
HETATM   20  O   UNK N   1      21.168  21.156  -0.017  0.00  0.00    -0.307 OA
HETATM   21  H   UNK N   1      21.909  21.521  -0.527  0.00  0.00     0.222 HD
ENDBRANCH  18  20
BRANCH  18  22
HETATM   22  O   UNK N   1      20.529  19.321   0.100  0.00  0.00    -0.307 OA
HETATM   23  H   UNK N   1      20.538  19.495  -0.854  0.00  0.00     0.222 HD
ENDBRANCH  18  22
ENDBRANCH  17  18
ENDBRANCH  16  17
ENDBRANCH   4  16
TORSDOF 6
ENDMDL
MODEL 2
REMARK VINA RESULT:      -6.6     15.147     15.873
REMARK  6 active torsions:
REMARK  status: ('A' for Active; 'I' for Inactive)
REMARK    1  A    between atoms: C_5  and  N_4 
REMARK    2  A    between atoms: C_8  and  C_9 
REMARK    3  A    between atoms: C_9  and  O_10 
REMARK    4  A    between atoms: O_10  and  P_11 
REMARK    5  A    between atoms: P_11  and  O_12 
REMARK    6  A    between atoms: P_11  and  O_13 
ROOT
HETATM    1  C   UNK N   1      36.062  14.571  12.563  0.00  0.00     0.232 C 
HETATM    2  C   UNK N   1      36.752  13.882  11.401  0.00  0.00     0.057 C 
HETATM    3  C   UNK N   1      36.311  14.709  10.238  0.00  0.00     0.038 C 
HETATM    4  C   UNK N   1      34.996  15.301  10.710  0.00  0.00     0.148 C 
HETATM    5  O   UNK N   1      34.846  15.092  12.091  0.00  0.00    -0.359 OA
ENDROOT
BRANCH   1   6
HETATM    6  N   UNK N   1      35.780  13.680  13.700  0.00  0.00    -0.282 N 
HETATM    7  C   UNK N   1      34.946  12.610  13.559  0.00  0.00     0.110 A 
HETATM    8  C   UNK N   1      34.618  11.814  14.652  0.00  0.00     0.022 A 
HETATM    9  C   UNK N   1      33.693  10.660  14.470  0.00  0.00     0.056 C 
HETATM   10  C   UNK N   1      35.153  12.133  15.902  0.00  0.00     0.256 A 
HETATM   11  N   UNK N   1      36.002  13.196  16.023  0.00  0.00    -0.275 N 
HETATM   12  O   UNK N   1      34.867  11.474  16.887  0.00  0.00    -0.267 OA
HETATM   13  C   UNK N   1      36.324  13.970  14.938  0.00  0.00     0.331 A 
HETATM   14  H   UNK N   1      36.391  13.411  16.902  0.00  0.00     0.173 HD
HETATM   15  O   UNK N   1      37.075  14.918  15.081  0.00  0.00    -0.246 OA
ENDBRANCH   1   6
BRANCH   4  16
HETATM   16  C   UNK N   1      34.932  16.790  10.417  0.00  0.00     0.212 C 
BRANCH  16  17
HETATM   17  O   UNK N   1      35.438  17.044   9.135  0.00  0.00    -0.295 OA
BRANCH  17  18
HETATM   18  P   UNK N   1      34.095  17.664   8.228  0.00  0.00     0.390 P 
HETATM   19  O   UNK N   1      35.010  18.914   8.350  0.00  0.00    -0.632 OA
BRANCH  18  20
HETATM   20  O   UNK N   1      34.269  18.160   6.576  0.00  0.00    -0.307 OA
HETATM   21  H   UNK N   1      34.872  18.411   5.858  0.00  0.00     0.222 HD
ENDBRANCH  18  20
BRANCH  18  22
HETATM   22  O   UNK N   1      34.909  16.460   7.275  0.00  0.00    -0.307 OA
HETATM   23  H   UNK N   1      35.648  16.538   6.651  0.00  0.00     0.222 HD
ENDBRANCH  18  22
ENDBRANCH  17  18
ENDBRANCH  16  17
ENDBRANCH   4  16
TORSDOF 6
ENDMDL
MODEL 3
REMARK VINA RESULT:      -6.5      9.338     10.897
REMARK  6 active torsions:
REMARK  status: ('A' for Active; 'I' for Inactive)
REMARK    1  A    between atoms: C_5  and  N_4 
REMARK    2  A    between atoms: C_8  and  C_9 
REMARK    3  A    between atoms: C_9  and  O_10 
REMARK    4  A    between atoms: O_10  and  P_11 
REMARK    5  A    between atoms: P_11  and  O_12 
REMARK    6  A    between atoms: P_11  and  O_13 
ROOT
HETATM    1  C   UNK N   1      29.448  17.007   6.994  0.00  0.00     0.232 C 
HETATM    2  C   UNK N   1      29.487  15.959   5.898  0.00  0.00     0.057 C 
HETATM    3  C   UNK N   1      30.861  15.394   6.052  0.00  0.00     0.038 C 
HETATM    4  C   UNK N   1      31.636  16.531   6.693  0.00  0.00     0.148 C 
HETATM    5  O   UNK N   1      30.747  17.522   7.141  0.00  0.00    -0.359 OA
ENDROOT
BRANCH   1   6
HETATM    6  N   UNK N   1      28.530  18.124   6.717  0.00  0.00    -0.282 N 
HETATM    7  C   UNK N   1      28.249  18.496   5.435  0.00  0.00     0.110 A 
HETATM    8  C   UNK N   1      27.443  19.600   5.175  0.00  0.00     0.022 A 
HETATM    9  C   UNK N   1      27.167  19.992   3.764  0.00  0.00     0.056 C 
HETATM   10  C   UNK N   1      26.930  20.328   6.251  0.00  0.00     0.256 A 
HETATM   11  N   UNK N   1      27.204  19.930   7.529  0.00  0.00    -0.275 N 
HETATM   12  O   UNK N   1      26.243  21.316   6.060  0.00  0.00    -0.267 OA
HETATM   13  C   UNK N   1      27.994  18.837   7.773  0.00  0.00     0.331 A 
HETATM   14  H   UNK N   1      26.829  20.435   8.286  0.00  0.00     0.173 HD
HETATM   15  O   UNK N   1      28.229  18.515   8.924  0.00  0.00    -0.246 OA
ENDBRANCH   1   6
BRANCH   4  16
HETATM   16  C   UNK N   1      32.465  16.034   7.864  0.00  0.00     0.212 C 
BRANCH  16  17
HETATM   17  O   UNK N   1      33.785  16.488   7.737  0.00  0.00    -0.295 OA
BRANCH  17  18
HETATM   18  P   UNK N   1      33.759  18.128   8.306  0.00  0.00     0.390 P 
HETATM   19  O   UNK N   1      34.539  17.404   9.437  0.00  0.00    -0.632 OA
BRANCH  18  20
HETATM   20  O   UNK N   1      35.210  19.070   8.419  0.00  0.00    -0.307 OA
HETATM   21  H   UNK N   1      36.155  19.143   8.210  0.00  0.00     0.222 HD
ENDBRANCH  18  20
BRANCH  18  22
HETATM   22  O   UNK N   1      34.694  18.055   6.842  0.00  0.00    -0.307 OA
HETATM   23  H   UNK N   1      35.624  18.271   6.672  0.00  0.00     0.222 HD
ENDBRANCH  18  22
ENDBRANCH  17  18
ENDBRANCH  16  17
ENDBRANCH   4  16
TORSDOF 6
ENDMDL
MODEL 4
REMARK VINA RESULT:      -6.3     12.126     13.204
REMARK  6 active torsions:
REMARK  status: ('A' for Active; 'I' for Inactive)
REMARK    1  A    between atoms: C_5  and  N_4 
REMARK    2  A    between atoms: C_8  and  C_9 
REMARK    3  A    between atoms: C_9  and  O_10 
REMARK    4  A    between atoms: O_10  and  P_11 
REMARK    5  A    between atoms: P_11  and  O_12 
REMARK    6  A    between atoms: P_11  and  O_13 
ROOT
HETATM    1  C   UNK N   1      33.766  16.759   8.923  0.00  0.00     0.232 C 
HETATM    2  C   UNK N   1      34.322  17.031   7.538  0.00  0.00     0.057 C 
HETATM    3  C   UNK N   1      33.082  17.291   6.747  0.00  0.00     0.038 C 
HETATM    4  C   UNK N   1      32.013  16.536   7.516  0.00  0.00     0.148 C 
HETATM    5  O   UNK N   1      32.513  16.144   8.768  0.00  0.00    -0.359 OA
ENDROOT
BRANCH   1   6
HETATM    6  N   UNK N   1      34.619  15.885   9.744  0.00  0.00    -0.282 N 
HETATM    7  C   UNK N   1      34.399  14.540   9.794  0.00  0.00     0.110 A 
HETATM    8  C   UNK N   1      35.155  13.724  10.630  0.00  0.00     0.022 A 
HETATM    9  C   UNK N   1      34.881  12.260  10.674  0.00  0.00     0.056 C 
HETATM   10  C   UNK N   1      36.143  14.308  11.427  0.00  0.00     0.256 A 
HETATM   11  N   UNK N   1      36.364  15.654  11.351  0.00  0.00    -0.275 N 
HETATM   12  O   UNK N   1      36.806  13.629  12.190  0.00  0.00    -0.267 OA
HETATM   13  C   UNK N   1      35.618  16.447  10.519  0.00  0.00     0.331 A 
HETATM   14  H   UNK N   1      37.071  16.062  11.902  0.00  0.00     0.173 HD
HETATM   15  O   UNK N   1      35.833  17.645  10.482  0.00  0.00    -0.246 OA
ENDBRANCH   1   6
BRANCH   4  16
HETATM   16  C   UNK N   1      30.776  17.394   7.715  0.00  0.00     0.212 C 
BRANCH  16  17
HETATM   17  O   UNK N   1      30.089  16.976   8.862  0.00  0.00    -0.295 OA
BRANCH  17  18
HETATM   18  P   UNK N   1      29.145  18.348   9.355  0.00  0.00     0.390 P 
HETATM   19  O   UNK N   1      28.836  18.269   7.834  0.00  0.00    -0.632 OA
BRANCH  18  20
HETATM   20  O   UNK N   1      27.412  18.311   9.330  0.00  0.00    -0.307 OA
HETATM   21  H   UNK N   1      26.597  18.537   8.853  0.00  0.00     0.222 HD
ENDBRANCH  18  20
BRANCH  18  22
HETATM   22  O   UNK N   1      28.518  16.925  10.132  0.00  0.00    -0.307 OA
HETATM   23  H   UNK N   1      28.469  16.684  11.070  0.00  0.00     0.222 HD
ENDBRANCH  18  22
ENDBRANCH  17  18
ENDBRANCH  16  17
ENDBRANCH   4  16
TORSDOF 6
ENDMDL
MODEL 5
REMARK VINA RESULT:      -6.3     11.406     13.146
REMARK  6 active torsions:
REMARK  status: ('A' for Active; 'I' for Inactive)
REMARK    1  A    between atoms: C_5  and  N_4 
REMARK    2  A    between atoms: C_8  and  C_9 
REMARK    3  A    between atoms: C_9  and  O_10 
REMARK    4  A    between atoms: O_10  and  P_11 
REMARK    5  A    between atoms: P_11  and  O_12 
REMARK    6  A    between atoms: P_11  and  O_13 
ROOT
HETATM    1  C   UNK N   1      32.656  16.735   7.566  0.00  0.00     0.232 C 
HETATM    2  C   UNK N   1      33.411  17.981   7.141  0.00  0.00     0.057 C 
HETATM    3  C   UNK N   1      34.602  17.949   8.043  0.00  0.00     0.038 C 
HETATM    4  C   UNK N   1      34.111  17.159   9.242  0.00  0.00     0.148 C 
HETATM    5  O   UNK N   1      32.886  16.542   8.938  0.00  0.00    -0.359 OA
ENDROOT
BRANCH   1   6
HETATM    6  N   UNK N   1      31.204  16.815   7.341  0.00  0.00    -0.282 N 
HETATM    7  C   UNK N   1      30.389  17.430   8.245  0.00  0.00     0.110 A 
HETATM    8  C   UNK N   1      29.008  17.437   8.071  0.00  0.00     0.022 A 
HETATM    9  C   UNK N   1      28.142  18.103   9.084  0.00  0.00     0.056 C 
HETATM   10  C   UNK N   1      28.468  16.796   6.953  0.00  0.00     0.256 A 
HETATM   11  N   UNK N   1      29.299  16.203   6.046  0.00  0.00    -0.275 N 
HETATM   12  O   UNK N   1      27.262  16.760   6.782  0.00  0.00    -0.267 OA
HETATM   13  C   UNK N   1      30.658  16.208   6.225  0.00  0.00     0.331 A 
HETATM   14  H   UNK N   1      28.917  15.765   5.251  0.00  0.00     0.173 HD
HETATM   15  O   UNK N   1      31.371  15.660   5.403  0.00  0.00    -0.246 OA
ENDBRANCH   1   6
BRANCH   4  16
HETATM   16  C   UNK N   1      35.120  16.099   9.647  0.00  0.00     0.212 C 
BRANCH  16  17
HETATM   17  O   UNK N   1      35.140  15.972  11.042  0.00  0.00    -0.295 OA
BRANCH  17  18
HETATM   18  P   UNK N   1      35.228  14.264  11.344  0.00  0.00     0.390 P 
HETATM   19  O   UNK N   1      35.954  14.852  12.586  0.00  0.00    -0.632 OA
BRANCH  18  20
HETATM   20  O   UNK N   1      34.367  13.532  12.659  0.00  0.00    -0.307 OA
HETATM   21  H   UNK N   1      33.605  13.570  13.259  0.00  0.00     0.222 HD
ENDBRANCH  18  20
BRANCH  18  22
HETATM   22  O   UNK N   1      33.561  14.757  11.381  0.00  0.00    -0.307 OA
HETATM   23  H   UNK N   1      33.122  15.536  11.005  0.00  0.00     0.222 HD
ENDBRANCH  18  22
ENDBRANCH  17  18
ENDBRANCH  16  17
ENDBRANCH   4  16
TORSDOF 6
ENDMDL
MODEL 6
REMARK VINA RESULT:      -6.2     16.834     17.811
REMARK  6 active torsions:
REMARK  status: ('A' for Active; 'I' for Inactive)
REMARK    1  A    between atoms: C_5  and  N_4 
REMARK    2  A    between atoms: C_8  and  C_9 
REMARK    3  A    between atoms: C_9  and  O_10 
REMARK    4  A    between atoms: O_10  and  P_11 
REMARK    5  A    between atoms: P_11  and  O_12 
REMARK    6  A    between atoms: P_11  and  O_13 
ROOT
HETATM    1  C   UNK N   1      36.159  13.337  15.190  0.00  0.00     0.232 C 
HETATM    2  C   UNK N   1      37.191  12.445  14.527  0.00  0.00     0.057 C 
HETATM    3  C   UNK N   1      36.824  12.560  13.083  0.00  0.00     0.038 C 
HETATM    4  C   UNK N   1      35.348  12.910  13.125  0.00  0.00     0.148 C 
HETATM    5  O   UNK N   1      34.978  13.261  14.433  0.00  0.00    -0.359 OA
ENDROOT
BRANCH   1   6
HETATM    6  N   UNK N   1      35.850  12.958  16.578  0.00  0.00    -0.282 N 
HETATM    7  C   UNK N   1      35.534  11.671  16.899  0.00  0.00     0.110 A 
HETATM    8  C   UNK N   1      35.167  11.329  18.197  0.00  0.00     0.022 A 
HETATM    9  C   UNK N   1      34.811   9.917  18.512  0.00  0.00     0.056 C 
HETATM   10  C   UNK N   1      35.121  12.330  19.169  0.00  0.00     0.256 A 
HETATM   11  N   UNK N   1      35.461  13.611  18.838  0.00  0.00    -0.275 N 
HETATM   12  O   UNK N   1      34.779  12.073  20.310  0.00  0.00    -0.267 OA
HETATM   13  C   UNK N   1      35.827  13.935  17.557  0.00  0.00     0.331 A 
HETATM   14  H   UNK N   1      35.444  14.313  19.528  0.00  0.00     0.173 HD
HETATM   15  O   UNK N   1      36.114  15.089  17.291  0.00  0.00    -0.246 OA
ENDBRANCH   1   6
BRANCH   4  16
HETATM   16  C   UNK N   1      35.034  14.063  12.188  0.00  0.00     0.212 C 
BRANCH  16  17
HETATM   17  O   UNK N   1      36.206  14.482  11.542  0.00  0.00    -0.295 OA
BRANCH  17  18
HETATM   18  P   UNK N   1      35.670  15.468  10.218  0.00  0.00     0.390 P 
HETATM   19  O   UNK N   1      34.533  15.672  11.256  0.00  0.00    -0.632 OA
BRANCH  18  20
HETATM   20  O   UNK N   1      35.592  17.195  10.348  0.00  0.00    -0.307 OA
HETATM   21  H   UNK N   1      35.449  17.965  10.922  0.00  0.00     0.222 HD
ENDBRANCH  18  20
BRANCH  18  22
HETATM   22  O   UNK N   1      37.143  16.135  10.857  0.00  0.00    -0.307 OA
HETATM   23  H   UNK N   1      37.290  16.839  11.508  0.00  0.00     0.222 HD
ENDBRANCH  18  22
ENDBRANCH  17  18
ENDBRANCH  16  17
ENDBRANCH   4  16
TORSDOF 6
ENDMDL
MODEL 7
REMARK VINA RESULT:      -6.1     14.977     16.787
REMARK  6 active torsions:
REMARK  status: ('A' for Active; 'I' for Inactive)
REMARK    1  A    between atoms: C_5  and  N_4 
REMARK    2  A    between atoms: C_8  and  C_9 
REMARK    3  A    between atoms: C_9  and  O_10 
REMARK    4  A    between atoms: O_10  and  P_11 
REMARK    5  A    between atoms: P_11  and  O_12 
REMARK    6  A    between atoms: P_11  and  O_13 
ROOT
HETATM    1  C   UNK N   1      34.719  13.924  10.072  0.00  0.00     0.232 C 
HETATM    2  C   UNK N   1      33.861  12.969   9.265  0.00  0.00     0.057 C 
HETATM    3  C   UNK N   1      34.561  11.666   9.472  0.00  0.00     0.038 C 
HETATM    4  C   UNK N   1      35.990  12.080   9.770  0.00  0.00     0.148 C 
HETATM    5  O   UNK N   1      36.045  13.463  10.013  0.00  0.00    -0.359 OA
ENDROOT
BRANCH   1   6
HETATM    6  N   UNK N   1      34.685  15.312   9.584  0.00  0.00    -0.282 N 
HETATM    7  C   UNK N   1      34.289  15.596   8.310  0.00  0.00     0.110 A 
HETATM    8  C   UNK N   1      34.330  16.900   7.825  0.00  0.00     0.022 A 
HETATM    9  C   UNK N   1      33.905  17.176   6.423  0.00  0.00     0.056 C 
HETATM   10  C   UNK N   1      34.792  17.916   8.664  0.00  0.00     0.256 A 
HETATM   11  N   UNK N   1      35.166  17.619   9.944  0.00  0.00    -0.275 N 
HETATM   12  O   UNK N   1      34.867  19.065   8.264  0.00  0.00    -0.267 OA
HETATM   13  C   UNK N   1      35.115  16.332  10.413  0.00  0.00     0.331 A 
HETATM   14  H   UNK N   1      35.476  18.339  10.539  0.00  0.00     0.173 HD
HETATM   15  O   UNK N   1      35.466  16.098  11.556  0.00  0.00    -0.246 OA
ENDBRANCH   1   6
BRANCH   4  16
HETATM   16  C   UNK N   1      36.533  11.336  10.977  0.00  0.00     0.212 C 
BRANCH  16  17
HETATM   17  O   UNK N   1      37.357  12.187  11.727  0.00  0.00    -0.295 OA
BRANCH  17  18
HETATM   18  P   UNK N   1      36.622  12.266  13.298  0.00  0.00     0.390 P 
HETATM   19  O   UNK N   1      37.923  11.469  13.587  0.00  0.00    -0.632 OA
BRANCH  18  20
HETATM   20  O   UNK N   1      37.336  13.177  14.588  0.00  0.00    -0.307 OA
HETATM   21  H   UNK N   1      37.502  13.252  15.541  0.00  0.00     0.222 HD
ENDBRANCH  18  20
BRANCH  18  22
HETATM   22  O   UNK N   1      37.047  13.874  12.794  0.00  0.00    -0.307 OA
HETATM   23  H   UNK N   1      37.750  14.469  13.099  0.00  0.00     0.222 HD
ENDBRANCH  18  22
ENDBRANCH  17  18
ENDBRANCH  16  17
ENDBRANCH   4  16
TORSDOF 6
ENDMDL
MODEL 8
REMARK VINA RESULT:      -5.9     14.050     14.794
REMARK  6 active torsions:
REMARK  status: ('A' for Active; 'I' for Inactive)
REMARK    1  A    between atoms: C_5  and  N_4 
REMARK    2  A    between atoms: C_8  and  C_9 
REMARK    3  A    between atoms: C_9  and  O_10 
REMARK    4  A    between atoms: O_10  and  P_11 
REMARK    5  A    between atoms: P_11  and  O_12 
REMARK    6  A    between atoms: P_11  and  O_13 
ROOT
HETATM    1  C   UNK N   1      34.627  14.150  10.341  0.00  0.00     0.232 C 
HETATM    2  C   UNK N   1      34.543  13.031   9.320  0.00  0.00     0.057 C 
HETATM    3  C   UNK N   1      33.558  13.576   8.337  0.00  0.00     0.038 C 
HETATM    4  C   UNK N   1      32.738  14.547   9.166  0.00  0.00     0.148 C 
HETATM    5  O   UNK N   1      33.367  14.770  10.401  0.00  0.00    -0.359 OA
ENDROOT
BRANCH   1   6
HETATM    6  N   UNK N   1      34.990  13.696  11.693  0.00  0.00    -0.282 N 
HETATM    7  C   UNK N   1      34.552  12.495  12.168  0.00  0.00     0.110 A 
HETATM    8  C   UNK N   1      34.831  12.101  13.474  0.00  0.00     0.022 A 
HETATM    9  C   UNK N   1      34.325  10.790  13.970  0.00  0.00     0.056 C 
HETATM   10  C   UNK N   1      35.565  12.961  14.294  0.00  0.00     0.256 A 
HETATM   11  N   UNK N   1      36.014  14.151  13.796  0.00  0.00    -0.275 N 
HETATM   12  O   UNK N   1      35.805  12.660  15.450  0.00  0.00    -0.267 OA
HETATM   13  C   UNK N   1      35.739  14.526  12.507  0.00  0.00     0.331 A 
HETATM   14  H   UNK N   1      36.545  14.749  14.371  0.00  0.00     0.173 HD
HETATM   15  O   UNK N   1      36.144  15.599  12.097  0.00  0.00    -0.246 OA
ENDBRANCH   1   6
BRANCH   4  16
HETATM   16  C   UNK N   1      32.567  15.872   8.443  0.00  0.00     0.212 C 
BRANCH  16  17
HETATM   17  O   UNK N   1      33.806  16.311   7.958  0.00  0.00    -0.295 OA
BRANCH  17  18
HETATM   18  P   UNK N   1      33.799  18.033   8.178  0.00  0.00     0.390 P 
HETATM   19  O   UNK N   1      34.635  17.552   9.397  0.00  0.00    -0.632 OA
BRANCH  18  20
HETATM   20  O   UNK N   1      35.250  18.971   8.028  0.00  0.00    -0.307 OA
HETATM   21  H   UNK N   1      36.191  18.987   7.792  0.00  0.00     0.222 HD
ENDBRANCH  18  20
BRANCH  18  22
HETATM   22  O   UNK N   1      34.665  17.656   6.718  0.00  0.00    -0.307 OA
HETATM   23  H   UNK N   1      35.583  17.834   6.461  0.00  0.00     0.222 HD
ENDBRANCH  18  22
ENDBRANCH  17  18
ENDBRANCH  16  17
ENDBRANCH   4  16
TORSDOF 6
ENDMDL
MODEL 9
REMARK VINA RESULT:      -5.8      8.870     10.988
REMARK  6 active torsions:
REMARK  status: ('A' for Active; 'I' for Inactive)
REMARK    1  A    between atoms: C_5  and  N_4 
REMARK    2  A    between atoms: C_8  and  C_9 
REMARK    3  A    between atoms: C_9  and  O_10 
REMARK    4  A    between atoms: O_10  and  P_11 
REMARK    5  A    between atoms: P_11  and  O_12 
REMARK    6  A    between atoms: P_11  and  O_13 
ROOT
HETATM    1  C   UNK N   1      29.522  17.240   5.254  0.00  0.00     0.232 C 
HETATM    2  C   UNK N   1      30.760  17.447   4.402  0.00  0.00     0.057 C 
HETATM    3  C   UNK N   1      31.850  16.987   5.314  0.00  0.00     0.038 C 
HETATM    4  C   UNK N   1      31.260  17.197   6.696  0.00  0.00     0.148 C 
HETATM    5  O   UNK N   1      29.883  17.455   6.594  0.00  0.00    -0.359 OA
ENDROOT
BRANCH   1   6
HETATM    6  N   UNK N   1      28.411  18.144   4.917  0.00  0.00    -0.282 N 
HETATM    7  C   UNK N   1      28.262  19.338   5.559  0.00  0.00     0.110 A 
HETATM    8  C   UNK N   1      27.168  20.157   5.296  0.00  0.00     0.022 A 
HETATM    9  C   UNK N   1      27.024  21.449   6.024  0.00  0.00     0.056 C 
HETATM   10  C   UNK N   1      26.217  19.732   4.365  0.00  0.00     0.256 A 
HETATM   11  N   UNK N   1      26.391  18.542   3.716  0.00  0.00    -0.275 N 
HETATM   12  O   UNK N   1      25.233  20.410   4.129  0.00  0.00    -0.267 OA
HETATM   13  C   UNK N   1      27.476  17.747   3.978  0.00  0.00     0.331 A 
HETATM   14  H   UNK N   1      25.728  18.252   3.048  0.00  0.00     0.173 HD
HETATM   15  O   UNK N   1      27.596  16.687   3.390  0.00  0.00    -0.246 OA
ENDBRANCH   1   6
BRANCH   4  16
HETATM   16  C   UNK N   1      31.479  15.977   7.574  0.00  0.00     0.212 C 
BRANCH  16  17
HETATM   17  O   UNK N   1      32.004  16.371   8.812  0.00  0.00    -0.295 OA
BRANCH  17  18
HETATM   18  P   UNK N   1      32.886  14.994   9.393  0.00  0.00     0.390 P 
HETATM   19  O   UNK N   1      33.919  16.140   9.573  0.00  0.00    -0.632 OA
BRANCH  18  20
HETATM   20  O   UNK N   1      33.326  14.839  11.063  0.00  0.00    -0.307 OA
HETATM   21  H   UNK N   1      33.459  15.281  11.917  0.00  0.00     0.222 HD
ENDBRANCH  18  20
BRANCH  18  22
HETATM   22  O   UNK N   1      31.534  15.283  10.448  0.00  0.00    -0.307 OA
HETATM   23  H   UNK N   1      31.478  15.760  11.291  0.00  0.00     0.222 HD
ENDBRANCH  18  22
ENDBRANCH  17  18
ENDBRANCH  16  17
ENDBRANCH   4  16
TORSDOF 6
ENDMDL
