REMARK  12 active torsions:
REMARK  status: ('A' for Active; 'I' for Inactive)
REMARK    1  A    between atoms: C_3  and  C_1 
REMARK    2  A    between atoms: O_13  and  C_1 
REMARK    3  A    between atoms: C_4  and  C_2 
REMARK    4  A    between atoms: O_14  and  C_2 
REMARK    5  A    between atoms: C_5  and  O_15 
REMARK    6  A    between atoms: C_6  and  O_16 
REMARK    7  A    between atoms: C_7  and  O_17 
REMARK    8  A    between atoms: C_8  and  O_18 
REMARK    9  A    between atoms: C_9  and  O_19 
REMARK   10  A    between atoms: C_10  and  S_23 
REMARK   11  A    between atoms: C_11  and  O_20 
REMARK   12  A    between atoms: C_12  and  S_23 
ROOT
HETATM    1  S   UNK N   1      -1.426  -3.541   0.801  0.00  0.00    -0.124 SA
ENDROOT
BRANCH   1   2
HETATM    2  C   UNK N   1      -0.002  -4.713   0.714  0.00  0.00     0.112 C 
HETATM    3  C   UNK N   1       1.416  -4.123   0.529  0.00  0.00     0.164 C 
HETATM    4  O   UNK N   1       2.413  -5.103   0.808  0.00  0.00    -0.350 OA
HETATM    5  C   UNK N   1       2.284  -6.291   0.016  0.00  0.00     0.288 C 
HETATM    6  C   UNK N   1       0.890  -6.929   0.137  0.00  0.00     0.203 C 
HETATM    7  C   UNK N   1      -0.208  -5.917  -0.214  0.00  0.00     0.168 C 
BRANCH   3   8
HETATM    8  C   UNK N   1       1.656  -3.484  -0.841  0.00  0.00     0.197 C 
BRANCH   8   9
HETATM    9  O   UNK N   1       2.904  -2.858  -0.870  0.00  0.00    -0.398 OA
HETATM   10  H   UNK N   1       3.714  -3.392  -0.890  0.00  0.00     0.209 HD
ENDBRANCH   8   9
ENDBRANCH   3   8
BRANCH   5  11
HETATM   11  O   UNK N   1       2.615  -6.037  -1.316  0.00  0.00    -0.369 OA
HETATM   12  H   UNK N   1       2.883  -6.149  -2.242  0.00  0.00     0.212 HD
ENDBRANCH   5  11
BRANCH   6  13
HETATM   13  O   UNK N   1       0.801  -8.059  -0.687  0.00  0.00    -0.388 OA
HETATM   14  H   UNK N   1       0.093  -8.397  -1.257  0.00  0.00     0.210 HD
ENDBRANCH   6  13
BRANCH   7  15
HETATM   15  O   UNK N   1      -1.461  -6.494   0.006  0.00  0.00    -0.392 OA
HETATM   16  H   UNK N   1      -2.243  -5.941   0.159  0.00  0.00     0.210 HD
ENDBRANCH   7  15
ENDBRANCH   1   2
BRANCH   1  17
HETATM   17  C   UNK N   1      -1.325  -2.398  -0.649  0.00  0.00     0.215 C 
HETATM   18  C   UNK N   1      -2.635  -1.578  -0.760  0.00  0.00     0.188 C 
HETATM   19  C   UNK N   1      -2.752  -0.627   0.446  0.00  0.00     0.181 C 
HETATM   20  C   UNK N   1      -1.504   0.262   0.499  0.00  0.00     0.180 C 
HETATM   21  C   UNK N   1      -0.251  -0.642   0.523  0.00  0.00     0.178 C 
HETATM   22  O   UNK N   1      -0.210  -1.514  -0.599  0.00  0.00    -0.363 OA
BRANCH  18  23
HETATM   23  O   UNK N   1      -3.744  -2.428  -0.816  0.00  0.00    -0.389 OA
HETATM   24  H   UNK N   1      -4.639  -2.056  -0.856  0.00  0.00     0.210 HD
ENDBRANCH  18  23
BRANCH  19  25
HETATM   25  O   UNK N   1      -3.902   0.159   0.344  0.00  0.00    -0.390 OA
HETATM   26  H   UNK N   1      -3.829   1.124   0.274  0.00  0.00     0.210 HD
ENDBRANCH  19  25
BRANCH  20  27
HETATM   27  O   UNK N   1      -1.481   1.105  -0.618  0.00  0.00    -0.390 OA
HETATM   28  H   UNK N   1      -0.968   1.383  -1.393  0.00  0.00     0.210 HD
ENDBRANCH  20  27
BRANCH  21  29
HETATM   29  C   UNK N   1       1.037   0.181   0.561  0.00  0.00     0.198 C 
BRANCH  29  30
HETATM   30  O   UNK N   1       1.222   0.892  -0.628  0.00  0.00    -0.398 OA
HETATM   31  H   UNK N   1       1.714   1.027  -1.453  0.00  0.00     0.209 HD
ENDBRANCH  29  30
ENDBRANCH  21  29
ENDBRANCH   1  17
TORSDOF 12
