REMARK  12 active torsions:
REMARK  status: ('A' for Active; 'I' for Inactive)
REMARK    1  A    between atoms: C_5  and  C_1 
REMARK    2  A    between atoms: O_27  and  C_1 
REMARK    3  A    between atoms: P_29  and  C_4 
REMARK    4  A    between atoms: P_30  and  C_4 
REMARK    5  A    between atoms: C_7  and  O_20 
REMARK    6  A    between atoms: C_8  and  O_21 
REMARK    7  A    between atoms: N_12  and  C_9 
REMARK    8  A    between atoms: C_11  and  N_19 
REMARK    9  A    between atoms: P_29  and  O_22 
REMARK   10  A    between atoms: P_29  and  O_23 
REMARK   11  A    between atoms: P_30  and  O_25 
REMARK   12  A    between atoms: P_30  and  O_27 
ROOT
HETATM    1  C   UNK N   1      -0.182  -1.421  -1.421  0.00  0.00     0.179 C 
HETATM    2  C   UNK N   1       1.130  -2.173  -1.258  0.00  0.00     0.182 C 
HETATM    3  C   UNK N   1       2.017  -1.015  -0.922  0.00  0.00     0.198 C 
HETATM    4  C   UNK N   1       1.098  -0.298   0.079  0.00  0.00     0.262 C 
HETATM    5  O   UNK N   1      -0.252  -0.529  -0.324  0.00  0.00    -0.353 OA
ENDROOT
BRANCH   4   6
HETATM    6  N   UNK N   1       1.378   1.143   0.180  0.00  0.00    -0.297 N 
HETATM    7  C   UNK N   1       0.449   2.136   0.227  0.00  0.00     0.188 A 
HETATM    8  N   UNK N   1       1.034   3.363   0.314  0.00  0.00    -0.346 N 
HETATM    9  C   UNK N   1       2.354   3.105   0.305  0.00  0.00     0.122 A 
ATOM     10  HN  UNK N   1       0.575   4.272   0.373  1.00  0.00     0.167 HD
HETATM   11  C   UNK N   1       3.429   3.978   0.338  0.00  0.00     0.131 A 
HETATM   12  C   UNK N   1       2.560   1.775   0.232  0.00  0.00     0.142 A 
HETATM   13  N   UNK N   1       4.686   3.446   0.281  0.00  0.00    -0.337 N 
HETATM   14  C   UNK N   1       4.875   2.086   0.200  0.00  0.00     0.183 A 
ATOM     15  HN  UNK N   1       5.496   4.066   0.298  1.00  0.00     0.168 HD
HETATM   16  N   UNK N   1       3.803   1.235   0.178  0.00  0.00    -0.336 N 
ATOM     17  HN  UNK N   1       3.934   0.225   0.124  1.00  0.00     0.168 HD
BRANCH  11  18
HETATM   18  N   UNK N   1       3.240   5.372   0.416  0.00  0.00    -0.383 N 
HETATM   19  H   UNK N   1       4.018   5.973   0.470  0.00  0.00     0.157 HD
HETATM   20  H   UNK N   1       2.330   5.746   0.416  0.00  0.00     0.157 HD
ENDBRANCH  11  18
ENDBRANCH   4   6
BRANCH   3  21
HETATM   21  O   UNK N   1       2.225  -0.226  -2.062  0.00  0.00    -0.388 OA
HETATM   22  H   UNK N   1       2.770  -0.078  -2.851  0.00  0.00     0.210 HD
ENDBRANCH   3  21
BRANCH   2  23
HETATM   23  O   UNK N   1       1.523  -2.856  -2.411  0.00  0.00    -0.390 OA
HETATM   24  H   UNK N   1       1.248  -3.330  -3.211  0.00  0.00     0.210 HD
ENDBRANCH   2  23
BRANCH   1  25
HETATM   25  C   UNK N   1      -1.391  -2.351  -1.508  0.00  0.00     0.213 C 
BRANCH  25  26
HETATM   26  O   UNK N   1      -1.401  -3.275  -0.463  0.00  0.00    -0.316 OA
BRANCH  26  27
HETATM   27  P   UNK N   1      -2.783  -2.855   0.489  0.00  0.00     0.249 P 
HETATM   28  O   UNK N   1      -2.407  -2.558   1.964  0.00  0.00    -0.653 OA
BRANCH  27  29
HETATM   29  C   UNK N   1      -2.382  -4.582   1.149  0.00  0.00     0.249 C 
BRANCH  29  30
HETATM   30  P   UNK N   1      -2.391  -6.014  -0.081  0.00  0.00     0.247 P 
HETATM   31  O   UNK N   1      -1.176  -5.937  -1.044  0.00  0.00    -0.653 OA
BRANCH  30  32
HETATM   32  O   UNK N   1      -2.193  -7.561   0.680  0.00  0.00    -0.329 OA
HETATM   33  H   UNK N   1      -2.886  -8.089   1.106  0.00  0.00     0.220 HD
ENDBRANCH  30  32
BRANCH  30  34
HETATM   34  O   UNK N   1      -3.765  -6.153  -1.133  0.00  0.00    -0.329 OA
HETATM   35  H   UNK N   1      -4.216  -5.527  -1.721  0.00  0.00     0.220 HD
ENDBRANCH  30  34
ENDBRANCH  29  30
ENDBRANCH  27  29
BRANCH  27  36
HETATM   36  O   UNK N   1      -4.279  -3.718   0.321  0.00  0.00    -0.329 OA
HETATM   37  H   UNK N   1      -5.115  -3.234   0.228  0.00  0.00     0.220 HD
ENDBRANCH  27  36
ENDBRANCH  26  27
ENDBRANCH  25  26
ENDBRANCH   1  25
TORSDOF 12
