MODEL 1
REMARK VINA RESULT:      -5.9      0.000      0.000
REMARK  11 active torsions:
REMARK  status: ('A' for Active; 'I' for Inactive)
REMARK    1  A    between atoms: C_6  and  C_3 
REMARK    2  A    between atoms: O_15  and  C_3 
REMARK    3  A    between atoms: O_16  and  C_4 
REMARK    4  A    between atoms: C_5  and  N_12 
REMARK    5  A    between atoms: C_9  and  C_6 
REMARK    6  A    between atoms: C_6  and  O_17 
REMARK    7  A    between atoms: C_11  and  C_7 
REMARK    8  A    between atoms: C_8  and  N_13 
REMARK    9  A    between atoms: C_10  and  C_9 
REMARK   10  A    between atoms: C_9  and  O_18 
REMARK   11  A    between atoms: O_20  and  C_11 
ROOT
HETATM    1  C   UNK N   1      33.599  17.656   6.491  0.00  0.00     0.043 C 
HETATM    2  C   UNK N   1      32.544  17.035   5.627  0.00  0.00     0.125 C 
HETATM    3  C   UNK N   1      33.541  17.507   7.823  0.00  0.00     0.141 C 
HETATM    4  C   UNK N   1      31.194  17.140   6.351  0.00  0.00     0.141 C 
HETATM    5  C   UNK N   1      31.310  16.484   7.765  0.00  0.00     0.185 C 
HETATM    6  O   UNK N   1      32.496  16.849   8.400  0.00  0.00    -0.335 OA
ENDROOT
BRANCH   5   7
HETATM    7  C   UNK N   1      30.112  16.923   8.653  0.00  0.00     0.180 C 
BRANCH   7   8
HETATM    8  C   UNK N   1      29.784  18.430   8.625  0.00  0.00     0.173 C 
BRANCH   8   9
HETATM    9  C   UNK N   1      28.303  18.696   8.378  0.00  0.00     0.198 C 
BRANCH   9  10
HETATM   10  O   UNK N   1      27.537  18.076   9.367  0.00  0.00    -0.398 OA
HETATM   11  H   UNK N   1      27.713  17.155   9.616  0.00  0.00     0.209 HD
ENDBRANCH   9  10
ENDBRANCH   8   9
BRANCH   8  12
HETATM   12  O   UNK N   1      30.183  19.054   9.810  0.00  0.00    -0.391 OA
HETATM   13  H   UNK N   1      29.602  19.045  10.586  0.00  0.00     0.210 HD
ENDBRANCH   8  12
ENDBRANCH   7   8
BRANCH   7  14
HETATM   14  O   UNK N   1      30.323  16.537   9.980  0.00  0.00    -0.390 OA
HETATM   15  H   UNK N   1      30.390  17.209  10.677  0.00  0.00     0.210 HD
ENDBRANCH   7  14
ENDBRANCH   5   7
BRANCH   4  16
HETATM   16  N   UNK N   1      30.152  16.476   5.583  0.00  0.00    -0.365 N 
HETATM   17  C   UNK N   1      29.346  17.084   4.779  0.00  0.00     0.107 C 
HETATM   18  C   UNK N   1      28.323  16.298   4.037  0.00  0.00     0.097 C 
ATOM     19  HN  UNK N   1      30.050  15.466   5.688  1.00  0.00     0.161 HD
BRANCH  17  20
HETATM   20  O   UNK N   1      29.415  18.418   4.599  0.00  0.00    -0.350 OA
HETATM   21  H   UNK N   1      29.694  19.237   4.962  0.00  0.00     0.219 HD
ENDBRANCH  17  20
ENDBRANCH   4  16
BRANCH   2  22
HETATM   22  N   UNK N   1      32.512  17.726   4.347  0.00  0.00    -0.421 N 
HETATM   23  H   UNK N   1      31.751  18.349   4.074  0.00  0.00     0.150 HD
HETATM   24  H   UNK N   1      33.282  17.581   3.695  0.00  0.00     0.150 HD
ENDBRANCH   2  22
BRANCH   3  25
HETATM   25  C   UNK N   1      34.611  18.056   8.677  0.00  0.00     0.200 C 
HETATM   26  O   UNK N   1      35.173  19.092   8.355  0.00  0.00    -0.645 OA
BRANCH  25  27
HETATM   27  O   UNK N   1      34.975  17.426   9.810  0.00  0.00    -0.771 OA
HETATM   28  H   UNK N   1      34.379  16.857  10.257  0.00  0.00     0.167 HD
ENDBRANCH  25  27
ENDBRANCH   3  25
TORSDOF 11
ENDMDL
MODEL 2
REMARK VINA RESULT:      -5.8      4.544      6.518
REMARK  11 active torsions:
REMARK  status: ('A' for Active; 'I' for Inactive)
REMARK    1  A    between atoms: C_6  and  C_3 
REMARK    2  A    between atoms: O_15  and  C_3 
REMARK    3  A    between atoms: O_16  and  C_4 
REMARK    4  A    between atoms: C_5  and  N_12 
REMARK    5  A    between atoms: C_9  and  C_6 
REMARK    6  A    between atoms: C_6  and  O_17 
REMARK    7  A    between atoms: C_11  and  C_7 
REMARK    8  A    between atoms: C_8  and  N_13 
REMARK    9  A    between atoms: C_10  and  C_9 
REMARK   10  A    between atoms: C_9  and  O_18 
REMARK   11  A    between atoms: O_20  and  C_11 
ROOT
HETATM    1  C   UNK N   1      35.388  16.982  10.254  0.00  0.00     0.043 C 
HETATM    2  C   UNK N   1      35.148  15.878  11.237  0.00  0.00     0.125 C 
HETATM    3  C   UNK N   1      34.587  17.108   9.185  0.00  0.00     0.141 C 
HETATM    4  C   UNK N   1      34.697  14.628  10.469  0.00  0.00     0.141 C 
HETATM    5  C   UNK N   1      33.445  14.976   9.600  0.00  0.00     0.185 C 
HETATM    6  O   UNK N   1      33.597  16.201   8.953  0.00  0.00    -0.335 OA
ENDROOT
BRANCH   5   7
HETATM    7  C   UNK N   1      33.217  13.870   8.531  0.00  0.00     0.180 C 
BRANCH   7   8
HETATM    8  C   UNK N   1      32.767  14.373   7.143  0.00  0.00     0.173 C 
BRANCH   8   9
HETATM    9  C   UNK N   1      33.878  14.273   6.104  0.00  0.00     0.198 C 
BRANCH   9  10
HETATM   10  O   UNK N   1      34.565  15.485   6.022  0.00  0.00    -0.398 OA
HETATM   11  H   UNK N   1      35.316  15.661   6.610  0.00  0.00     0.209 HD
ENDBRANCH   9  10
ENDBRANCH   8   9
BRANCH   8  12
HETATM   12  O   UNK N   1      31.640  13.678   6.697  0.00  0.00    -0.391 OA
HETATM   13  H   UNK N   1      30.945  13.423   7.324  0.00  0.00     0.210 HD
ENDBRANCH   8  12
ENDBRANCH   7   8
BRANCH   7  14
HETATM   14  O   UNK N   1      32.285  12.935   8.990  0.00  0.00    -0.390 OA
HETATM   15  H   UNK N   1      31.587  12.612   8.397  0.00  0.00     0.210 HD
ENDBRANCH   7  14
ENDBRANCH   5   7
BRANCH   4  16
HETATM   16  N   UNK N   1      34.373  13.552  11.392  0.00  0.00    -0.365 N 
HETATM   17  C   UNK N   1      35.175  12.584  11.686  0.00  0.00     0.107 C 
HETATM   18  C   UNK N   1      34.738  11.542  12.655  0.00  0.00     0.097 C 
ATOM     19  HN  UNK N   1      33.454  13.561  11.834  1.00  0.00     0.161 HD
BRANCH  17  20
HETATM   20  O   UNK N   1      36.401  12.502  11.132  0.00  0.00    -0.350 OA
HETATM   21  H   UNK N   1      37.250  12.107  11.180  0.00  0.00     0.219 HD
ENDBRANCH  17  20
ENDBRANCH   4  16
BRANCH   2  22
HETATM   22  N   UNK N   1      36.374  15.628  11.978  0.00  0.00    -0.421 N 
HETATM   23  H   UNK N   1      36.380  15.291  12.942  0.00  0.00     0.150 HD
HETATM   24  H   UNK N   1      37.267  15.796  11.516  0.00  0.00     0.150 HD
ENDBRANCH   2  22
BRANCH   3  25
HETATM   25  C   UNK N   1      34.774  18.232   8.247  0.00  0.00     0.200 C 
HETATM   26  O   UNK N   1      35.316  19.258   8.630  0.00  0.00    -0.645 OA
BRANCH  25  27
HETATM   27  O   UNK N   1      34.351  18.138   6.972  0.00  0.00    -0.771 OA
HETATM   28  H   UNK N   1      33.905  17.371   6.669  0.00  0.00     0.167 HD
ENDBRANCH  25  27
ENDBRANCH   3  25
TORSDOF 11
ENDMDL
MODEL 3
REMARK VINA RESULT:      -5.7      1.687      2.605
REMARK  11 active torsions:
REMARK  status: ('A' for Active; 'I' for Inactive)
REMARK    1  A    between atoms: C_6  and  C_3 
REMARK    2  A    between atoms: O_15  and  C_3 
REMARK    3  A    between atoms: O_16  and  C_4 
REMARK    4  A    between atoms: C_5  and  N_12 
REMARK    5  A    between atoms: C_9  and  C_6 
REMARK    6  A    between atoms: C_6  and  O_17 
REMARK    7  A    between atoms: C_11  and  C_7 
REMARK    8  A    between atoms: C_8  and  N_13 
REMARK    9  A    between atoms: C_10  and  C_9 
REMARK   10  A    between atoms: C_9  and  O_18 
REMARK   11  A    between atoms: O_20  and  C_11 
ROOT
HETATM    1  C   UNK N   1      31.908  16.994   4.944  0.00  0.00     0.043 C 
HETATM    2  C   UNK N   1      30.597  16.679   4.293  0.00  0.00     0.125 C 
HETATM    3  C   UNK N   1      31.972  17.144   6.276  0.00  0.00     0.141 C 
HETATM    4  C   UNK N   1      29.488  17.441   5.032  0.00  0.00     0.141 C 
HETATM    5  C   UNK N   1      29.534  17.083   6.553  0.00  0.00     0.185 C 
HETATM    6  O   UNK N   1      30.843  17.073   7.034  0.00  0.00    -0.335 OA
ENDROOT
BRANCH   5   7
HETATM    7  C   UNK N   1      28.709  18.120   7.367  0.00  0.00     0.180 C 
BRANCH   7   8
HETATM    8  C   UNK N   1      28.651  17.871   8.889  0.00  0.00     0.173 C 
BRANCH   8   9
HETATM    9  C   UNK N   1      29.679  18.700   9.650  0.00  0.00     0.198 C 
BRANCH   9  10
HETATM   10  O   UNK N   1      30.943  18.119   9.531  0.00  0.00    -0.398 OA
HETATM   11  H   UNK N   1      31.709  18.663   9.291  0.00  0.00     0.209 HD
ENDBRANCH   9  10
ENDBRANCH   8   9
BRANCH   8  12
HETATM   12  O   UNK N   1      27.373  18.126   9.392  0.00  0.00    -0.391 OA
HETATM   13  H   UNK N   1      26.744  18.657   8.878  0.00  0.00     0.210 HD
ENDBRANCH   8  12
ENDBRANCH   7   8
BRANCH   7  14
HETATM   14  O   UNK N   1      27.402  18.193   6.878  0.00  0.00    -0.390 OA
HETATM   15  H   UNK N   1      26.842  17.401   6.863  0.00  0.00     0.210 HD
ENDBRANCH   7  14
ENDBRANCH   5   7
BRANCH   4  16
HETATM   16  N   UNK N   1      28.184  17.101   4.485  0.00  0.00    -0.365 N 
HETATM   17  C   UNK N   1      27.400  17.945   3.902  0.00  0.00     0.107 C 
HETATM   18  C   UNK N   1      26.091  17.478   3.369  0.00  0.00     0.097 C 
ATOM     19  HN  UNK N   1      27.867  16.134   4.568  1.00  0.00     0.161 HD
BRANCH  17  20
HETATM   20  O   UNK N   1      27.748  19.240   3.766  0.00  0.00    -0.350 OA
HETATM   21  H   UNK N   1      27.627  20.113   4.084  0.00  0.00     0.219 HD
ENDBRANCH  17  20
ENDBRANCH   4  16
BRANCH   2  22
HETATM   22  N   UNK N   1      30.657  17.062   2.892  0.00  0.00    -0.421 N 
HETATM   23  H   UNK N   1      30.855  18.016   2.587  0.00  0.00     0.150 HD
HETATM   24  H   UNK N   1      30.495  16.347   2.183  0.00  0.00     0.150 HD
ENDBRANCH   2  22
BRANCH   3  25
HETATM   25  C   UNK N   1      33.270  17.388   6.933  0.00  0.00     0.200 C 
HETATM   26  O   UNK N   1      33.388  17.201   8.135  0.00  0.00    -0.645 OA
BRANCH  25  27
HETATM   27  O   UNK N   1      34.330  17.814   6.220  0.00  0.00    -0.771 OA
HETATM   28  H   UNK N   1      35.117  17.307   6.178  0.00  0.00     0.167 HD
ENDBRANCH  25  27
ENDBRANCH   3  25
TORSDOF 11
ENDMDL
MODEL 4
REMARK VINA RESULT:      -5.7      7.612     10.226
REMARK  11 active torsions:
REMARK  status: ('A' for Active; 'I' for Inactive)
REMARK    1  A    between atoms: C_6  and  C_3 
REMARK    2  A    between atoms: O_15  and  C_3 
REMARK    3  A    between atoms: O_16  and  C_4 
REMARK    4  A    between atoms: C_5  and  N_12 
REMARK    5  A    between atoms: C_9  and  C_6 
REMARK    6  A    between atoms: C_6  and  O_17 
REMARK    7  A    between atoms: C_11  and  C_7 
REMARK    8  A    between atoms: C_8  and  N_13 
REMARK    9  A    between atoms: C_10  and  C_9 
REMARK   10  A    between atoms: C_9  and  O_18 
REMARK   11  A    between atoms: O_20  and  C_11 
ROOT
HETATM    1  C   UNK N   1      24.845  17.870   3.778  0.00  0.00     0.043 C 
HETATM    2  C   UNK N   1      23.744  17.034   4.354  0.00  0.00     0.125 C 
HETATM    3  C   UNK N   1      24.659  19.187   3.602  0.00  0.00     0.141 C 
HETATM    4  C   UNK N   1      22.403  17.552   3.815  0.00  0.00     0.141 C 
HETATM    5  C   UNK N   1      22.267  19.076   4.137  0.00  0.00     0.185 C 
HETATM    6  O   UNK N   1      23.455  19.759   3.883  0.00  0.00    -0.335 OA
ENDROOT
BRANCH   5   7
HETATM    7  C   UNK N   1      21.136  19.701   3.272  0.00  0.00     0.180 C 
BRANCH   7   8
HETATM    8  C   UNK N   1      21.606  20.674   2.171  0.00  0.00     0.173 C 
BRANCH   8   9
HETATM    9  C   UNK N   1      20.483  21.046   1.210  0.00  0.00     0.198 C 
BRANCH   9  10
HETATM   10  O   UNK N   1      20.744  20.517  -0.056  0.00  0.00    -0.398 OA
HETATM   11  H   UNK N   1      21.368  20.961  -0.651  0.00  0.00     0.209 HD
ENDBRANCH   9  10
ENDBRANCH   8   9
BRANCH   8  12
HETATM   12  O   UNK N   1      22.156  21.834   2.724  0.00  0.00    -0.391 OA
HETATM   13  H   UNK N   1      21.620  22.640   2.799  0.00  0.00     0.210 HD
ENDBRANCH   8  12
ENDBRANCH   7   8
BRANCH   7  14
HETATM   14  O   UNK N   1      20.211  20.363   4.086  0.00  0.00    -0.390 OA
HETATM   15  H   UNK N   1      20.332  21.303   4.295  0.00  0.00     0.210 HD
ENDBRANCH   7  14
ENDBRANCH   5   7
BRANCH   4  16
HETATM   16  N   UNK N   1      21.297  16.821   4.413  0.00  0.00    -0.365 N 
HETATM   17  C   UNK N   1      20.371  16.228   3.736  0.00  0.00     0.107 C 
HETATM   18  C   UNK N   1      19.292  15.500   4.457  0.00  0.00     0.097 C 
ATOM     19  HN  UNK N   1      21.248  16.775   5.430  1.00  0.00     0.161 HD
BRANCH  17  20
HETATM   20  O   UNK N   1      20.365  16.257   2.388  0.00  0.00    -0.350 OA
HETATM   21  H   UNK N   1      20.361  16.799   1.624  0.00  0.00     0.219 HD
ENDBRANCH  17  20
ENDBRANCH   4  16
BRANCH   2  22
HETATM   22  N   UNK N   1      23.959  15.644   3.985  0.00  0.00    -0.421 N 
HETATM   23  H   UNK N   1      23.194  14.985   3.839  0.00  0.00     0.150 HD
HETATM   24  H   UNK N   1      24.917  15.313   3.867  0.00  0.00     0.150 HD
ENDBRANCH   2  22
BRANCH   3  25
HETATM   25  C   UNK N   1      25.761  20.030   3.098  0.00  0.00     0.200 C 
HETATM   26  O   UNK N   1      25.543  20.857   2.227  0.00  0.00    -0.645 OA
BRANCH  25  27
HETATM   27  O   UNK N   1      27.007  19.895   3.592  0.00  0.00    -0.771 OA
HETATM   28  H   UNK N   1      27.566  19.202   3.301  0.00  0.00     0.167 HD
ENDBRANCH  25  27
ENDBRANCH   3  25
TORSDOF 11
ENDMDL
MODEL 5
REMARK VINA RESULT:      -5.6      1.753      4.856
REMARK  11 active torsions:
REMARK  status: ('A' for Active; 'I' for Inactive)
REMARK    1  A    between atoms: C_6  and  C_3 
REMARK    2  A    between atoms: O_15  and  C_3 
REMARK    3  A    between atoms: O_16  and  C_4 
REMARK    4  A    between atoms: C_5  and  N_12 
REMARK    5  A    between atoms: C_9  and  C_6 
REMARK    6  A    between atoms: C_6  and  O_17 
REMARK    7  A    between atoms: C_11  and  C_7 
REMARK    8  A    between atoms: C_8  and  N_13 
REMARK    9  A    between atoms: C_10  and  C_9 
REMARK   10  A    between atoms: C_9  and  O_18 
REMARK   11  A    between atoms: O_20  and  C_11 
ROOT
HETATM    1  C   UNK N   1      28.931  17.028   6.826  0.00  0.00     0.043 C 
HETATM    2  C   UNK N   1      30.069  16.827   5.873  0.00  0.00     0.125 C 
HETATM    3  C   UNK N   1      29.175  17.467   8.071  0.00  0.00     0.141 C 
HETATM    4  C   UNK N   1      31.272  16.280   6.656  0.00  0.00     0.141 C 
HETATM    5  C   UNK N   1      31.608  17.248   7.836  0.00  0.00     0.185 C 
HETATM    6  O   UNK N   1      30.453  17.669   8.494  0.00  0.00    -0.335 OA
ENDROOT
BRANCH   5   7
HETATM    7  C   UNK N   1      32.536  16.535   8.859  0.00  0.00     0.180 C 
BRANCH   7   8
HETATM    8  C   UNK N   1      34.011  16.987   8.843  0.00  0.00     0.173 C 
BRANCH   8   9
HETATM    9  C   UNK N   1      34.210  18.284   8.068  0.00  0.00     0.198 C 
BRANCH   9  10
HETATM   10  O   UNK N   1      34.611  18.002   6.761  0.00  0.00    -0.398 OA
HETATM   11  H   UNK N   1      34.479  18.657   6.058  0.00  0.00     0.209 HD
ENDBRANCH   9  10
ENDBRANCH   8   9
BRANCH   8  12
HETATM   12  O   UNK N   1      34.507  17.133  10.141  0.00  0.00    -0.391 OA
HETATM   13  H   UNK N   1      35.366  16.751  10.381  0.00  0.00     0.210 HD
ENDBRANCH   8  12
ENDBRANCH   7   8
BRANCH   7  14
HETATM   14  O   UNK N   1      32.492  15.150   8.672  0.00  0.00    -0.390 OA
HETATM   15  H   UNK N   1      32.674  14.771   7.798  0.00  0.00     0.210 HD
ENDBRANCH   7  14
ENDBRANCH   5   7
BRANCH   4  16
HETATM   16  N   UNK N   1      32.428  16.145   5.784  0.00  0.00    -0.365 N 
HETATM   17  C   UNK N   1      32.967  15.017   5.465  0.00  0.00     0.107 C 
HETATM   18  C   UNK N   1      34.144  15.001   4.553  0.00  0.00     0.097 C 
ATOM     19  HN  UNK N   1      32.841  16.996   5.401  1.00  0.00     0.161 HD
BRANCH  17  20
HETATM   20  O   UNK N   1      32.482  13.853   5.941  0.00  0.00    -0.350 OA
HETATM   21  H   UNK N   1      32.587  12.922   5.969  0.00  0.00     0.219 HD
ENDBRANCH  17  20
ENDBRANCH   4  16
BRANCH   2  22
HETATM   22  N   UNK N   1      29.656  15.903   4.829  0.00  0.00    -0.421 N 
HETATM   23  H   UNK N   1      29.192  16.208   3.972  0.00  0.00     0.150 HD
HETATM   24  H   UNK N   1      29.836  14.908   4.957  0.00  0.00     0.150 HD
ENDBRANCH   2  22
BRANCH   3  25
HETATM   25  C   UNK N   1      28.056  17.733   8.994  0.00  0.00     0.200 C 
HETATM   26  O   UNK N   1      27.703  16.871   9.786  0.00  0.00    -0.645 OA
BRANCH  25  27
HETATM   27  O   UNK N   1      27.418  18.919   8.974  0.00  0.00    -0.771 OA
HETATM   28  H   UNK N   1      27.480  19.485   8.231  0.00  0.00     0.167 HD
ENDBRANCH  25  27
ENDBRANCH   3  25
TORSDOF 11
ENDMDL
MODEL 6
REMARK VINA RESULT:      -5.4     12.039     14.954
REMARK  11 active torsions:
REMARK  status: ('A' for Active; 'I' for Inactive)
REMARK    1  A    between atoms: C_6  and  C_3 
REMARK    2  A    between atoms: O_15  and  C_3 
REMARK    3  A    between atoms: O_16  and  C_4 
REMARK    4  A    between atoms: C_5  and  N_12 
REMARK    5  A    between atoms: C_9  and  C_6 
REMARK    6  A    between atoms: C_6  and  O_17 
REMARK    7  A    between atoms: C_11  and  C_7 
REMARK    8  A    between atoms: C_8  and  N_13 
REMARK    9  A    between atoms: C_10  and  C_9 
REMARK   10  A    between atoms: C_9  and  O_18 
REMARK   11  A    between atoms: O_20  and  C_11 
ROOT
HETATM    1  C   UNK N   1      43.333  21.178   3.494  0.00  0.00     0.043 C 
HETATM    2  C   UNK N   1      44.596  21.831   3.023  0.00  0.00     0.125 C 
HETATM    3  C   UNK N   1      42.226  21.246   2.738  0.00  0.00     0.141 C 
HETATM    4  C   UNK N   1      44.233  23.144   2.314  0.00  0.00     0.141 C 
HETATM    5  C   UNK N   1      43.214  22.850   1.165  0.00  0.00     0.185 C 
HETATM    6  O   UNK N   1      42.225  21.958   1.577  0.00  0.00    -0.335 OA
ENDROOT
BRANCH   5   7
HETATM    7  C   UNK N   1      42.537  24.172   0.706  0.00  0.00     0.180 C 
BRANCH   7   8
HETATM    8  C   UNK N   1      41.007  24.102   0.518  0.00  0.00     0.173 C 
BRANCH   8   9
HETATM    9  C   UNK N   1      40.385  25.479   0.320  0.00  0.00     0.198 C 
BRANCH   9  10
HETATM   10  O   UNK N   1      40.450  25.842  -1.026  0.00  0.00    -0.398 OA
HETATM   11  H   UNK N   1      41.306  25.875  -1.483  0.00  0.00     0.209 HD
ENDBRANCH   9  10
ENDBRANCH   8   9
BRANCH   8  12
HETATM   12  O   UNK N   1      40.669  23.273  -0.555  0.00  0.00    -0.391 OA
HETATM   13  H   UNK N   1      41.160  22.450  -0.709  0.00  0.00     0.210 HD
ENDBRANCH   8  12
ENDBRANCH   7   8
BRANCH   7  14
HETATM   14  O   UNK N   1      43.112  24.624  -0.486  0.00  0.00    -0.390 OA
HETATM   15  H   UNK N   1      42.977  24.130  -1.310  0.00  0.00     0.210 HD
ENDBRANCH   7  14
ENDBRANCH   5   7
BRANCH   4  16
HETATM   16  N   UNK N   1      45.425  23.774   1.767  0.00  0.00    -0.365 N 
HETATM   17  C   UNK N   1      45.806  24.973   2.055  0.00  0.00     0.107 C 
HETATM   18  C   UNK N   1      47.052  25.509   1.441  0.00  0.00     0.097 C 
ATOM     19  HN  UNK N   1      45.994  23.235   1.115  1.00  0.00     0.161 HD
BRANCH  17  20
HETATM   20  O   UNK N   1      45.098  25.746   2.900  0.00  0.00    -0.350 OA
HETATM   21  H   UNK N   1      44.865  25.909   3.794  0.00  0.00     0.219 HD
ENDBRANCH  17  20
ENDBRANCH   4  16
BRANCH   2  22
HETATM   22  N   UNK N   1      45.461  22.072   4.167  0.00  0.00    -0.421 N 
HETATM   23  H   UNK N   1      45.459  21.477   4.997  0.00  0.00     0.150 HD
HETATM   24  H   UNK N   1      46.097  22.868   4.139  0.00  0.00     0.150 HD
ENDBRANCH   2  22
BRANCH   3  25
HETATM   25  C   UNK N   1      40.996  20.549   3.161  0.00  0.00     0.200 C 
HETATM   26  O   UNK N   1      41.075  19.546   3.853  0.00  0.00    -0.645 OA
BRANCH  25  27
HETATM   27  O   UNK N   1      39.786  21.009   2.790  0.00  0.00    -0.771 OA
HETATM   28  H   UNK N   1      39.133  20.426   2.454  0.00  0.00     0.167 HD
ENDBRANCH  25  27
ENDBRANCH   3  25
TORSDOF 11
ENDMDL
MODEL 7
REMARK VINA RESULT:      -5.4      8.934     11.032
REMARK  11 active torsions:
REMARK  status: ('A' for Active; 'I' for Inactive)
REMARK    1  A    between atoms: C_6  and  C_3 
REMARK    2  A    between atoms: O_15  and  C_3 
REMARK    3  A    between atoms: O_16  and  C_4 
REMARK    4  A    between atoms: C_5  and  N_12 
REMARK    5  A    between atoms: C_9  and  C_6 
REMARK    6  A    between atoms: C_6  and  O_17 
REMARK    7  A    between atoms: C_11  and  C_7 
REMARK    8  A    between atoms: C_8  and  N_13 
REMARK    9  A    between atoms: C_10  and  C_9 
REMARK   10  A    between atoms: C_9  and  O_18 
REMARK   11  A    between atoms: O_20  and  C_11 
ROOT
HETATM    1  C   UNK N   1      35.290  11.505  17.362  0.00  0.00     0.043 C 
HETATM    2  C   UNK N   1      35.141  10.688  16.115  0.00  0.00     0.125 C 
HETATM    3  C   UNK N   1      35.155  12.839  17.304  0.00  0.00     0.141 C 
HETATM    4  C   UNK N   1      35.752  11.469  14.943  0.00  0.00     0.141 C 
HETATM    5  C   UNK N   1      35.082  12.878  14.851  0.00  0.00     0.185 C 
HETATM    6  O   UNK N   1      34.947  13.461  16.111  0.00  0.00    -0.335 OA
ENDROOT
BRANCH   5   7
HETATM    7  C   UNK N   1      35.940  13.815  13.955  0.00  0.00     0.180 C 
BRANCH   7   8
HETATM    8  C   UNK N   1      35.428  14.001  12.511  0.00  0.00     0.173 C 
BRANCH   8   9
HETATM    9  C   UNK N   1      36.503  13.698  11.474  0.00  0.00     0.198 C 
BRANCH   9  10
HETATM   10  O   UNK N   1      37.196  14.867  11.151  0.00  0.00    -0.398 OA
HETATM   11  H   UNK N   1      36.728  15.716  11.109  0.00  0.00     0.209 HD
ENDBRANCH   9  10
ENDBRANCH   8   9
BRANCH   8  12
HETATM   12  O   UNK N   1      34.304  13.207  12.270  0.00  0.00    -0.391 OA
HETATM   13  H   UNK N   1      33.770  13.347  11.471  0.00  0.00     0.210 HD
ENDBRANCH   8  12
ENDBRANCH   7   8
BRANCH   7  14
HETATM   14  O   UNK N   1      37.262  13.365  13.905  0.00  0.00    -0.390 OA
HETATM   15  H   UNK N   1      37.650  12.908  14.668  0.00  0.00     0.210 HD
ENDBRANCH   7  14
ENDBRANCH   5   7
BRANCH   4  16
HETATM   16  N   UNK N   1      35.557  10.748  13.694  0.00  0.00    -0.365 N 
HETATM   17  C   UNK N   1      36.519  10.305  12.957  0.00  0.00     0.107 C 
HETATM   18  C   UNK N   1      36.199   9.570  11.703  0.00  0.00     0.097 C 
ATOM     19  HN  UNK N   1      34.601  10.584  13.381  1.00  0.00     0.161 HD
BRANCH  17  20
HETATM   20  O   UNK N   1      37.808  10.495  13.303  0.00  0.00    -0.350 OA
HETATM   21  H   UNK N   1      38.401  10.729  13.991  0.00  0.00     0.219 HD
ENDBRANCH  17  20
ENDBRANCH   4  16
BRANCH   2  22
HETATM   22  N   UNK N   1      35.809   9.410  16.303  0.00  0.00    -0.421 N 
HETATM   23  H   UNK N   1      36.327   8.941  15.559  0.00  0.00     0.150 HD
HETATM   24  H   UNK N   1      35.757   8.961  17.217  0.00  0.00     0.150 HD
ENDBRANCH   2  22
BRANCH   3  25
HETATM   25  C   UNK N   1      35.232  13.645  18.537  0.00  0.00     0.200 C 
HETATM   26  O   UNK N   1      35.323  14.861  18.463  0.00  0.00    -0.645 OA
BRANCH  25  27
HETATM   27  O   UNK N   1      35.203  13.053  19.747  0.00  0.00    -0.771 OA
HETATM   28  H   UNK N   1      35.055  12.131  19.826  0.00  0.00     0.167 HD
ENDBRANCH  25  27
ENDBRANCH   3  25
TORSDOF 11
ENDMDL
MODEL 8
REMARK VINA RESULT:      -5.4      5.716      7.818
REMARK  11 active torsions:
REMARK  status: ('A' for Active; 'I' for Inactive)
REMARK    1  A    between atoms: C_6  and  C_3 
REMARK    2  A    between atoms: O_15  and  C_3 
REMARK    3  A    between atoms: O_16  and  C_4 
REMARK    4  A    between atoms: C_5  and  N_12 
REMARK    5  A    between atoms: C_9  and  C_6 
REMARK    6  A    between atoms: C_6  and  O_17 
REMARK    7  A    between atoms: C_11  and  C_7 
REMARK    8  A    between atoms: C_8  and  N_13 
REMARK    9  A    between atoms: C_10  and  C_9 
REMARK   10  A    between atoms: C_9  and  O_18 
REMARK   11  A    between atoms: O_20  and  C_11 
ROOT
HETATM    1  C   UNK N   1      36.888  12.593  13.100  0.00  0.00     0.043 C 
HETATM    2  C   UNK N   1      36.533  12.341  11.666  0.00  0.00     0.125 C 
HETATM    3  C   UNK N   1      36.323  13.619  13.755  0.00  0.00     0.141 C 
HETATM    4  C   UNK N   1      36.352  13.693  10.962  0.00  0.00     0.141 C 
HETATM    5  C   UNK N   1      35.288  14.542  11.730  0.00  0.00     0.185 C 
HETATM    6  O   UNK N   1      35.477  14.470  13.110  0.00  0.00    -0.335 OA
ENDROOT
BRANCH   5   7
HETATM    7  C   UNK N   1      35.377  16.030  11.290  0.00  0.00     0.180 C 
BRANCH   7   8
HETATM    8  C   UNK N   1      34.311  16.484  10.271  0.00  0.00     0.173 C 
BRANCH   8   9
HETATM    9  C   UNK N   1      34.931  17.016   8.984  0.00  0.00     0.198 C 
BRANCH   9  10
HETATM   10  O   UNK N   1      35.241  18.370   9.128  0.00  0.00    -0.398 OA
HETATM   11  H   UNK N   1      35.812  18.665   9.855  0.00  0.00     0.209 HD
ENDBRANCH   9  10
ENDBRANCH   8   9
BRANCH   8  12
HETATM   12  O   UNK N   1      33.425  15.446   9.973  0.00  0.00    -0.391 OA
HETATM   13  H   UNK N   1      33.071  15.349   9.075  0.00  0.00     0.210 HD
ENDBRANCH   8  12
ENDBRANCH   7   8
BRANCH   7  14
HETATM   14  O   UNK N   1      36.642  16.306  10.763  0.00  0.00    -0.390 OA
HETATM   15  H   UNK N   1      36.776  17.085  10.199  0.00  0.00     0.210 HD
ENDBRANCH   7  14
ENDBRANCH   5   7
BRANCH   4  16
HETATM   16  N   UNK N   1      35.926  13.497   9.585  0.00  0.00    -0.365 N 
HETATM   17  C   UNK N   1      36.712  13.582   8.565  0.00  0.00     0.107 C 
HETATM   18  C   UNK N   1      36.165  13.350   7.200  0.00  0.00     0.097 C 
ATOM     19  HN  UNK N   1      34.944  13.280   9.414  1.00  0.00     0.161 HD
BRANCH  17  20
HETATM   20  O   UNK N   1      38.019  13.876   8.714  0.00  0.00    -0.350 OA
HETATM   21  H   UNK N   1      38.893  13.539   8.727  0.00  0.00     0.219 HD
ENDBRANCH  17  20
ENDBRANCH   4  16
BRANCH   2  22
HETATM   22  N   UNK N   1      37.591  11.560  11.046  0.00  0.00    -0.421 N 
HETATM   23  H   UNK N   1      37.823  10.611  11.339  0.00  0.00     0.150 HD
HETATM   24  H   UNK N   1      38.124  11.979  10.284  0.00  0.00     0.150 HD
ENDBRANCH   2  22
BRANCH   3  25
HETATM   25  C   UNK N   1      36.614  13.834  15.185  0.00  0.00     0.200 C 
HETATM   26  O   UNK N   1      35.915  13.302  16.034  0.00  0.00    -0.645 OA
BRANCH  25  27
HETATM   27  O   UNK N   1      37.645  14.614  15.565  0.00  0.00    -0.771 OA
HETATM   28  H   UNK N   1      37.810  15.433  15.140  0.00  0.00     0.167 HD
ENDBRANCH  25  27
ENDBRANCH   3  25
TORSDOF 11
ENDMDL
MODEL 9
REMARK VINA RESULT:      -5.4      7.472     11.015
REMARK  11 active torsions:
REMARK  status: ('A' for Active; 'I' for Inactive)
REMARK    1  A    between atoms: C_6  and  C_3 
REMARK    2  A    between atoms: O_15  and  C_3 
REMARK    3  A    between atoms: O_16  and  C_4 
REMARK    4  A    between atoms: C_5  and  N_12 
REMARK    5  A    between atoms: C_9  and  C_6 
REMARK    6  A    between atoms: C_6  and  O_17 
REMARK    7  A    between atoms: C_11  and  C_7 
REMARK    8  A    between atoms: C_8  and  N_13 
REMARK    9  A    between atoms: C_10  and  C_9 
REMARK   10  A    between atoms: C_9  and  O_18 
REMARK   11  A    between atoms: O_20  and  C_11 
ROOT
HETATM    1  C   UNK N   1      22.306  16.422   5.414  0.00  0.00     0.043 C 
HETATM    2  C   UNK N   1      23.572  16.962   4.822  0.00  0.00     0.125 C 
HETATM    3  C   UNK N   1      21.123  16.758   4.876  0.00  0.00     0.141 C 
HETATM    4  C   UNK N   1      23.321  18.407   4.366  0.00  0.00     0.141 C 
HETATM    5  C   UNK N   1      22.107  18.438   3.382  0.00  0.00     0.185 C 
HETATM    6  O   UNK N   1      21.061  17.637   3.837  0.00  0.00    -0.335 OA
ENDROOT
BRANCH   5   7
HETATM    7  C   UNK N   1      21.589  19.896   3.226  0.00  0.00     0.180 C 
BRANCH   7   8
HETATM    8  C   UNK N   1      20.410  20.078   2.247  0.00  0.00     0.173 C 
BRANCH   8   9
HETATM    9  C   UNK N   1      20.698  21.133   1.185  0.00  0.00     0.198 C 
BRANCH   9  10
HETATM   10  O   UNK N   1      20.595  20.568  -0.087  0.00  0.00    -0.398 OA
HETATM   11  H   UNK N   1      20.064  19.768  -0.225  0.00  0.00     0.209 HD
ENDBRANCH   9  10
ENDBRANCH   8   9
BRANCH   8  12
HETATM   12  O   UNK N   1      20.075  18.869   1.632  0.00  0.00    -0.391 OA
HETATM   13  H   UNK N   1      20.346  18.027   2.032  0.00  0.00     0.210 HD
ENDBRANCH   8  12
ENDBRANCH   7   8
BRANCH   7  14
HETATM   14  O   UNK N   1      22.629  20.742   2.832  0.00  0.00    -0.390 OA
HETATM   15  H   UNK N   1      22.736  20.981   1.897  0.00  0.00     0.210 HD
ENDBRANCH   7  14
ENDBRANCH   5   7
BRANCH   4  16
HETATM   16  N   UNK N   1      24.502  18.946   3.710  0.00  0.00    -0.365 N 
HETATM   17  C   UNK N   1      25.450  19.570   4.325  0.00  0.00     0.107 C 
HETATM   18  C   UNK N   1      26.619  20.069   3.549  0.00  0.00     0.097 C 
ATOM     19  HN  UNK N   1      24.586  18.825   2.701  1.00  0.00     0.161 HD
BRANCH  17  20
HETATM   20  O   UNK N   1      25.401  19.777   5.655  0.00  0.00    -0.350 OA
HETATM   21  H   UNK N   1      24.931  19.612   6.450  0.00  0.00     0.219 HD
ENDBRANCH  17  20
ENDBRANCH   4  16
BRANCH   2  22
HETATM   22  N   UNK N   1      24.627  16.900   5.821  0.00  0.00    -0.421 N 
HETATM   23  H   UNK N   1      25.310  16.143   5.858  0.00  0.00     0.150 HD
HETATM   24  H   UNK N   1      24.687  17.645   6.515  0.00  0.00     0.150 HD
ENDBRANCH   2  22
BRANCH   3  25
HETATM   25  C   UNK N   1      19.876  16.177   5.409  0.00  0.00     0.200 C 
HETATM   26  O   UNK N   1      18.891  16.094   4.692  0.00  0.00    -0.645 OA
BRANCH  25  27
HETATM   27  O   UNK N   1      19.813  15.738   6.680  0.00  0.00    -0.771 OA
HETATM   28  H   UNK N   1      19.131  15.155   6.954  0.00  0.00     0.167 HD
ENDBRANCH  25  27
ENDBRANCH   3  25
TORSDOF 11
ENDMDL
