MODEL 1
REMARK VINA RESULT:      -5.2      0.000      0.000
REMARK  9 active torsions:
REMARK  status: ('A' for Active; 'I' for Inactive)
REMARK    1  A    between atoms: O_1  and  P_2 
REMARK    2  A    between atoms: P_2  and  O_3 
REMARK    3  A    between atoms: P_2  and  N_5 
REMARK    4  A    between atoms: P_6  and  N_5 
REMARK    5  A    between atoms: P_6  and  O_7 
REMARK    6  A    between atoms: P_6  and  O_9 
REMARK    7  A    between atoms: O_9  and  P_10 
REMARK    8  A    between atoms: P_10  and  O_11 
REMARK    9  A    between atoms: P_10  and  O_12 
ROOT
HETATM    1  P   UNK N   1      34.718  15.719   9.979  0.00  0.00     0.362 P 
HETATM    2  O   UNK N   1      35.742  14.674   9.463  0.00  0.00    -0.636 OA
ENDROOT
BRANCH   1   3
HETATM    3  N   UNK N   1      35.762  15.455  11.420  0.00  0.00    -0.240 N 
HETATM    4  H   UNK N   1      36.336  16.160  11.883  0.00  0.00     0.176 HD
BRANCH   3   5
HETATM    5  P   UNK N   1      35.613  13.730  11.900  0.00  0.00     0.351 P 
HETATM    6  O   UNK N   1      36.226  14.367  13.174  0.00  0.00    -0.637 OA
BRANCH   5   7
HETATM    7  O   UNK N   1      34.033  14.372  11.581  0.00  0.00    -0.312 OA
HETATM    8  H   UNK N   1      33.203  13.874  11.522  0.00  0.00     0.221 HD
ENDBRANCH   5   7
BRANCH   5   9
HETATM    9  O   UNK N   1      34.487  13.317  13.153  0.00  0.00    -0.312 OA
HETATM   10  H   UNK N   1      34.655  13.558  14.078  0.00  0.00     0.221 HD
ENDBRANCH   5   9
ENDBRANCH   3   5
ENDBRANCH   1   3
BRANCH   1  11
HETATM   11  O   UNK N   1      35.465  17.220  10.424  0.00  0.00    -0.312 OA
HETATM   12  H   UNK N   1      36.113  17.480  11.097  0.00  0.00     0.222 HD
ENDBRANCH   1  11
BRANCH   1  13
HETATM   13  O   UNK N   1      35.457  16.487   8.603  0.00  0.00    -0.201 OA
BRANCH  13  14
HETATM   14  P   UNK N   1      34.464  17.859   8.181  0.00  0.00     0.399 P 
HETATM   15  O   UNK N   1      34.250  17.882   6.641  0.00  0.00    -0.631 OA
BRANCH  14  16
HETATM   16  O   UNK N   1      35.287  19.333   8.578  0.00  0.00    -0.307 OA
HETATM   17  H   UNK N   1      35.552  20.087   8.030  0.00  0.00     0.222 HD
ENDBRANCH  14  16
BRANCH  14  18
HETATM   18  O   UNK N   1      32.905  17.805   8.942  0.00  0.00    -0.307 OA
HETATM   19  H   UNK N   1      32.115  17.395   8.557  0.00  0.00     0.222 HD
ENDBRANCH  14  18
ENDBRANCH  13  14
ENDBRANCH   1  13
TORSDOF 9
ENDMDL
MODEL 2
REMARK VINA RESULT:      -4.9      1.326      5.423
REMARK  9 active torsions:
REMARK  status: ('A' for Active; 'I' for Inactive)
REMARK    1  A    between atoms: O_1  and  P_2 
REMARK    2  A    between atoms: P_2  and  O_3 
REMARK    3  A    between atoms: P_2  and  N_5 
REMARK    4  A    between atoms: P_6  and  N_5 
REMARK    5  A    between atoms: P_6  and  O_7 
REMARK    6  A    between atoms: P_6  and  O_9 
REMARK    7  A    between atoms: O_9  and  P_10 
REMARK    8  A    between atoms: P_10  and  O_11 
REMARK    9  A    between atoms: P_10  and  O_12 
ROOT
HETATM    1  P   UNK N   1      35.053  15.587  10.613  0.00  0.00     0.362 P 
HETATM    2  O   UNK N   1      35.268  15.284   9.108  0.00  0.00    -0.636 OA
ENDROOT
BRANCH   1   3
HETATM    3  N   UNK N   1      33.823  16.638   9.828  0.00  0.00    -0.240 N 
HETATM    4  H   UNK N   1      32.862  16.774  10.142  0.00  0.00     0.176 HD
BRANCH   3   5
HETATM    5  P   UNK N   1      34.587  17.404   8.395  0.00  0.00     0.351 P 
HETATM    6  O   UNK N   1      33.164  18.020   8.368  0.00  0.00    -0.637 OA
BRANCH   5   7
HETATM    7  O   UNK N   1      35.446  17.884   9.824  0.00  0.00    -0.312 OA
HETATM    8  H   UNK N   1      36.290  17.529  10.143  0.00  0.00     0.221 HD
ENDBRANCH   5   7
BRANCH   5   9
HETATM    9  O   UNK N   1      34.874  19.116   8.429  0.00  0.00    -0.312 OA
HETATM   10  H   UNK N   1      35.456  19.513   9.095  0.00  0.00     0.221 HD
ENDBRANCH   5   9
ENDBRANCH   3   5
ENDBRANCH   1   3
BRANCH   1  11
HETATM   11  O   UNK N   1      33.475  15.128  11.168  0.00  0.00    -0.312 OA
HETATM   12  H   UNK N   1      33.059  14.284  11.401  0.00  0.00     0.222 HD
ENDBRANCH   1  11
BRANCH   1  13
HETATM   13  O   UNK N   1      34.817  13.868  10.485  0.00  0.00    -0.201 OA
BRANCH  13  14
HETATM   14  P   UNK N   1      35.547  13.138  11.892  0.00  0.00     0.399 P 
HETATM   15  O   UNK N   1      35.862  11.645  11.590  0.00  0.00    -0.631 OA
BRANCH  14  16
HETATM   16  O   UNK N   1      34.424  13.139  13.214  0.00  0.00    -0.307 OA
HETATM   17  H   UNK N   1      34.075  12.418  13.759  0.00  0.00     0.222 HD
ENDBRANCH  14  16
BRANCH  14  18
HETATM   18  O   UNK N   1      37.028  13.920  12.349  0.00  0.00    -0.307 OA
HETATM   19  H   UNK N   1      37.313  14.792  12.035  0.00  0.00     0.222 HD
ENDBRANCH  14  18
ENDBRANCH  13  14
ENDBRANCH   1  13
TORSDOF 9
ENDMDL
MODEL 3
REMARK VINA RESULT:      -4.8      2.122      3.168
REMARK  9 active torsions:
REMARK  status: ('A' for Active; 'I' for Inactive)
REMARK    1  A    between atoms: O_1  and  P_2 
REMARK    2  A    between atoms: P_2  and  O_3 
REMARK    3  A    between atoms: P_2  and  N_5 
REMARK    4  A    between atoms: P_6  and  N_5 
REMARK    5  A    between atoms: P_6  and  O_7 
REMARK    6  A    between atoms: P_6  and  O_9 
REMARK    7  A    between atoms: O_9  and  P_10 
REMARK    8  A    between atoms: P_10  and  O_11 
REMARK    9  A    between atoms: P_10  and  O_12 
ROOT
HETATM    1  P   UNK N   1      35.826  13.614  12.338  0.00  0.00     0.362 P 
HETATM    2  O   UNK N   1      37.083  12.916  11.758  0.00  0.00    -0.636 OA
ENDROOT
BRANCH   1   3
HETATM    3  N   UNK N   1      36.905  13.507  13.772  0.00  0.00    -0.240 N 
HETATM    4  H   UNK N   1      37.856  13.872  13.836  0.00  0.00     0.176 HD
BRANCH   3   5
HETATM    5  P   UNK N   1      36.011  12.647  15.071  0.00  0.00     0.351 P 
HETATM    6  O   UNK N   1      36.392  13.979  15.770  0.00  0.00    -0.637 OA
BRANCH   5   7
HETATM    7  O   UNK N   1      34.942  12.929  13.734  0.00  0.00    -0.312 OA
HETATM    8  H   UNK N   1      34.099  13.408  13.754  0.00  0.00     0.221 HD
ENDBRANCH   5   7
BRANCH   5   9
HETATM    9  O   UNK N   1      34.487  13.294  15.592  0.00  0.00    -0.312 OA
HETATM   10  H   UNK N   1      34.054  12.968  16.396  0.00  0.00     0.221 HD
ENDBRANCH   5   9
ENDBRANCH   3   5
ENDBRANCH   1   3
BRANCH   1  11
HETATM   11  O   UNK N   1      36.160  15.214  12.919  0.00  0.00    -0.312 OA
HETATM   12  H   UNK N   1      35.675  16.054  12.906  0.00  0.00     0.222 HD
ENDBRANCH   1  11
BRANCH   1  13
HETATM   13  O   UNK N   1      36.338  14.660  11.044  0.00  0.00    -0.201 OA
BRANCH  13  14
HETATM   14  P   UNK N   1      34.936  15.558  10.519  0.00  0.00     0.399 P 
HETATM   15  O   UNK N   1      34.808  15.449   8.973  0.00  0.00    -0.631 OA
BRANCH  14  16
HETATM   16  O   UNK N   1      35.144  17.244  10.871  0.00  0.00    -0.307 OA
HETATM   17  H   UNK N   1      35.608  17.947  10.391  0.00  0.00     0.222 HD
ENDBRANCH  14  16
BRANCH  14  18
HETATM   18  O   UNK N   1      33.467  14.963  11.226  0.00  0.00    -0.307 OA
HETATM   19  H   UNK N   1      32.578  15.128  10.876  0.00  0.00     0.222 HD
ENDBRANCH  14  18
ENDBRANCH  13  14
ENDBRANCH   1  13
TORSDOF 9
ENDMDL
MODEL 4
REMARK VINA RESULT:      -4.8      1.252      2.227
REMARK  9 active torsions:
REMARK  status: ('A' for Active; 'I' for Inactive)
REMARK    1  A    between atoms: O_1  and  P_2 
REMARK    2  A    between atoms: P_2  and  O_3 
REMARK    3  A    between atoms: P_2  and  N_5 
REMARK    4  A    between atoms: P_6  and  N_5 
REMARK    5  A    between atoms: P_6  and  O_7 
REMARK    6  A    between atoms: P_6  and  O_9 
REMARK    7  A    between atoms: O_9  and  P_10 
REMARK    8  A    between atoms: P_10  and  O_11 
REMARK    9  A    between atoms: P_10  and  O_12 
ROOT
HETATM    1  P   UNK N   1      35.245  15.926  10.022  0.00  0.00     0.362 P 
HETATM    2  O   UNK N   1      35.684  17.368  10.388  0.00  0.00    -0.636 OA
ENDROOT
BRANCH   1   3
HETATM    3  N   UNK N   1      35.700  15.763  11.753  0.00  0.00    -0.240 N 
HETATM    4  H   UNK N   1      35.844  16.530  12.411  0.00  0.00     0.176 HD
BRANCH   3   5
HETATM    5  P   UNK N   1      35.855  14.011  12.120  0.00  0.00     0.351 P 
HETATM    6  O   UNK N   1      36.543  14.113  10.734  0.00  0.00    -0.637 OA
BRANCH   5   7
HETATM    7  O   UNK N   1      36.723  14.923  13.314  0.00  0.00    -0.312 OA
HETATM    8  H   UNK N   1      36.383  15.658  13.847  0.00  0.00     0.221 HD
ENDBRANCH   5   7
BRANCH   5   9
HETATM    9  O   UNK N   1      37.441  13.363  12.395  0.00  0.00    -0.312 OA
HETATM   10  H   UNK N   1      37.562  12.483  12.784  0.00  0.00     0.221 HD
ENDBRANCH   5   9
ENDBRANCH   3   5
ENDBRANCH   1   3
BRANCH   1  11
HETATM   11  O   UNK N   1      33.862  15.399  10.927  0.00  0.00    -0.312 OA
HETATM   12  H   UNK N   1      32.903  15.476  10.803  0.00  0.00     0.222 HD
ENDBRANCH   1  11
BRANCH   1  13
HETATM   13  O   UNK N   1      33.849  16.903   9.663  0.00  0.00    -0.201 OA
BRANCH  13  14
HETATM   14  P   UNK N   1      34.161  17.718   8.152  0.00  0.00     0.399 P 
HETATM   15  O   UNK N   1      32.809  18.105   7.490  0.00  0.00    -0.631 OA
BRANCH  14  16
HETATM   16  O   UNK N   1      34.951  16.639   7.046  0.00  0.00    -0.307 OA
HETATM   17  H   UNK N   1      34.602  16.088   6.329  0.00  0.00     0.222 HD
ENDBRANCH  14  16
BRANCH  14  18
HETATM   18  O   UNK N   1      35.094  19.166   8.362  0.00  0.00    -0.307 OA
HETATM   19  H   UNK N   1      35.724  19.519   7.715  0.00  0.00     0.222 HD
ENDBRANCH  14  18
ENDBRANCH  13  14
ENDBRANCH   1  13
TORSDOF 9
ENDMDL
MODEL 5
REMARK VINA RESULT:      -4.8      1.466      5.134
REMARK  9 active torsions:
REMARK  status: ('A' for Active; 'I' for Inactive)
REMARK    1  A    between atoms: O_1  and  P_2 
REMARK    2  A    between atoms: P_2  and  O_3 
REMARK    3  A    between atoms: P_2  and  N_5 
REMARK    4  A    between atoms: P_6  and  N_5 
REMARK    5  A    between atoms: P_6  and  O_7 
REMARK    6  A    between atoms: P_6  and  O_9 
REMARK    7  A    between atoms: O_9  and  P_10 
REMARK    8  A    between atoms: P_10  and  O_11 
REMARK    9  A    between atoms: P_10  and  O_12 
ROOT
HETATM    1  P   UNK N   1      34.987  16.010   9.579  0.00  0.00     0.362 P 
HETATM    2  O   UNK N   1      33.849  15.432  10.459  0.00  0.00    -0.636 OA
ENDROOT
BRANCH   1   3
HETATM    3  N   UNK N   1      33.767  17.330   9.547  0.00  0.00    -0.240 N 
HETATM    4  H   UNK N   1      33.350  17.781  10.360  0.00  0.00     0.176 HD
BRANCH   3   5
HETATM    5  P   UNK N   1      33.415  17.712   7.827  0.00  0.00     0.351 P 
HETATM    6  O   UNK N   1      34.313  18.906   8.245  0.00  0.00    -0.637 OA
BRANCH   5   7
HETATM    7  O   UNK N   1      34.290  16.216   7.911  0.00  0.00    -0.312 OA
HETATM    8  H   UNK N   1      35.004  15.926   7.323  0.00  0.00     0.221 HD
ENDBRANCH   5   7
BRANCH   5   9
HETATM    9  O   UNK N   1      34.723  17.668   6.687  0.00  0.00    -0.312 OA
HETATM   10  H   UNK N   1      35.248  18.460   6.496  0.00  0.00     0.221 HD
ENDBRANCH   5   9
ENDBRANCH   3   5
ENDBRANCH   1   3
BRANCH   1  11
HETATM   11  O   UNK N   1      35.686  17.448  10.251  0.00  0.00    -0.312 OA
HETATM   12  H   UNK N   1      35.684  17.854  11.132  0.00  0.00     0.222 HD
ENDBRANCH   1  11
BRANCH   1  13
HETATM   13  O   UNK N   1      35.752  15.683  11.108  0.00  0.00    -0.201 OA
BRANCH  13  14
HETATM   14  P   UNK N   1      35.677  13.958  11.366  0.00  0.00     0.399 P 
HETATM   15  O   UNK N   1      37.038  13.466  11.934  0.00  0.00    -0.631 OA
BRANCH  14  16
HETATM   16  O   UNK N   1      35.458  13.139   9.853  0.00  0.00    -0.307 OA
HETATM   17  H   UNK N   1      35.392  12.196   9.639  0.00  0.00     0.222 HD
ENDBRANCH  14  16
BRANCH  14  18
HETATM   18  O   UNK N   1      34.431  13.512  12.489  0.00  0.00    -0.307 OA
HETATM   19  H   UNK N   1      33.746  12.846  12.320  0.00  0.00     0.222 HD
ENDBRANCH  14  18
ENDBRANCH  13  14
ENDBRANCH   1  13
TORSDOF 9
ENDMDL
MODEL 6
REMARK VINA RESULT:      -4.6      3.802      5.858
REMARK  9 active torsions:
REMARK  status: ('A' for Active; 'I' for Inactive)
REMARK    1  A    between atoms: O_1  and  P_2 
REMARK    2  A    between atoms: P_2  and  O_3 
REMARK    3  A    between atoms: P_2  and  N_5 
REMARK    4  A    between atoms: P_6  and  N_5 
REMARK    5  A    between atoms: P_6  and  O_7 
REMARK    6  A    between atoms: P_6  and  O_9 
REMARK    7  A    between atoms: O_9  and  P_10 
REMARK    8  A    between atoms: P_10  and  O_11 
REMARK    9  A    between atoms: P_10  and  O_12 
ROOT
HETATM    1  P   UNK N   1      31.480  17.604   8.373  0.00  0.00     0.362 P 
HETATM    2  O   UNK N   1      31.176  16.236   9.036  0.00  0.00    -0.636 OA
ENDROOT
BRANCH   1   3
HETATM    3  N   UNK N   1      32.739  16.539   7.657  0.00  0.00    -0.240 N 
HETATM    4  H   UNK N   1      32.571  15.714   7.081  0.00  0.00     0.176 HD
BRANCH   3   5
HETATM    5  P   UNK N   1      34.345  17.187   8.135  0.00  0.00     0.351 P 
HETATM    6  O   UNK N   1      34.311  17.499   6.615  0.00  0.00    -0.637 OA
BRANCH   5   7
HETATM    7  O   UNK N   1      33.104  18.060   8.977  0.00  0.00    -0.312 OA
HETATM    8  H   UNK N   1      33.135  18.377   9.893  0.00  0.00     0.221 HD
ENDBRANCH   5   7
BRANCH   5   9
HETATM    9  O   UNK N   1      34.600  18.902   8.056  0.00  0.00    -0.312 OA
HETATM   10  H   UNK N   1      33.975  19.480   7.592  0.00  0.00     0.221 HD
ENDBRANCH   5   9
ENDBRANCH   3   5
ENDBRANCH   1   3
BRANCH   1  11
HETATM   11  O   UNK N   1      31.283  17.569   6.649  0.00  0.00    -0.312 OA
HETATM   12  H   UNK N   1      31.888  17.445   5.902  0.00  0.00     0.222 HD
ENDBRANCH   1  11
BRANCH   1  13
HETATM   13  O   UNK N   1      29.828  17.274   7.934  0.00  0.00    -0.201 OA
BRANCH  13  14
HETATM   14  P   UNK N   1      28.814  17.966   9.175  0.00  0.00     0.399 P 
HETATM   15  O   UNK N   1      27.934  16.848   9.800  0.00  0.00    -0.631 OA
BRANCH  14  16
HETATM   16  O   UNK N   1      27.717  19.114   8.476  0.00  0.00    -0.307 OA
HETATM   17  H   UNK N   1      26.754  19.097   8.369  0.00  0.00     0.222 HD
ENDBRANCH  14  16
BRANCH  14  18
HETATM   18  O   UNK N   1      29.737  18.701  10.448  0.00  0.00    -0.307 OA
HETATM   19  H   UNK N   1      30.702  18.658  10.529  0.00  0.00     0.222 HD
ENDBRANCH  14  18
ENDBRANCH  13  14
ENDBRANCH   1  13
TORSDOF 9
ENDMDL
MODEL 7
REMARK VINA RESULT:      -4.6     13.130     15.651
REMARK  9 active torsions:
REMARK  status: ('A' for Active; 'I' for Inactive)
REMARK    1  A    between atoms: O_1  and  P_2 
REMARK    2  A    between atoms: P_2  and  O_3 
REMARK    3  A    between atoms: P_2  and  N_5 
REMARK    4  A    between atoms: P_6  and  N_5 
REMARK    5  A    between atoms: P_6  and  O_7 
REMARK    6  A    between atoms: P_6  and  O_9 
REMARK    7  A    between atoms: O_9  and  P_10 
REMARK    8  A    between atoms: P_10  and  O_11 
REMARK    9  A    between atoms: P_10  and  O_12 
ROOT
HETATM    1  P   UNK N   1      44.466  23.732   1.870  0.00  0.00     0.362 P 
HETATM    2  O   UNK N   1      43.008  24.068   1.466  0.00  0.00    -0.636 OA
ENDROOT
BRANCH   1   3
HETATM    3  N   UNK N   1      44.663  25.266   0.953  0.00  0.00    -0.240 N 
HETATM    4  H   UNK N   1      44.174  26.142   1.137  0.00  0.00     0.176 HD
BRANCH   3   5
HETATM    5  P   UNK N   1      45.874  24.982  -0.343  0.00  0.00     0.351 P 
HETATM    6  O   UNK N   1      46.529  26.134   0.463  0.00  0.00    -0.637 OA
BRANCH   5   7
HETATM    7  O   UNK N   1      45.729  23.550   0.627  0.00  0.00    -0.312 OA
HETATM    8  H   UNK N   1      45.684  23.503   1.594  0.00  0.00     0.221 HD
ENDBRANCH   5   7
BRANCH   5   9
HETATM    9  O   UNK N   1      47.427  24.347   0.104  0.00  0.00    -0.312 OA
HETATM   10  H   UNK N   1      48.242  24.834  -0.094  0.00  0.00     0.221 HD
ENDBRANCH   5   9
ENDBRANCH   3   5
ENDBRANCH   1   3
BRANCH   1  11
HETATM   11  O   UNK N   1      45.164  24.932   2.911  0.00  0.00    -0.312 OA
HETATM   12  H   UNK N   1      44.851  25.773   3.279  0.00  0.00     0.222 HD
ENDBRANCH   1  11
BRANCH   1  13
HETATM   13  O   UNK N   1      43.613  23.824   3.385  0.00  0.00    -0.201 OA
BRANCH  13  14
HETATM   14  P   UNK N   1      44.084  22.435   4.331  0.00  0.00     0.399 P 
HETATM   15  O   UNK N   1      43.798  22.717   5.833  0.00  0.00    -0.631 OA
BRANCH  14  16
HETATM   16  O   UNK N   1      45.796  22.181   4.202  0.00  0.00    -0.307 OA
HETATM   17  H   UNK N   1      46.545  22.653   4.596  0.00  0.00     0.222 HD
ENDBRANCH  14  16
BRANCH  14  18
HETATM   18  O   UNK N   1      43.218  21.001   3.876  0.00  0.00    -0.307 OA
HETATM   19  H   UNK N   1      43.363  20.503   3.056  0.00  0.00     0.222 HD
ENDBRANCH  14  18
ENDBRANCH  13  14
ENDBRANCH   1  13
TORSDOF 9
ENDMDL
MODEL 8
REMARK VINA RESULT:      -4.6      2.077      3.382
REMARK  9 active torsions:
REMARK  status: ('A' for Active; 'I' for Inactive)
REMARK    1  A    between atoms: O_1  and  P_2 
REMARK    2  A    between atoms: P_2  and  O_3 
REMARK    3  A    between atoms: P_2  and  N_5 
REMARK    4  A    between atoms: P_6  and  N_5 
REMARK    5  A    between atoms: P_6  and  O_7 
REMARK    6  A    between atoms: P_6  and  O_9 
REMARK    7  A    between atoms: O_9  and  P_10 
REMARK    8  A    between atoms: P_10  and  O_11 
REMARK    9  A    between atoms: P_10  and  O_12 
ROOT
HETATM    1  P   UNK N   1      36.048  14.629  12.486  0.00  0.00     0.362 P 
HETATM    2  O   UNK N   1      34.621  14.041  12.334  0.00  0.00    -0.636 OA
ENDROOT
BRANCH   1   3
HETATM    3  N   UNK N   1      36.120  13.167  13.530  0.00  0.00    -0.240 N 
HETATM    4  H   UNK N   1      36.032  12.200  13.216  0.00  0.00     0.176 HD
BRANCH   3   5
HETATM    5  P   UNK N   1      36.374  13.711  15.223  0.00  0.00     0.351 P 
HETATM    6  O   UNK N   1      37.488  12.644  15.057  0.00  0.00    -0.637 OA
BRANCH   5   7
HETATM    7  O   UNK N   1      36.629  15.050  14.149  0.00  0.00    -0.312 OA
HETATM    8  H   UNK N   1      37.293  15.113  13.445  0.00  0.00     0.221 HD
ENDBRANCH   5   7
BRANCH   5   9
HETATM    9  O   UNK N   1      37.833  14.571  15.603  0.00  0.00    -0.312 OA
HETATM   10  H   UNK N   1      37.964  15.487  15.312  0.00  0.00     0.221 HD
ENDBRANCH   5   9
ENDBRANCH   3   5
ENDBRANCH   1   3
BRANCH   1  11
HETATM   11  O   UNK N   1      37.277  13.561  11.887  0.00  0.00    -0.312 OA
HETATM   12  H   UNK N   1      37.765  13.493  11.052  0.00  0.00     0.222 HD
ENDBRANCH   1  11
BRANCH   1  13
HETATM   13  O   UNK N   1      35.873  14.366  10.774  0.00  0.00    -0.201 OA
BRANCH  13  14
HETATM   14  P   UNK N   1      34.736  15.550  10.181  0.00  0.00     0.399 P 
HETATM   15  O   UNK N   1      35.018  15.821   8.676  0.00  0.00    -0.631 OA
BRANCH  14  16
HETATM   16  O   UNK N   1      34.971  17.062  10.999  0.00  0.00    -0.307 OA
HETATM   17  H   UNK N   1      35.511  17.834  10.774  0.00  0.00     0.222 HD
ENDBRANCH  14  16
BRANCH  14  18
HETATM   18  O   UNK N   1      33.090  15.021  10.336  0.00  0.00    -0.307 OA
HETATM   19  H   UNK N   1      32.511  14.788   9.594  0.00  0.00     0.222 HD
ENDBRANCH  14  18
ENDBRANCH  13  14
ENDBRANCH   1  13
TORSDOF 9
ENDMDL
MODEL 9
REMARK VINA RESULT:      -4.4      2.315      5.026
REMARK  9 active torsions:
REMARK  status: ('A' for Active; 'I' for Inactive)
REMARK    1  A    between atoms: O_1  and  P_2 
REMARK    2  A    between atoms: P_2  and  O_3 
REMARK    3  A    between atoms: P_2  and  N_5 
REMARK    4  A    between atoms: P_6  and  N_5 
REMARK    5  A    between atoms: P_6  and  O_7 
REMARK    6  A    between atoms: P_6  and  O_9 
REMARK    7  A    between atoms: O_9  and  P_10 
REMARK    8  A    between atoms: P_10  and  O_11 
REMARK    9  A    between atoms: P_10  and  O_12 
ROOT
HETATM    1  P   UNK N   1      34.402  17.673   8.473  0.00  0.00     0.362 P 
HETATM    2  O   UNK N   1      34.700  17.207   7.025  0.00  0.00    -0.636 OA
ENDROOT
BRANCH   1   3
HETATM    3  N   UNK N   1      32.828  17.948   7.647  0.00  0.00    -0.240 N 
HETATM    4  H   UNK N   1      32.654  18.614   6.894  0.00  0.00     0.176 HD
BRANCH   3   5
HETATM    5  P   UNK N   1      31.619  16.842   8.382  0.00  0.00     0.351 P 
HETATM    6  O   UNK N   1      30.995  18.234   8.663  0.00  0.00    -0.637 OA
BRANCH   5   7
HETATM    7  O   UNK N   1      31.711  16.534   6.677  0.00  0.00    -0.312 OA
HETATM    8  H   UNK N   1      32.283  15.890   6.232  0.00  0.00     0.221 HD
ENDBRANCH   5   7
BRANCH   5   9
HETATM    9  O   UNK N   1      30.044  16.745   7.660  0.00  0.00    -0.312 OA
HETATM   10  H   UNK N   1      29.733  15.926   7.244  0.00  0.00     0.221 HD
ENDBRANCH   5   9
ENDBRANCH   3   5
ENDBRANCH   1   3
BRANCH   1  11
HETATM   11  O   UNK N   1      33.178  16.714   9.244  0.00  0.00    -0.312 OA
HETATM   12  H   UNK N   1      33.015  15.762   9.322  0.00  0.00     0.222 HD
ENDBRANCH   1  11
BRANCH   1  13
HETATM   13  O   UNK N   1      34.917  16.020   8.653  0.00  0.00    -0.201 OA
BRANCH  13  14
HETATM   14  P   UNK N   1      35.402  15.806  10.316  0.00  0.00     0.399 P 
HETATM   15  O   UNK N   1      34.581  14.645  10.943  0.00  0.00    -0.631 OA
BRANCH  14  16
HETATM   16  O   UNK N   1      35.015  17.226  11.235  0.00  0.00    -0.307 OA
HETATM   17  H   UNK N   1      34.316  17.398  11.885  0.00  0.00     0.222 HD
ENDBRANCH  14  16
BRANCH  14  18
HETATM   18  O   UNK N   1      37.087  15.420  10.469  0.00  0.00    -0.307 OA
HETATM   19  H   UNK N   1      37.438  14.650  10.941  0.00  0.00     0.222 HD
ENDBRANCH  14  18
ENDBRANCH  13  14
ENDBRANCH   1  13
TORSDOF 9
ENDMDL
