MODEL 1
REMARK VINA RESULT:      -6.6      0.000      0.000
REMARK  8 active torsions:
REMARK  status: ('A' for Active; 'I' for Inactive)
REMARK    1  A    between atoms: C_9  and  C_5 
REMARK    2  A    between atoms: O_21  and  C_5 
REMARK    3  A    between atoms: C_10  and  O_16 
REMARK    4  A    between atoms: C_11  and  O_17 
REMARK    5  A    between atoms: C_12  and  N_15 
REMARK    6  A    between atoms: P_23  and  O_18 
REMARK    7  A    between atoms: P_23  and  O_19 
REMARK    8  A    between atoms: P_23  and  O_21 
ROOT
HETATM    1  C   UNK N   1      30.623  17.902   9.326  0.00  0.00     0.180 C 
HETATM    2  C   UNK N   1      29.531  16.933   9.789  0.00  0.00     0.182 C 
HETATM    3  C   UNK N   1      28.249  17.644   9.442  0.00  0.00     0.198 C 
HETATM    4  C   UNK N   1      28.670  18.802   8.533  0.00  0.00     0.261 C 
HETATM    5  O   UNK N   1      30.031  19.074   8.793  0.00  0.00    -0.353 OA
ENDROOT
BRANCH   4   6
HETATM    6  N   UNK N   1      28.405  18.601   7.094  0.00  0.00    -0.311 N 
HETATM    7  C   UNK N   1      28.724  17.464   6.416  0.00  0.00     0.186 A 
HETATM    8  N   UNK N   1      28.315  17.516   5.123  0.00  0.00    -0.350 N 
HETATM    9  C   UNK N   1      27.717  18.715   5.004  0.00  0.00     0.060 A 
ATOM     10  HN  UNK N   1      28.434  16.805   4.402  1.00  0.00     0.166 HD
HETATM   11  C   UNK N   1      27.113  19.251   3.874  0.00  0.00     0.032 A 
HETATM   12  C   UNK N   1      27.763  19.371   6.196  0.00  0.00     0.064 A 
HETATM   13  C   UNK N   1      26.534  20.529   3.992  0.00  0.00     0.002 A 
HETATM   14  C   UNK N   1      26.567  21.215   5.228  0.00  0.00     0.002 A 
HETATM   15  C   UNK N   1      27.182  20.630   6.351  0.00  0.00     0.032 A 
ENDBRANCH   4   6
BRANCH   3  16
HETATM   16  O   UNK N   1      27.298  16.783   8.884  0.00  0.00    -0.388 OA
HETATM   17  H   UNK N   1      26.932  16.370   8.087  0.00  0.00     0.210 HD
ENDBRANCH   3  16
BRANCH   2  18
HETATM   18  O   UNK N   1      29.602  16.731  11.173  0.00  0.00    -0.390 OA
HETATM   19  H   UNK N   1      30.450  16.530  11.599  0.00  0.00     0.210 HD
ENDBRANCH   2  18
BRANCH   1  20
HETATM   20  C   UNK N   1      31.512  17.270   8.254  0.00  0.00     0.215 C 
BRANCH  20  21
HETATM   21  O   UNK N   1      32.851  17.657   8.374  0.00  0.00    -0.294 OA
BRANCH  21  22
HETATM   22  P   UNK N   1      33.657  16.912   7.021  0.00  0.00     0.390 P 
HETATM   23  O   UNK N   1      32.288  17.317   6.412  0.00  0.00    -0.632 OA
BRANCH  22  24
HETATM   24  O   UNK N   1      34.115  17.830   5.623  0.00  0.00    -0.307 OA
HETATM   25  H   UNK N   1      33.498  18.164   4.953  0.00  0.00     0.222 HD
ENDBRANCH  22  24
BRANCH  22  26
HETATM   26  O   UNK N   1      34.538  18.346   7.462  0.00  0.00    -0.307 OA
HETATM   27  H   UNK N   1      34.319  19.239   7.769  0.00  0.00     0.222 HD
ENDBRANCH  22  26
ENDBRANCH  21  22
ENDBRANCH  20  21
ENDBRANCH   1  20
TORSDOF 8
ENDMDL
MODEL 2
REMARK VINA RESULT:      -6.5      3.318      5.463
REMARK  8 active torsions:
REMARK  status: ('A' for Active; 'I' for Inactive)
REMARK    1  A    between atoms: C_9  and  C_5 
REMARK    2  A    between atoms: O_21  and  C_5 
REMARK    3  A    between atoms: C_10  and  O_16 
REMARK    4  A    between atoms: C_11  and  O_17 
REMARK    5  A    between atoms: C_12  and  N_15 
REMARK    6  A    between atoms: P_23  and  O_18 
REMARK    7  A    between atoms: P_23  and  O_19 
REMARK    8  A    between atoms: P_23  and  O_21 
ROOT
HETATM    1  C   UNK N   1      34.422  14.533   7.502  0.00  0.00     0.180 C 
HETATM    2  C   UNK N   1      35.112  15.689   6.771  0.00  0.00     0.182 C 
HETATM    3  C   UNK N   1      34.009  16.304   5.950  0.00  0.00     0.198 C 
HETATM    4  C   UNK N   1      32.717  15.686   6.491  0.00  0.00     0.261 C 
HETATM    5  O   UNK N   1      33.060  14.467   7.118  0.00  0.00    -0.353 OA
ENDROOT
BRANCH   4   6
HETATM    6  N   UNK N   1      31.921  16.563   7.373  0.00  0.00    -0.311 N 
HETATM    7  C   UNK N   1      32.396  17.114   8.524  0.00  0.00     0.186 A 
HETATM    8  N   UNK N   1      31.480  17.928   9.108  0.00  0.00    -0.350 N 
HETATM    9  C   UNK N   1      30.416  17.886   8.288  0.00  0.00     0.060 A 
ATOM     10  HN  UNK N   1      31.579  18.455   9.975  1.00  0.00     0.166 HD
HETATM   11  C   UNK N   1      29.210  18.562   8.430  0.00  0.00     0.032 A 
HETATM   12  C   UNK N   1      30.681  17.066   7.233  0.00  0.00     0.064 A 
HETATM   13  C   UNK N   1      28.239  18.373   7.429  0.00  0.00     0.002 A 
HETATM   14  C   UNK N   1      28.507  17.533   6.324  0.00  0.00     0.002 A 
HETATM   15  C   UNK N   1      29.746  16.874   6.215  0.00  0.00     0.032 A 
ENDBRANCH   4   6
BRANCH   3  16
HETATM   16  O   UNK N   1      34.041  17.702   5.981  0.00  0.00    -0.388 OA
HETATM   17  H   UNK N   1      34.095  18.534   5.485  0.00  0.00     0.210 HD
ENDBRANCH   3  16
BRANCH   2  18
HETATM   18  O   UNK N   1      36.121  15.207   5.926  0.00  0.00    -0.390 OA
HETATM   19  H   UNK N   1      37.036  15.137   6.240  0.00  0.00     0.210 HD
ENDBRANCH   2  18
BRANCH   1  20
HETATM   20  C   UNK N   1      34.496  14.711   9.019  0.00  0.00     0.215 C 
BRANCH  20  21
HETATM   21  O   UNK N   1      35.704  15.283   9.432  0.00  0.00    -0.294 OA
BRANCH  21  22
HETATM   22  P   UNK N   1      35.394  15.879  11.038  0.00  0.00     0.390 P 
HETATM   23  O   UNK N   1      34.987  14.386  11.153  0.00  0.00    -0.632 OA
BRANCH  22  24
HETATM   24  O   UNK N   1      36.317  15.333  12.402  0.00  0.00    -0.307 OA
HETATM   25  H   UNK N   1      36.454  14.403  12.641  0.00  0.00     0.222 HD
ENDBRANCH  22  24
BRANCH  22  26
HETATM   26  O   UNK N   1      37.104  15.988  10.734  0.00  0.00    -0.307 OA
HETATM   27  H   UNK N   1      37.786  15.421  10.346  0.00  0.00     0.222 HD
ENDBRANCH  22  26
ENDBRANCH  21  22
ENDBRANCH  20  21
ENDBRANCH   1  20
TORSDOF 8
ENDMDL
MODEL 3
REMARK VINA RESULT:      -6.5      6.817      8.983
REMARK  8 active torsions:
REMARK  status: ('A' for Active; 'I' for Inactive)
REMARK    1  A    between atoms: C_9  and  C_5 
REMARK    2  A    between atoms: O_21  and  C_5 
REMARK    3  A    between atoms: C_10  and  O_16 
REMARK    4  A    between atoms: C_11  and  O_17 
REMARK    5  A    between atoms: C_12  and  N_15 
REMARK    6  A    between atoms: P_23  and  O_18 
REMARK    7  A    between atoms: P_23  and  O_19 
REMARK    8  A    between atoms: P_23  and  O_21 
ROOT
HETATM    1  C   UNK N   1      36.023  12.747  11.720  0.00  0.00     0.180 C 
HETATM    2  C   UNK N   1      37.462  13.233  11.522  0.00  0.00     0.182 C 
HETATM    3  C   UNK N   1      37.480  13.730  10.099  0.00  0.00     0.198 C 
HETATM    4  C   UNK N   1      36.008  13.798   9.683  0.00  0.00     0.261 C 
HETATM    5  O   UNK N   1      35.288  12.917  10.521  0.00  0.00    -0.353 OA
ENDROOT
BRANCH   4   6
HETATM    6  N   UNK N   1      35.422  15.153   9.660  0.00  0.00    -0.311 N 
HETATM    7  C   UNK N   1      35.380  15.979  10.742  0.00  0.00     0.186 A 
HETATM    8  N   UNK N   1      34.846  17.188  10.433  0.00  0.00    -0.350 N 
HETATM    9  C   UNK N   1      34.562  17.107   9.121  0.00  0.00     0.060 A 
ATOM     10  HN  UNK N   1      34.696  17.980  11.056  1.00  0.00     0.166 HD
HETATM   11  C   UNK N   1      34.008  18.093   8.313  0.00  0.00     0.032 A 
HETATM   12  C   UNK N   1      34.915  15.880   8.648  0.00  0.00     0.064 A 
HETATM   13  C   UNK N   1      33.813  17.784   6.954  0.00  0.00     0.002 A 
HETATM   14  C   UNK N   1      34.185  16.517   6.450  0.00  0.00     0.002 A 
HETATM   15  C   UNK N   1      34.752  15.550   7.302  0.00  0.00     0.032 A 
ENDBRANCH   4   6
BRANCH   3  16
HETATM   16  O   UNK N   1      38.177  14.935   9.968  0.00  0.00    -0.388 OA
HETATM   17  H   UNK N   1      38.146  15.905   9.953  0.00  0.00     0.210 HD
ENDBRANCH   3  16
BRANCH   2  18
HETATM   18  O   UNK N   1      38.367  12.173  11.666  0.00  0.00    -0.390 OA
HETATM   19  H   UNK N   1      38.297  11.564  12.417  0.00  0.00     0.210 HD
ENDBRANCH   2  18
BRANCH   1  20
HETATM   20  C   UNK N   1      35.323  13.522  12.838  0.00  0.00     0.215 C 
BRANCH  20  21
HETATM   21  O   UNK N   1      36.226  14.198  13.666  0.00  0.00    -0.294 OA
BRANCH  21  22
HETATM   22  P   UNK N   1      36.436  13.159  15.047  0.00  0.00     0.390 P 
HETATM   23  O   UNK N   1      37.116  14.473  15.513  0.00  0.00    -0.632 OA
BRANCH  22  24
HETATM   24  O   UNK N   1      35.646  13.486  16.556  0.00  0.00    -0.307 OA
HETATM   25  H   UNK N   1      35.005  12.897  16.984  0.00  0.00     0.222 HD
ENDBRANCH  22  24
BRANCH  22  26
HETATM   26  O   UNK N   1      34.733  13.437  14.825  0.00  0.00    -0.307 OA
HETATM   27  H   UNK N   1      34.073  13.246  14.143  0.00  0.00     0.222 HD
ENDBRANCH  22  26
ENDBRANCH  21  22
ENDBRANCH  20  21
ENDBRANCH   1  20
TORSDOF 8
ENDMDL
MODEL 4
REMARK VINA RESULT:      -6.4      2.727      4.761
REMARK  8 active torsions:
REMARK  status: ('A' for Active; 'I' for Inactive)
REMARK    1  A    between atoms: C_9  and  C_5 
REMARK    2  A    between atoms: O_21  and  C_5 
REMARK    3  A    between atoms: C_10  and  O_16 
REMARK    4  A    between atoms: C_11  and  O_17 
REMARK    5  A    between atoms: C_12  and  N_15 
REMARK    6  A    between atoms: P_23  and  O_18 
REMARK    7  A    between atoms: P_23  and  O_19 
REMARK    8  A    between atoms: P_23  and  O_21 
ROOT
HETATM    1  C   UNK N   1      33.015  16.392   4.934  0.00  0.00     0.180 C 
HETATM    2  C   UNK N   1      32.667  16.690   3.472  0.00  0.00     0.182 C 
HETATM    3  C   UNK N   1      31.263  16.164   3.324  0.00  0.00     0.198 C 
HETATM    4  C   UNK N   1      30.784  15.897   4.754  0.00  0.00     0.261 C 
HETATM    5  O   UNK N   1      31.931  15.730   5.562  0.00  0.00    -0.353 OA
ENDROOT
BRANCH   4   6
HETATM    6  N   UNK N   1      29.854  16.903   5.304  0.00  0.00    -0.311 N 
HETATM    7  C   UNK N   1      28.922  17.560   4.561  0.00  0.00     0.186 A 
HETATM    8  N   UNK N   1      28.157  18.382   5.324  0.00  0.00    -0.350 N 
HETATM    9  C   UNK N   1      28.624  18.216   6.574  0.00  0.00     0.060 A 
ATOM     10  HN  UNK N   1      27.397  18.988   5.018  1.00  0.00     0.166 HD
HETATM   11  C   UNK N   1      28.167  18.826   7.736  0.00  0.00     0.032 A 
HETATM   12  C   UNK N   1      29.646  17.317   6.568  0.00  0.00     0.064 A 
HETATM   13  C   UNK N   1      28.807  18.485   8.943  0.00  0.00     0.002 A 
HETATM   14  C   UNK N   1      29.862  17.544   8.949  0.00  0.00     0.002 A 
HETATM   15  C   UNK N   1      30.287  16.943   7.749  0.00  0.00     0.032 A 
ENDBRANCH   4   6
BRANCH   3  16
HETATM   16  O   UNK N   1      30.447  17.030   2.590  0.00  0.00    -0.388 OA
HETATM   17  H   UNK N   1      30.386  17.777   1.974  0.00  0.00     0.210 HD
ENDBRANCH   3  16
BRANCH   2  18
HETATM   18  O   UNK N   1      33.527  15.999   2.608  0.00  0.00    -0.390 OA
HETATM   19  H   UNK N   1      33.261  15.150   2.223  0.00  0.00     0.210 HD
ENDBRANCH   2  18
BRANCH   1  20
HETATM   20  C   UNK N   1      33.319  17.676   5.707  0.00  0.00     0.215 C 
BRANCH  20  21
HETATM   21  O   UNK N   1      34.502  17.586   6.449  0.00  0.00    -0.294 OA
BRANCH  21  22
HETATM   22  P   UNK N   1      33.991  17.591   8.113  0.00  0.00     0.390 P 
HETATM   23  O   UNK N   1      34.791  16.265   8.014  0.00  0.00    -0.632 OA
BRANCH  22  24
HETATM   24  O   UNK N   1      35.133  17.733   9.411  0.00  0.00    -0.307 OA
HETATM   25  H   UNK N   1      34.918  18.030  10.309  0.00  0.00     0.222 HD
ENDBRANCH  22  24
BRANCH  22  26
HETATM   26  O   UNK N   1      35.070  18.934   7.868  0.00  0.00    -0.307 OA
HETATM   27  H   UNK N   1      35.392  19.682   8.392  0.00  0.00     0.222 HD
ENDBRANCH  22  26
ENDBRANCH  21  22
ENDBRANCH  20  21
ENDBRANCH   1  20
TORSDOF 8
ENDMDL
MODEL 5
REMARK VINA RESULT:      -6.3      5.987      8.376
REMARK  8 active torsions:
REMARK  status: ('A' for Active; 'I' for Inactive)
REMARK    1  A    between atoms: C_9  and  C_5 
REMARK    2  A    between atoms: O_21  and  C_5 
REMARK    3  A    between atoms: C_10  and  O_16 
REMARK    4  A    between atoms: C_11  and  O_17 
REMARK    5  A    between atoms: C_12  and  N_15 
REMARK    6  A    between atoms: P_23  and  O_18 
REMARK    7  A    between atoms: P_23  and  O_19 
REMARK    8  A    between atoms: P_23  and  O_21 
ROOT
HETATM    1  C   UNK N   1      36.446  12.372  10.424  0.00  0.00     0.180 C 
HETATM    2  C   UNK N   1      37.189  13.524  11.108  0.00  0.00     0.182 C 
HETATM    3  C   UNK N   1      37.114  14.646  10.105  0.00  0.00     0.198 C 
HETATM    4  C   UNK N   1      36.081  14.187   9.072  0.00  0.00     0.261 C 
HETATM    5  O   UNK N   1      36.010  12.778   9.138  0.00  0.00    -0.353 OA
ENDROOT
BRANCH   4   6
HETATM    6  N   UNK N   1      34.752  14.820   9.187  0.00  0.00    -0.311 N 
HETATM    7  C   UNK N   1      33.889  14.590  10.215  0.00  0.00     0.186 A 
HETATM    8  N   UNK N   1      32.766  15.346  10.109  0.00  0.00    -0.350 N 
HETATM    9  C   UNK N   1      32.948  16.070   8.991  0.00  0.00     0.060 A 
ATOM     10  HN  UNK N   1      31.964  15.361  10.738  1.00  0.00     0.166 HD
HETATM   11  C   UNK N   1      32.088  17.015   8.445  0.00  0.00     0.032 A 
HETATM   12  C   UNK N   1      34.151  15.760   8.433  0.00  0.00     0.064 A 
HETATM   13  C   UNK N   1      32.501  17.662   7.265  0.00  0.00     0.002 A 
HETATM   14  C   UNK N   1      33.753  17.356   6.684  0.00  0.00     0.002 A 
HETATM   15  C   UNK N   1      34.597  16.398   7.276  0.00  0.00     0.032 A 
ENDBRANCH   4   6
BRANCH   3  16
HETATM   16  O   UNK N   1      36.828  15.876  10.706  0.00  0.00    -0.388 OA
HETATM   17  H   UNK N   1      36.548  16.357  11.500  0.00  0.00     0.210 HD
ENDBRANCH   3  16
BRANCH   2  18
HETATM   18  O   UNK N   1      38.528  13.181  11.338  0.00  0.00    -0.390 OA
HETATM   19  H   UNK N   1      38.761  12.305  11.684  0.00  0.00     0.210 HD
ENDBRANCH   2  18
BRANCH   1  20
HETATM   20  C   UNK N   1      35.228  11.934  11.239  0.00  0.00     0.215 C 
BRANCH  20  21
HETATM   21  O   UNK N   1      35.172  12.554  12.492  0.00  0.00    -0.294 OA
BRANCH  21  22
HETATM   22  P   UNK N   1      34.836  11.267  13.616  0.00  0.00     0.390 P 
HETATM   23  O   UNK N   1      34.319  12.517  14.376  0.00  0.00    -0.632 OA
BRANCH  22  24
HETATM   24  O   UNK N   1      33.210  10.823  14.025  0.00  0.00    -0.307 OA
HETATM   25  H   UNK N   1      32.603  10.343  13.441  0.00  0.00     0.222 HD
ENDBRANCH  22  24
BRANCH  22  26
HETATM   26  O   UNK N   1      33.868  11.017  12.192  0.00  0.00    -0.307 OA
HETATM   27  H   UNK N   1      33.087  10.495  11.956  0.00  0.00     0.222 HD
ENDBRANCH  22  26
ENDBRANCH  21  22
ENDBRANCH  20  21
ENDBRANCH   1  20
TORSDOF 8
ENDMDL
MODEL 6
REMARK VINA RESULT:      -6.3      9.166     10.815
REMARK  8 active torsions:
REMARK  status: ('A' for Active; 'I' for Inactive)
REMARK    1  A    between atoms: C_9  and  C_5 
REMARK    2  A    between atoms: O_21  and  C_5 
REMARK    3  A    between atoms: C_10  and  O_16 
REMARK    4  A    between atoms: C_11  and  O_17 
REMARK    5  A    between atoms: C_12  and  N_15 
REMARK    6  A    between atoms: P_23  and  O_18 
REMARK    7  A    between atoms: P_23  and  O_19 
REMARK    8  A    between atoms: P_23  and  O_21 
ROOT
HETATM    1  C   UNK N   1      21.151  16.955   3.732  0.00  0.00     0.180 C 
HETATM    2  C   UNK N   1      19.743  16.446   3.407  0.00  0.00     0.182 C 
HETATM    3  C   UNK N   1      19.713  15.066   4.010  0.00  0.00     0.198 C 
HETATM    4  C   UNK N   1      20.956  14.993   4.900  0.00  0.00     0.261 C 
HETATM    5  O   UNK N   1      21.875  15.955   4.427  0.00  0.00    -0.353 OA
ENDROOT
BRANCH   4   6
HETATM    6  N   UNK N   1      20.702  15.127   6.349  0.00  0.00    -0.311 N 
HETATM    7  C   UNK N   1      20.021  16.167   6.906  0.00  0.00     0.186 A 
HETATM    8  N   UNK N   1      19.875  16.013   8.246  0.00  0.00    -0.350 N 
HETATM    9  C   UNK N   1      20.471  14.840   8.521  0.00  0.00     0.060 A 
ATOM     10  HN  UNK N   1      19.414  16.646   8.899  1.00  0.00     0.166 HD
HETATM   11  C   UNK N   1      20.585  14.217   9.757  0.00  0.00     0.032 A 
HETATM   12  C   UNK N   1      20.967  14.298   7.374  0.00  0.00     0.064 A 
HETATM   13  C   UNK N   1      21.245  12.975   9.800  0.00  0.00     0.002 A 
HETATM   14  C   UNK N   1      21.754  12.397   8.614  0.00  0.00     0.002 A 
HETATM   15  C   UNK N   1      21.609  13.059   7.380  0.00  0.00     0.032 A 
ENDBRANCH   4   6
BRANCH   3  16
HETATM   16  O   UNK N   1      18.509  14.802   4.670  0.00  0.00    -0.388 OA
HETATM   17  H   UNK N   1      17.713  14.252   4.740  0.00  0.00     0.210 HD
ENDBRANCH   3  16
BRANCH   2  18
HETATM   18  O   UNK N   1      19.555  16.364   2.021  0.00  0.00    -0.390 OA
HETATM   19  H   UNK N   1      20.308  16.445   1.415  0.00  0.00     0.210 HD
ENDBRANCH   2  18
BRANCH   1  20
HETATM   20  C   UNK N   1      21.102  18.216   4.597  0.00  0.00     0.215 C 
BRANCH  20  21
HETATM   21  O   UNK N   1      22.072  19.155   4.229  0.00  0.00    -0.294 OA
BRANCH  21  22
HETATM   22  P   UNK N   1      21.414  19.959   2.832  0.00  0.00     0.390 P 
HETATM   23  O   UNK N   1      20.480  20.449   3.970  0.00  0.00    -0.632 OA
BRANCH  22  24
HETATM   24  O   UNK N   1      21.479  21.684   2.665  0.00  0.00    -0.307 OA
HETATM   25  H   UNK N   1      20.931  22.203   2.056  0.00  0.00     0.222 HD
ENDBRANCH  22  24
BRANCH  22  26
HETATM   26  O   UNK N   1      23.022  20.564   3.105  0.00  0.00    -0.307 OA
HETATM   27  H   UNK N   1      23.910  20.379   2.763  0.00  0.00     0.222 HD
ENDBRANCH  22  26
ENDBRANCH  21  22
ENDBRANCH  20  21
ENDBRANCH   1  20
TORSDOF 8
ENDMDL
MODEL 7
REMARK VINA RESULT:      -6.2     10.292     12.504
REMARK  8 active torsions:
REMARK  status: ('A' for Active; 'I' for Inactive)
REMARK    1  A    between atoms: C_9  and  C_5 
REMARK    2  A    between atoms: O_21  and  C_5 
REMARK    3  A    between atoms: C_10  and  O_16 
REMARK    4  A    between atoms: C_11  and  O_17 
REMARK    5  A    between atoms: C_12  and  N_15 
REMARK    6  A    between atoms: P_23  and  O_18 
REMARK    7  A    between atoms: P_23  and  O_19 
REMARK    8  A    between atoms: P_23  and  O_21 
ROOT
HETATM    1  C   UNK N   1      36.124  11.563  12.656  0.00  0.00     0.180 C 
HETATM    2  C   UNK N   1      34.644  11.181  12.547  0.00  0.00     0.182 C 
HETATM    3  C   UNK N   1      34.382  10.399  13.808  0.00  0.00     0.198 C 
HETATM    4  C   UNK N   1      35.606  10.650  14.694  0.00  0.00     0.261 C 
HETATM    5  O   UNK N   1      36.672  11.029  13.848  0.00  0.00    -0.353 OA
ENDROOT
BRANCH   4   6
HETATM    6  N   UNK N   1      35.399  11.610  15.797  0.00  0.00    -0.311 N 
HETATM    7  C   UNK N   1      34.891  12.862  15.627  0.00  0.00     0.186 A 
HETATM    8  N   UNK N   1      34.746  13.512  16.809  0.00  0.00    -0.350 N 
HETATM    9  C   UNK N   1      35.165  12.631  17.735  0.00  0.00     0.060 A 
ATOM     10  HN  UNK N   1      34.396  14.457  16.962  1.00  0.00     0.166 HD
HETATM   11  C   UNK N   1      35.204  12.805  19.113  0.00  0.00     0.032 A 
HETATM   12  C   UNK N   1      35.554  11.477  17.127  0.00  0.00     0.064 A 
HETATM   13  C   UNK N   1      35.671  11.728  19.889  0.00  0.00     0.002 A 
HETATM   14  C   UNK N   1      36.068  10.521  19.269  0.00  0.00     0.002 A 
HETATM   15  C   UNK N   1      36.003  10.384  17.870  0.00  0.00     0.032 A 
ENDBRANCH   4   6
BRANCH   3  16
HETATM   16  O   UNK N   1      33.160  10.738  14.397  0.00  0.00    -0.388 OA
HETATM   17  H   UNK N   1      32.312  11.202  14.321  0.00  0.00     0.210 HD
ENDBRANCH   3  16
BRANCH   2  18
HETATM   18  O   UNK N   1      34.425  10.365  11.429  0.00  0.00    -0.390 OA
HETATM   19  H   UNK N   1      35.085  10.313  10.720  0.00  0.00     0.210 HD
ENDBRANCH   2  18
BRANCH   1  20
HETATM   20  C   UNK N   1      36.307  13.082  12.669  0.00  0.00     0.215 C 
BRANCH  20  21
HETATM   21  O   UNK N   1      37.124  13.531  11.626  0.00  0.00    -0.294 OA
BRANCH  21  22
HETATM   22  P   UNK N   1      36.189  14.757  10.818  0.00  0.00     0.390 P 
HETATM   23  O   UNK N   1      36.031  15.148  12.312  0.00  0.00    -0.632 OA
BRANCH  22  24
HETATM   24  O   UNK N   1      36.673  16.423  10.833  0.00  0.00    -0.307 OA
HETATM   25  H   UNK N   1      36.872  16.935  11.632  0.00  0.00     0.222 HD
ENDBRANCH  22  24
BRANCH  22  26
HETATM   26  O   UNK N   1      37.854  14.939  10.348  0.00  0.00    -0.307 OA
HETATM   27  H   UNK N   1      38.712  14.618  10.661  0.00  0.00     0.222 HD
ENDBRANCH  22  26
ENDBRANCH  21  22
ENDBRANCH  20  21
ENDBRANCH   1  20
TORSDOF 8
ENDMDL
MODEL 8
REMARK VINA RESULT:      -6.1      4.433      6.084
REMARK  8 active torsions:
REMARK  status: ('A' for Active; 'I' for Inactive)
REMARK    1  A    between atoms: C_9  and  C_5 
REMARK    2  A    between atoms: O_21  and  C_5 
REMARK    3  A    between atoms: C_10  and  O_16 
REMARK    4  A    between atoms: C_11  and  O_17 
REMARK    5  A    between atoms: C_12  and  N_15 
REMARK    6  A    between atoms: P_23  and  O_18 
REMARK    7  A    between atoms: P_23  and  O_19 
REMARK    8  A    between atoms: P_23  and  O_21 
ROOT
HETATM    1  C   UNK N   1      35.239  15.512   9.473  0.00  0.00     0.180 C 
HETATM    2  C   UNK N   1      34.804  16.964   9.695  0.00  0.00     0.182 C 
HETATM    3  C   UNK N   1      34.619  17.501   8.300  0.00  0.00     0.198 C 
HETATM    4  C   UNK N   1      34.643  16.268   7.392  0.00  0.00     0.261 C 
HETATM    5  O   UNK N   1      35.327  15.244   8.085  0.00  0.00    -0.353 OA
ENDROOT
BRANCH   4   6
HETATM    6  N   UNK N   1      33.324  15.823   6.899  0.00  0.00    -0.311 N 
HETATM    7  C   UNK N   1      32.563  14.877   7.516  0.00  0.00     0.186 A 
HETATM    8  N   UNK N   1      31.371  14.703   6.891  0.00  0.00    -0.350 N 
HETATM    9  C   UNK N   1      31.394  15.575   5.867  0.00  0.00     0.060 A 
ATOM     10  HN  UNK N   1      30.624  14.056   7.142  1.00  0.00     0.166 HD
HETATM   11  C   UNK N   1      30.397  15.801   4.925  0.00  0.00     0.032 A 
HETATM   12  C   UNK N   1      32.571  16.259   5.872  0.00  0.00     0.064 A 
HETATM   13  C   UNK N   1      30.641  16.782   3.946  0.00  0.00     0.002 A 
HETATM   14  C   UNK N   1      31.855  17.506   3.949  0.00  0.00     0.002 A 
HETATM   15  C   UNK N   1      32.834  17.252   4.927  0.00  0.00     0.032 A 
ENDBRANCH   4   6
BRANCH   3  16
HETATM   16  O   UNK N   1      33.467  18.286   8.182  0.00  0.00    -0.388 OA
HETATM   17  H   UNK N   1      32.993  18.982   7.701  0.00  0.00     0.210 HD
ENDBRANCH   3  16
BRANCH   2  18
HETATM   18  O   UNK N   1      35.808  17.687  10.353  0.00  0.00    -0.390 OA
HETATM   19  H   UNK N   1      35.758  17.843  11.309  0.00  0.00     0.210 HD
ENDBRANCH   2  18
BRANCH   1  20
HETATM   20  C   UNK N   1      34.247  14.531  10.100  0.00  0.00     0.215 C 
BRANCH  20  21
HETATM   21  O   UNK N   1      34.213  14.625  11.496  0.00  0.00    -0.294 OA
BRANCH  21  22
HETATM   22  P   UNK N   1      35.712  13.917  12.030  0.00  0.00     0.390 P 
HETATM   23  O   UNK N   1      35.808  15.363  12.586  0.00  0.00    -0.632 OA
BRANCH  22  24
HETATM   24  O   UNK N   1      36.043  13.660  13.713  0.00  0.00    -0.307 OA
HETATM   25  H   UNK N   1      36.912  13.768  14.129  0.00  0.00     0.222 HD
ENDBRANCH  22  24
BRANCH  22  26
HETATM   26  O   UNK N   1      34.402  13.084  12.816  0.00  0.00    -0.307 OA
HETATM   27  H   UNK N   1      33.908  12.262  12.678  0.00  0.00     0.222 HD
ENDBRANCH  22  26
ENDBRANCH  21  22
ENDBRANCH  20  21
ENDBRANCH   1  20
TORSDOF 8
ENDMDL
MODEL 9
REMARK VINA RESULT:      -6.0      5.060      6.402
REMARK  8 active torsions:
REMARK  status: ('A' for Active; 'I' for Inactive)
REMARK    1  A    between atoms: C_9  and  C_5 
REMARK    2  A    between atoms: O_21  and  C_5 
REMARK    3  A    between atoms: C_10  and  O_16 
REMARK    4  A    between atoms: C_11  and  O_17 
REMARK    5  A    between atoms: C_12  and  N_15 
REMARK    6  A    between atoms: P_23  and  O_18 
REMARK    7  A    between atoms: P_23  and  O_19 
REMARK    8  A    between atoms: P_23  and  O_21 
ROOT
HETATM    1  C   UNK N   1      35.078  15.614   9.811  0.00  0.00     0.180 C 
HETATM    2  C   UNK N   1      33.740  14.881   9.942  0.00  0.00     0.182 C 
HETATM    3  C   UNK N   1      32.826  15.632   9.010  0.00  0.00     0.198 C 
HETATM    4  C   UNK N   1      33.751  16.525   8.179  0.00  0.00     0.261 C 
HETATM    5  O   UNK N   1      34.944  16.703   8.915  0.00  0.00    -0.353 OA
ENDROOT
BRANCH   4   6
HETATM    6  N   UNK N   1      34.009  16.055   6.802  0.00  0.00    -0.311 N 
HETATM    7  C   UNK N   1      34.869  15.046   6.494  0.00  0.00     0.186 A 
HETATM    8  N   UNK N   1      34.871  14.773   5.165  0.00  0.00    -0.350 N 
HETATM    9  C   UNK N   1      33.978  15.632   4.641  0.00  0.00     0.060 A 
ATOM     10  HN  UNK N   1      35.425  14.073   4.673  1.00  0.00     0.166 HD
HETATM   11  C   UNK N   1      33.598  15.751   3.310  0.00  0.00     0.032 A 
HETATM   12  C   UNK N   1      33.449  16.404   5.629  0.00  0.00     0.064 A 
HETATM   13  C   UNK N   1      32.626  16.719   2.996  0.00  0.00     0.002 A 
HETATM   14  C   UNK N   1      32.063  17.520   4.016  0.00  0.00     0.002 A 
HETATM   15  C   UNK N   1      32.470  17.360   5.354  0.00  0.00     0.032 A 
ENDBRANCH   4   6
BRANCH   3  16
HETATM   16  O   UNK N   1      32.015  14.776   8.258  0.00  0.00    -0.388 OA
HETATM   17  H   UNK N   1      31.447  13.990   8.237  0.00  0.00     0.210 HD
ENDBRANCH   3  16
BRANCH   2  18
HETATM   18  O   UNK N   1      33.255  14.966  11.254  0.00  0.00    -0.390 OA
HETATM   19  H   UNK N   1      33.161  14.169  11.798  0.00  0.00     0.210 HD
ENDBRANCH   2  18
BRANCH   1  20
HETATM   20  C   UNK N   1      36.175  14.684   9.291  0.00  0.00     0.215 C 
BRANCH  20  21
HETATM   21  O   UNK N   1      37.254  14.582  10.177  0.00  0.00    -0.294 OA
BRANCH  21  22
HETATM   22  P   UNK N   1      37.127  12.984  10.858  0.00  0.00     0.390 P 
HETATM   23  O   UNK N   1      38.568  12.988  10.282  0.00  0.00    -0.632 OA
BRANCH  22  24
HETATM   24  O   UNK N   1      38.086  12.501  12.220  0.00  0.00    -0.307 OA
HETATM   25  H   UNK N   1      38.569  11.663  12.288  0.00  0.00     0.222 HD
ENDBRANCH  22  24
BRANCH  22  26
HETATM   26  O   UNK N   1      37.021  14.141  12.153  0.00  0.00    -0.307 OA
HETATM   27  H   UNK N   1      36.716  15.055  12.256  0.00  0.00     0.222 HD
ENDBRANCH  22  26
ENDBRANCH  21  22
ENDBRANCH  20  21
ENDBRANCH   1  20
TORSDOF 8
ENDMDL
