MODEL 1
REMARK VINA RESULT:      -6.7      0.000      0.000
REMARK  4 active torsions:
REMARK  status: ('A' for Active; 'I' for Inactive)
REMARK    1  A    between atoms: C_5  and  C_6 
REMARK    2  A    between atoms: C_8  and  C_9 
REMARK    3  A    between atoms: C_9  and  O_10 
REMARK    4  A    between atoms: C_19  and  C_20 
ROOT
HETATM    1  C   UNK N   1      37.247  15.261  15.800  0.00  0.00     0.178 C 
HETATM    2  N   UNK N   1      36.557  14.507  14.766  0.00  0.00    -0.291 N 
HETATM    3  N   UNK N   1      36.480  14.922  13.516  0.00  0.00    -0.296 N 
ATOM      4  HN  UNK N   1      36.869  15.794  13.156  1.00  0.00     0.187 HD
HETATM    5  C   UNK N   1      35.802  14.006  12.787  0.00  0.00     0.081 A 
HETATM    6  C   UNK N   1      35.412  12.966  13.652  0.00  0.00     0.073 A 
HETATM    7 Br   UNK N   1      34.402  11.355  13.379  0.00  0.00    -0.046 Br
HETATM    8  C   UNK N   1      35.928  13.321  14.889  0.00  0.00     0.154 A 
ENDROOT
BRANCH   5   9
HETATM    9  C   UNK N   1      35.642  14.206  11.310  0.00  0.00     0.033 A 
HETATM   10  C   UNK N   1      35.103  15.437  10.902  0.00  0.00     0.037 A 
HETATM   11  C   UNK N   1      34.967  15.792   9.553  0.00  0.00     0.060 A 
HETATM   12  C   UNK N   1      35.401  14.875   8.568  0.00  0.00     0.053 A 
HETATM   13 Cl   UNK N   1      35.327  15.204   6.842  0.00  0.00    -0.083 Cl
HETATM   14  C   UNK N   1      35.930  13.645   8.960  0.00  0.00     0.068 A 
HETATM   15  C   UNK N   1      36.051  13.300  10.307  0.00  0.00     0.130 A 
HETATM   16  F   UNK N   1      36.623  12.117  10.589  0.00  0.00    -0.205 F 
BRANCH  11  17
HETATM   17  C   UNK N   1      34.387  17.126   9.236  0.00  0.00     0.177 C 
HETATM   18  O   UNK N   1      35.126  18.087   9.082  0.00  0.00    -0.646 OA
BRANCH  17  19
HETATM   19  O   UNK N   1      33.059  17.301   9.109  0.00  0.00    -0.773 OA
HETATM   20  H   UNK N   1      32.506  17.262   9.864  0.00  0.00     0.167 HD
ENDBRANCH  17  19
ENDBRANCH  11  17
ENDBRANCH   5   9
BRANCH   8  21
HETATM   21  C   UNK N   1      35.822  12.501  16.152  0.00  0.00     0.435 C 
HETATM   22  F   UNK N   1      36.820  11.545  16.173  0.00  0.00    -0.165 F 
HETATM   23  F   UNK N   1      34.600  11.866  16.259  0.00  0.00    -0.165 F 
HETATM   24  F   UNK N   1      35.972  13.336  17.245  0.00  0.00    -0.165 F 
ENDBRANCH   8  21
TORSDOF 4
ENDMDL
MODEL 2
REMARK VINA RESULT:      -6.6      2.382      3.099
REMARK  4 active torsions:
REMARK  status: ('A' for Active; 'I' for Inactive)
REMARK    1  A    between atoms: C_5  and  C_6 
REMARK    2  A    between atoms: C_8  and  C_9 
REMARK    3  A    between atoms: C_9  and  O_10 
REMARK    4  A    between atoms: C_19  and  C_20 
ROOT
HETATM    1  C   UNK N   1      35.233  13.826  18.420  0.00  0.00     0.178 C 
HETATM    2  N   UNK N   1      35.431  12.983  17.252  0.00  0.00    -0.291 N 
HETATM    3  N   UNK N   1      35.627  13.477  16.044  0.00  0.00    -0.296 N 
ATOM      4  HN  UNK N   1      35.644  14.468  15.805  1.00  0.00     0.187 HD
HETATM    5  C   UNK N   1      35.802  12.456  15.173  0.00  0.00     0.081 A 
HETATM    6  C   UNK N   1      35.680  11.250  15.888  0.00  0.00     0.073 A 
HETATM    7 Br   UNK N   1      35.762   9.406  15.354  0.00  0.00    -0.046 Br
HETATM    8  C   UNK N   1      35.463  11.636  17.202  0.00  0.00     0.154 A 
ENDROOT
BRANCH   5   9
HETATM    9  C   UNK N   1      36.119  12.754  13.739  0.00  0.00     0.033 A 
HETATM   10  C   UNK N   1      35.337  13.742  13.118  0.00  0.00     0.037 A 
HETATM   11  C   UNK N   1      35.571  14.176  11.807  0.00  0.00     0.060 A 
HETATM   12  C   UNK N   1      36.643  13.602  11.087  0.00  0.00     0.053 A 
HETATM   13 Cl   UNK N   1      37.075  14.079   9.450  0.00  0.00    -0.083 Cl
HETATM   14  C   UNK N   1      37.423  12.614  11.689  0.00  0.00     0.068 A 
HETATM   15  C   UNK N   1      37.174  12.183  12.993  0.00  0.00     0.130 A 
HETATM   16  F   UNK N   1      38.011  11.265  13.507  0.00  0.00    -0.205 F 
BRANCH  11  17
HETATM   17  C   UNK N   1      34.682  15.234  11.252  0.00  0.00     0.177 C 
HETATM   18  O   UNK N   1      35.149  16.322  10.950  0.00  0.00    -0.646 OA
BRANCH  17  19
HETATM   19  O   UNK N   1      33.366  15.019  11.069  0.00  0.00    -0.773 OA
HETATM   20  H   UNK N   1      33.076  14.379  10.450  0.00  0.00     0.167 HD
ENDBRANCH  17  19
ENDBRANCH  11  17
ENDBRANCH   5   9
BRANCH   8  21
HETATM   21  C   UNK N   1      35.314  10.702  18.378  0.00  0.00     0.435 C 
HETATM   22  F   UNK N   1      34.350   9.751  18.100  0.00  0.00    -0.165 F 
HETATM   23  F   UNK N   1      34.953  11.371  19.531  0.00  0.00    -0.165 F 
HETATM   24  F   UNK N   1      36.522  10.068  18.606  0.00  0.00    -0.165 F 
ENDBRANCH   8  21
TORSDOF 4
ENDMDL
MODEL 3
REMARK VINA RESULT:      -6.5      5.126      6.872
REMARK  4 active torsions:
REMARK  status: ('A' for Active; 'I' for Inactive)
REMARK    1  A    between atoms: C_5  and  C_6 
REMARK    2  A    between atoms: C_8  and  C_9 
REMARK    3  A    between atoms: C_9  and  O_10 
REMARK    4  A    between atoms: C_19  and  C_20 
ROOT
HETATM    1  C   UNK N   1      35.297  16.768  10.792  0.00  0.00     0.178 C 
HETATM    2  N   UNK N   1      34.498  16.272   9.684  0.00  0.00    -0.291 N 
HETATM    3  N   UNK N   1      33.349  16.820   9.334  0.00  0.00    -0.296 N 
ATOM      4  HN  UNK N   1      32.907  17.613   9.798  1.00  0.00     0.187 HD
HETATM    5  C   UNK N   1      32.853  16.161   8.262  0.00  0.00     0.081 A 
HETATM    6  C   UNK N   1      33.745  15.119   7.944  0.00  0.00     0.073 A 
HETATM    7 Br   UNK N   1      33.716  13.747   6.599  0.00  0.00    -0.046 Br
HETATM    8  C   UNK N   1      34.777  15.241   8.861  0.00  0.00     0.154 A 
ENDROOT
BRANCH   5   9
HETATM    9  C   UNK N   1      31.587  16.640   7.621  0.00  0.00     0.033 A 
HETATM   10  C   UNK N   1      30.516  16.920   8.485  0.00  0.00     0.037 A 
HETATM   11  C   UNK N   1      29.299  17.446   8.034  0.00  0.00     0.060 A 
HETATM   12  C   UNK N   1      29.150  17.712   6.653  0.00  0.00     0.053 A 
HETATM   13 Cl   UNK N   1      27.693  18.408   5.955  0.00  0.00    -0.083 Cl
HETATM   14  C   UNK N   1      30.202  17.431   5.782  0.00  0.00     0.068 A 
HETATM   15  C   UNK N   1      31.407  16.898   6.243  0.00  0.00     0.130 A 
HETATM   16  F   UNK N   1      32.382  16.710   5.338  0.00  0.00    -0.205 F 
BRANCH  11  17
HETATM   17  C   UNK N   1      28.234  17.710   9.041  0.00  0.00     0.177 C 
HETATM   18  O   UNK N   1      27.929  16.840   9.843  0.00  0.00    -0.646 OA
BRANCH  17  19
HETATM   19  O   UNK N   1      27.595  18.894   9.093  0.00  0.00    -0.773 OA
HETATM   20  H   UNK N   1      28.053  19.683   8.883  0.00  0.00     0.167 HD
ENDBRANCH  17  19
ENDBRANCH  11  17
ENDBRANCH   5   9
BRANCH   8  21
HETATM   21  C   UNK N   1      36.015  14.379   8.909  0.00  0.00     0.435 C 
HETATM   22  F   UNK N   1      36.917  14.907   9.813  0.00  0.00    -0.165 F 
HETATM   23  F   UNK N   1      36.631  14.284   7.676  0.00  0.00    -0.165 F 
HETATM   24  F   UNK N   1      35.661  13.105   9.315  0.00  0.00    -0.165 F 
ENDBRANCH   8  21
TORSDOF 4
ENDMDL
MODEL 4
REMARK VINA RESULT:      -6.4      9.412     11.933
REMARK  4 active torsions:
REMARK  status: ('A' for Active; 'I' for Inactive)
REMARK    1  A    between atoms: C_5  and  C_6 
REMARK    2  A    between atoms: C_8  and  C_9 
REMARK    3  A    between atoms: C_9  and  O_10 
REMARK    4  A    between atoms: C_19  and  C_20 
ROOT
HETATM    1  C   UNK N   1      26.134  16.775   3.043  0.00  0.00     0.178 C 
HETATM    2  N   UNK N   1      26.867  17.530   4.046  0.00  0.00    -0.291 N 
HETATM    3  N   UNK N   1      27.816  16.992   4.789  0.00  0.00    -0.296 N 
ATOM      4  HN  UNK N   1      28.116  16.018   4.751  1.00  0.00     0.187 HD
HETATM    5  C   UNK N   1      28.327  17.940   5.608  0.00  0.00     0.081 A 
HETATM    6  C   UNK N   1      27.628  19.139   5.372  0.00  0.00     0.073 A 
HETATM    7 Br   UNK N   1      27.744  20.889   6.156  0.00  0.00    -0.046 Br
HETATM    8  C   UNK N   1      26.727  18.833   4.364  0.00  0.00     0.154 A 
ENDROOT
BRANCH   5   9
HETATM    9  C   UNK N   1      29.478  17.600   6.504  0.00  0.00     0.033 A 
HETATM   10  C   UNK N   1      30.719  17.399   5.878  0.00  0.00     0.037 A 
HETATM   11  C   UNK N   1      31.896  17.151   6.596  0.00  0.00     0.060 A 
HETATM   12  C   UNK N   1      31.829  17.110   8.008  0.00  0.00     0.053 A 
HETATM   13 Cl   UNK N   1      33.231  16.846   9.036  0.00  0.00    -0.083 Cl
HETATM   14  C   UNK N   1      30.601  17.298   8.642  0.00  0.00     0.068 A 
HETATM   15  C   UNK N   1      29.434  17.536   7.915  0.00  0.00     0.130 A 
HETATM   16  F   UNK N   1      28.308  17.759   8.615  0.00  0.00    -0.205 F 
BRANCH  11  17
HETATM   17  C   UNK N   1      33.157  16.959   5.828  0.00  0.00     0.177 C 
HETATM   18  O   UNK N   1      33.281  15.987   5.099  0.00  0.00    -0.646 OA
BRANCH  17  19
HETATM   19  O   UNK N   1      34.172  17.839   5.915  0.00  0.00    -0.773 OA
HETATM   20  H   UNK N   1      34.846  17.845   5.265  0.00  0.00     0.167 HD
ENDBRANCH  17  19
ENDBRANCH  11  17
ENDBRANCH   5   9
BRANCH   8  21
HETATM   21  C   UNK N   1      25.770  19.805   3.717  0.00  0.00     0.435 C 
HETATM   22  F   UNK N   1      24.937  20.349   4.677  0.00  0.00    -0.165 F 
HETATM   23  F   UNK N   1      24.991  19.201   2.748  0.00  0.00    -0.165 F 
HETATM   24  F   UNK N   1      26.495  20.820   3.119  0.00  0.00    -0.165 F 
ENDBRANCH   8  21
TORSDOF 4
ENDMDL
MODEL 5
REMARK VINA RESULT:      -6.4     10.598     12.694
REMARK  4 active torsions:
REMARK  status: ('A' for Active; 'I' for Inactive)
REMARK    1  A    between atoms: C_5  and  C_6 
REMARK    2  A    between atoms: C_8  and  C_9 
REMARK    3  A    between atoms: C_9  and  O_10 
REMARK    4  A    between atoms: C_19  and  C_20 
ROOT
HETATM    1  C   UNK N   1      29.307  18.463   8.250  0.00  0.00     0.178 C 
HETATM    2  N   UNK N   1      28.644  18.068   7.018  0.00  0.00    -0.291 N 
HETATM    3  N   UNK N   1      27.355  18.262   6.810  0.00  0.00    -0.296 N 
ATOM      4  HN  UNK N   1      26.705  18.682   7.475  1.00  0.00     0.187 HD
HETATM    5  C   UNK N   1      27.034  17.816   5.574  0.00  0.00     0.081 A 
HETATM    6  C   UNK N   1      28.200  17.286   4.989  0.00  0.00     0.073 A 
HETATM    7 Br   UNK N   1      28.539  16.443   3.296  0.00  0.00    -0.046 Br
HETATM    8  C   UNK N   1      29.194  17.484   5.934  0.00  0.00     0.154 A 
ENDROOT
BRANCH   5   9
HETATM    9  C   UNK N   1      25.637  17.993   5.063  0.00  0.00     0.033 A 
HETATM   10  C   UNK N   1      25.402  19.125   4.267  0.00  0.00     0.037 A 
HETATM   11  C   UNK N   1      24.165  19.378   3.660  0.00  0.00     0.060 A 
HETATM   12  C   UNK N   1      23.117  18.449   3.853  0.00  0.00     0.053 A 
HETATM   13 Cl   UNK N   1      21.527  18.619   3.120  0.00  0.00    -0.083 Cl
HETATM   14  C   UNK N   1      23.334  17.324   4.649  0.00  0.00     0.068 A 
HETATM   15  C   UNK N   1      24.568  17.088   5.255  0.00  0.00     0.130 A 
HETATM   16  F   UNK N   1      24.700  15.951   5.959  0.00  0.00    -0.205 F 
BRANCH  11  17
HETATM   17  C   UNK N   1      24.030  20.608   2.832  0.00  0.00     0.177 C 
HETATM   18  O   UNK N   1      24.865  20.856   1.975  0.00  0.00    -0.646 OA
BRANCH  17  19
HETATM   19  O   UNK N   1      23.002  21.460   3.002  0.00  0.00    -0.773 OA
HETATM   20  H   UNK N   1      22.687  21.649   3.863  0.00  0.00     0.167 HD
ENDBRANCH  17  19
ENDBRANCH  11  17
ENDBRANCH   5   9
BRANCH   8  21
HETATM   21  C   UNK N   1      30.651  17.128   5.764  0.00  0.00     0.435 C 
HETATM   22  F   UNK N   1      30.779  15.765   5.574  0.00  0.00    -0.165 F 
HETATM   23  F   UNK N   1      31.407  17.493   6.861  0.00  0.00    -0.165 F 
HETATM   24  F   UNK N   1      31.150  17.788   4.656  0.00  0.00    -0.165 F 
ENDBRANCH   8  21
TORSDOF 4
ENDMDL
MODEL 6
REMARK VINA RESULT:      -6.3     19.688     21.963
REMARK  4 active torsions:
REMARK  status: ('A' for Active; 'I' for Inactive)
REMARK    1  A    between atoms: C_5  and  C_6 
REMARK    2  A    between atoms: C_8  and  C_9 
REMARK    3  A    between atoms: C_9  and  O_10 
REMARK    4  A    between atoms: C_19  and  C_20 
ROOT
HETATM    1  C   UNK N   1      28.883  28.924  -5.191  0.00  0.00     0.178 C 
HETATM    2  N   UNK N   1      28.434  27.542  -5.193  0.00  0.00    -0.291 N 
HETATM    3  N   UNK N   1      29.270  26.523  -5.267  0.00  0.00    -0.296 N 
ATOM      4  HN  UNK N   1      30.284  26.594  -5.345  1.00  0.00     0.187 HD
HETATM    5  C   UNK N   1      28.565  25.369  -5.224  0.00  0.00     0.081 A 
HETATM    6  C   UNK N   1      27.199  25.699  -5.143  0.00  0.00     0.073 A 
HETATM    7 Br   UNK N   1      25.603  24.630  -5.084  0.00  0.00    -0.046 Br
HETATM    8  C   UNK N   1      27.169  27.084  -5.108  0.00  0.00     0.154 A 
ENDROOT
BRANCH   5   9
HETATM    9  C   UNK N   1      29.291  24.059  -5.216  0.00  0.00     0.033 A 
HETATM   10  C   UNK N   1      29.931  23.707  -4.016  0.00  0.00     0.037 A 
HETATM   11  C   UNK N   1      30.583  22.480  -3.840  0.00  0.00     0.060 A 
HETATM   12  C   UNK N   1      30.587  21.558  -4.912  0.00  0.00     0.053 A 
HETATM   13 Cl   UNK N   1      31.332  19.967  -4.817  0.00  0.00    -0.083 Cl
HETATM   14  C   UNK N   1      29.962  21.898  -6.112  0.00  0.00     0.068 A 
HETATM   15  C   UNK N   1      29.324  23.127  -6.278  0.00  0.00     0.130 A 
HETATM   16  F   UNK N   1      28.704  23.345  -7.451  0.00  0.00    -0.205 F 
BRANCH  11  17
HETATM   17  C   UNK N   1      31.223  22.210  -2.522  0.00  0.00     0.177 C 
HETATM   18  O   UNK N   1      30.780  22.738  -1.514  0.00  0.00    -0.646 OA
BRANCH  17  19
HETATM   19  O   UNK N   1      32.285  21.390  -2.413  0.00  0.00    -0.773 OA
HETATM   20  H   UNK N   1      32.825  21.219  -3.159  0.00  0.00     0.167 HD
ENDBRANCH  17  19
ENDBRANCH  11  17
ENDBRANCH   5   9
BRANCH   8  21
HETATM   21  C   UNK N   1      25.927  27.932  -4.974  0.00  0.00     0.435 C 
HETATM   22  F   UNK N   1      25.052  27.646  -6.005  0.00  0.00    -0.165 F 
HETATM   23  F   UNK N   1      26.215  29.283  -5.003  0.00  0.00    -0.165 F 
HETATM   24  F   UNK N   1      25.315  27.646  -3.767  0.00  0.00    -0.165 F 
ENDBRANCH   8  21
TORSDOF 4
ENDMDL
MODEL 7
REMARK VINA RESULT:      -6.3     10.827     12.953
REMARK  4 active torsions:
REMARK  status: ('A' for Active; 'I' for Inactive)
REMARK    1  A    between atoms: C_5  and  C_6 
REMARK    2  A    between atoms: C_8  and  C_9 
REMARK    3  A    between atoms: C_9  and  O_10 
REMARK    4  A    between atoms: C_19  and  C_20 
ROOT
HETATM    1  C   UNK N   1      28.750  18.677   8.495  0.00  0.00     0.178 C 
HETATM    2  N   UNK N   1      28.304  18.413   7.137  0.00  0.00    -0.291 N 
HETATM    3  N   UNK N   1      27.171  18.889   6.655  0.00  0.00    -0.296 N 
ATOM      4  HN  UNK N   1      26.502  19.459   7.172  1.00  0.00     0.187 HD
HETATM    5  C   UNK N   1      27.040  18.497   5.367  0.00  0.00     0.081 A 
HETATM    6  C   UNK N   1      28.157  17.706   5.039  0.00  0.00     0.073 A 
HETATM    7 Br   UNK N   1      28.665  16.770   3.439  0.00  0.00    -0.046 Br
HETATM    8  C   UNK N   1      28.936  17.697   6.186  0.00  0.00     0.154 A 
ENDROOT
BRANCH   5   9
HETATM    9  C   UNK N   1      25.867  18.973   4.565  0.00  0.00     0.033 A 
HETATM   10  C   UNK N   1      24.619  18.422   4.898  0.00  0.00     0.037 A 
HETATM   11  C   UNK N   1      23.427  18.829   4.285  0.00  0.00     0.060 A 
HETATM   12  C   UNK N   1      23.486  19.841   3.299  0.00  0.00     0.053 A 
HETATM   13 Cl   UNK N   1      22.066  20.475   2.477  0.00  0.00    -0.083 Cl
HETATM   14  C   UNK N   1      24.720  20.391   2.953  0.00  0.00     0.068 A 
HETATM   15  C   UNK N   1      25.902  19.971   3.565  0.00  0.00     0.130 A 
HETATM   16  F   UNK N   1      27.036  20.595   3.205  0.00  0.00    -0.205 F 
BRANCH  11  17
HETATM   17  C   UNK N   1      22.159  18.180   4.720  0.00  0.00     0.177 C 
HETATM   18  O   UNK N   1      21.732  18.379   5.848  0.00  0.00    -0.646 OA
BRANCH  17  19
HETATM   19  O   UNK N   1      21.464  17.375   3.896  0.00  0.00    -0.773 OA
HETATM   20  H   UNK N   1      21.469  16.448   4.030  0.00  0.00     0.167 HD
ENDBRANCH  17  19
ENDBRANCH  11  17
ENDBRANCH   5   9
BRANCH   8  21
HETATM   21  C   UNK N   1      30.276  17.017   6.331  0.00  0.00     0.435 C 
HETATM   22  F   UNK N   1      30.129  15.653   6.161  0.00  0.00    -0.165 F 
HETATM   23  F   UNK N   1      30.844  17.248   7.569  0.00  0.00    -0.165 F 
HETATM   24  F   UNK N   1      31.136  17.505   5.364  0.00  0.00    -0.165 F 
ENDBRANCH   8  21
TORSDOF 4
ENDMDL
MODEL 8
REMARK VINA RESULT:      -6.2      7.746     10.036
REMARK  4 active torsions:
REMARK  status: ('A' for Active; 'I' for Inactive)
REMARK    1  A    between atoms: C_5  and  C_6 
REMARK    2  A    between atoms: C_8  and  C_9 
REMARK    3  A    between atoms: C_9  and  O_10 
REMARK    4  A    between atoms: C_19  and  C_20 
ROOT
HETATM    1  C   UNK N   1      31.904  15.899   8.935  0.00  0.00     0.178 C 
HETATM    2  N   UNK N   1      31.540  16.442   7.637  0.00  0.00    -0.291 N 
HETATM    3  N   UNK N   1      30.317  16.853   7.356  0.00  0.00    -0.296 N 
ATOM      4  HN  UNK N   1      29.521  16.821   7.992  1.00  0.00     0.187 HD
HETATM    5  C   UNK N   1      30.290  17.325   6.088  0.00  0.00     0.081 A 
HETATM    6  C   UNK N   1      31.578  17.171   5.541  0.00  0.00     0.073 A 
HETATM    7 Br   UNK N   1      32.312  17.562   3.809  0.00  0.00    -0.046 Br
HETATM    8  C   UNK N   1      32.336  16.624   6.565  0.00  0.00     0.154 A 
ENDROOT
BRANCH   5   9
HETATM    9  C   UNK N   1      29.028  17.925   5.550  0.00  0.00     0.033 A 
HETATM   10  C   UNK N   1      28.476  18.985   6.288  0.00  0.00     0.037 A 
HETATM   11  C   UNK N   1      27.341  19.690   5.864  0.00  0.00     0.060 A 
HETATM   12  C   UNK N   1      26.738  19.323   4.640  0.00  0.00     0.053 A 
HETATM   13 Cl   UNK N   1      25.335  20.145   3.969  0.00  0.00    -0.083 Cl
HETATM   14  C   UNK N   1      27.271  18.266   3.901  0.00  0.00     0.068 A 
HETATM   15  C   UNK N   1      28.395  17.566   4.338  0.00  0.00     0.130 A 
HETATM   16  F   UNK N   1      28.869  16.599   3.534  0.00  0.00    -0.205 F 
BRANCH  11  17
HETATM   17  C   UNK N   1      26.846  20.800   6.725  0.00  0.00     0.177 C 
HETATM   18  O   UNK N   1      26.919  21.953   6.328  0.00  0.00    -0.646 OA
BRANCH  17  19
HETATM   19  O   UNK N   1      26.312  20.563   7.937  0.00  0.00    -0.773 OA
HETATM   20  H   UNK N   1      26.869  20.460   8.683  0.00  0.00     0.167 HD
ENDBRANCH  17  19
ENDBRANCH  11  17
ENDBRANCH   5   9
BRANCH   8  21
HETATM   21  C   UNK N   1      33.812  16.311   6.494  0.00  0.00     0.435 C 
HETATM   22  F   UNK N   1      34.542  17.411   6.903  0.00  0.00    -0.165 F 
HETATM   23  F   UNK N   1      34.209  15.968   5.216  0.00  0.00    -0.165 F 
HETATM   24  F   UNK N   1      34.087  15.246   7.333  0.00  0.00    -0.165 F 
ENDBRANCH   8  21
TORSDOF 4
ENDMDL
MODEL 9
REMARK VINA RESULT:      -6.1     19.584     21.930
REMARK  4 active torsions:
REMARK  status: ('A' for Active; 'I' for Inactive)
REMARK    1  A    between atoms: C_5  and  C_6 
REMARK    2  A    between atoms: C_8  and  C_9 
REMARK    3  A    between atoms: C_9  and  O_10 
REMARK    4  A    between atoms: C_19  and  C_20 
ROOT
HETATM    1  C   UNK N   1      26.596  25.972  -8.439  0.00  0.00     0.178 C 
HETATM    2  N   UNK N   1      27.007  25.301  -7.217  0.00  0.00    -0.291 N 
HETATM    3  N   UNK N   1      27.869  24.302  -7.210  0.00  0.00    -0.296 N 
ATOM      4  HN  UNK N   1      28.312  23.897  -8.035  1.00  0.00     0.187 HD
HETATM    5  C   UNK N   1      28.072  23.901  -5.934  0.00  0.00     0.081 A 
HETATM    6  C   UNK N   1      27.259  24.690  -5.098  0.00  0.00     0.073 A 
HETATM    7 Br   UNK N   1      26.965  24.698  -3.200  0.00  0.00    -0.046 Br
HETATM    8  C   UNK N   1      26.618  25.572  -5.955  0.00  0.00     0.154 A 
ENDROOT
BRANCH   5   9
HETATM    9  C   UNK N   1      29.073  22.823  -5.647  0.00  0.00     0.033 A 
HETATM   10  C   UNK N   1      29.748  22.910  -4.419  0.00  0.00     0.037 A 
HETATM   11  C   UNK N   1      30.654  21.933  -3.986  0.00  0.00     0.060 A 
HETATM   12  C   UNK N   1      30.888  20.813  -4.817  0.00  0.00     0.053 A 
HETATM   13 Cl   UNK N   1      31.967  19.495  -4.382  0.00  0.00    -0.083 Cl
HETATM   14  C   UNK N   1      30.230  20.719  -6.043  0.00  0.00     0.068 A 
HETATM   15  C   UNK N   1      29.336  21.704  -6.468  0.00  0.00     0.130 A 
HETATM   16  F   UNK N   1      28.710  21.501  -7.639  0.00  0.00    -0.205 F 
BRANCH  11  17
HETATM   17  C   UNK N   1      31.309  22.124  -2.662  0.00  0.00     0.177 C 
HETATM   18  O   UNK N   1      30.852  22.935  -1.871  0.00  0.00    -0.646 OA
BRANCH  17  19
HETATM   19  O   UNK N   1      32.400  21.418  -2.311  0.00  0.00    -0.773 OA
HETATM   20  H   UNK N   1      33.035  21.792  -1.733  0.00  0.00     0.167 HD
ENDBRANCH  17  19
ENDBRANCH  11  17
ENDBRANCH   5   9
BRANCH   8  21
HETATM   21  C   UNK N   1      25.665  26.666  -5.537  0.00  0.00     0.435 C 
HETATM   22  F   UNK N   1      24.372  26.313  -5.875  0.00  0.00    -0.165 F 
HETATM   23  F   UNK N   1      25.964  27.873  -6.138  0.00  0.00    -0.165 F 
HETATM   24  F   UNK N   1      25.746  26.833  -4.166  0.00  0.00    -0.165 F 
ENDBRANCH   8  21
TORSDOF 4
ENDMDL
