MODEL 1
REMARK VINA RESULT:      -5.2      0.000      0.000
REMARK  6 active torsions:
REMARK  status: ('A' for Active; 'I' for Inactive)
REMARK    1  A    between atoms: C_2  and  C_1 
REMARK    2  A    between atoms: O_8  and  C_1 
REMARK    3  A    between atoms: C_3  and  N_7 
REMARK    4  A    between atoms: C_4  and  O_9 
REMARK    5  A    between atoms: C_5  and  O_10 
REMARK    6  A    between atoms: C_6  and  O_11 
ROOT
HETATM    1  C   UNK N   1      34.762  17.075   8.940  0.00  0.00     0.173 C 
HETATM    2  C   UNK N   1      33.486  16.188   9.010  0.00  0.00     0.137 C 
HETATM    3  C   UNK N   1      33.640  15.077  10.085  0.00  0.00     0.176 C 
HETATM    4  C   UNK N   1      35.116  14.790  10.350  0.00  0.00     0.204 C 
HETATM    5  C   UNK N   1      35.734  16.127  10.874  0.00  0.00     0.288 C 
HETATM    6  O   UNK N   1      35.286  17.327  10.227  0.00  0.00    -0.349 OA
ENDROOT
BRANCH   1   7
HETATM    7  C   UNK N   1      34.508  18.379   8.186  0.00  0.00     0.198 C 
BRANCH   7   8
HETATM    8  O   UNK N   1      35.402  19.376   8.580  0.00  0.00    -0.398 OA
HETATM    9  H   UNK N   1      35.831  20.020   9.163  0.00  0.00     0.209 HD
ENDBRANCH   7   8
ENDBRANCH   1   7
BRANCH   2  10
HETATM   10  N   UNK N   1      33.255  15.617   7.689  0.00  0.00    -0.421 N 
HETATM   11  H   UNK N   1      33.571  15.849   6.747  0.00  0.00     0.150 HD
HETATM   12  H   UNK N   1      32.639  14.804   7.711  0.00  0.00     0.150 HD
ENDBRANCH   2  10
BRANCH   3  13
HETATM   13  O   UNK N   1      32.935  13.921   9.738  0.00  0.00    -0.391 OA
HETATM   14  H   UNK N   1      31.993  13.842   9.952  0.00  0.00     0.210 HD
ENDBRANCH   3  13
BRANCH   5  15
HETATM   15  O   UNK N   1      37.128  16.061  10.867  0.00  0.00    -0.369 OA
HETATM   16  H   UNK N   1      37.868  16.674  10.727  0.00  0.00     0.212 HD
ENDBRANCH   5  15
BRANCH   4  17
HETATM   17  O   UNK N   1      35.743  14.349   9.179  0.00  0.00    -0.388 OA
HETATM   18  H   UNK N   1      36.176  13.822   8.490  0.00  0.00     0.210 HD
ENDBRANCH   4  17
TORSDOF 6
ENDMDL
MODEL 2
REMARK VINA RESULT:      -4.8      1.660      3.306
REMARK  6 active torsions:
REMARK  status: ('A' for Active; 'I' for Inactive)
REMARK    1  A    between atoms: C_2  and  C_1 
REMARK    2  A    between atoms: O_8  and  C_1 
REMARK    3  A    between atoms: C_3  and  N_7 
REMARK    4  A    between atoms: C_4  and  O_9 
REMARK    5  A    between atoms: C_5  and  O_10 
REMARK    6  A    between atoms: C_6  and  O_11 
ROOT
HETATM    1  C   UNK N   1      34.647  16.528  10.100  0.00  0.00     0.173 C 
HETATM    2  C   UNK N   1      33.773  15.381   9.516  0.00  0.00     0.137 C 
HETATM    3  C   UNK N   1      33.179  15.780   8.138  0.00  0.00     0.176 C 
HETATM    4  C   UNK N   1      33.117  17.301   8.003  0.00  0.00     0.204 C 
HETATM    5  C   UNK N   1      34.591  17.810   8.115  0.00  0.00     0.288 C 
HETATM    6  O   UNK N   1      35.414  17.155   9.093  0.00  0.00    -0.349 OA
ENDROOT
BRANCH   1   7
HETATM    7  C   UNK N   1      35.537  16.040  11.242  0.00  0.00     0.198 C 
BRANCH   7   8
HETATM    8  O   UNK N   1      36.888  16.115  10.901  0.00  0.00    -0.398 OA
HETATM    9  H   UNK N   1      37.843  15.960  10.967  0.00  0.00     0.209 HD
ENDBRANCH   7   8
ENDBRANCH   1   7
BRANCH   2  10
HETATM   10  N   UNK N   1      32.720  15.076  10.477  0.00  0.00    -0.421 N 
HETATM   11  H   UNK N   1      32.421  15.489  11.360  0.00  0.00     0.150 HD
HETATM   12  H   UNK N   1      32.158  14.269  10.206  0.00  0.00     0.150 HD
ENDBRANCH   2  10
BRANCH   3  13
HETATM   13  O   UNK N   1      31.934  15.184   7.919  0.00  0.00    -0.391 OA
HETATM   14  H   UNK N   1      31.441  14.801   8.660  0.00  0.00     0.210 HD
ENDBRANCH   3  13
BRANCH   5  15
HETATM   15  O   UNK N   1      34.622  19.193   8.301  0.00  0.00    -0.369 OA
HETATM   16  H   UNK N   1      35.096  19.950   7.922  0.00  0.00     0.212 HD
ENDBRANCH   5  15
BRANCH   4  17
HETATM   17  O   UNK N   1      32.300  17.844   9.001  0.00  0.00    -0.388 OA
HETATM   18  H   UNK N   1      31.587  18.023   9.633  0.00  0.00     0.210 HD
ENDBRANCH   4  17
TORSDOF 6
ENDMDL
MODEL 3
REMARK VINA RESULT:      -4.8     14.469     15.543
REMARK  6 active torsions:
REMARK  status: ('A' for Active; 'I' for Inactive)
REMARK    1  A    between atoms: C_2  and  C_1 
REMARK    2  A    between atoms: O_8  and  C_1 
REMARK    3  A    between atoms: C_3  and  N_7 
REMARK    4  A    between atoms: C_4  and  O_9 
REMARK    5  A    between atoms: C_5  and  O_10 
REMARK    6  A    between atoms: C_6  and  O_11 
ROOT
HETATM    1  C   UNK N   1      20.966  19.467   2.336  0.00  0.00     0.173 C 
HETATM    2  C   UNK N   1      19.675  18.659   2.658  0.00  0.00     0.137 C 
HETATM    3  C   UNK N   1      19.890  17.736   3.889  0.00  0.00     0.176 C 
HETATM    4  C   UNK N   1      21.376  17.434   4.078  0.00  0.00     0.204 C 
HETATM    5  C   UNK N   1      22.075  18.811   4.317  0.00  0.00     0.288 C 
HETATM    6  O   UNK N   1      21.607  19.906   3.516  0.00  0.00    -0.349 OA
ENDROOT
BRANCH   1   7
HETATM    7  C   UNK N   1      20.683  20.639   1.397  0.00  0.00     0.198 C 
BRANCH   7   8
HETATM    8  O   UNK N   1      20.721  20.239   0.060  0.00  0.00    -0.398 OA
HETATM    9  H   UNK N   1      20.779  20.325  -0.903  0.00  0.00     0.209 HD
ENDBRANCH   7   8
ENDBRANCH   1   7
BRANCH   2  10
HETATM   10  N   UNK N   1      19.313  17.888   1.476  0.00  0.00    -0.421 N 
HETATM   11  H   UNK N   1      19.216  18.108   0.484  0.00  0.00     0.150 HD
HETATM   12  H   UNK N   1      19.113  16.910   1.687  0.00  0.00     0.150 HD
ENDBRANCH   2  10
BRANCH   3  13
HETATM   13  O   UNK N   1      19.126  16.570   3.800  0.00  0.00    -0.391 OA
HETATM   14  H   UNK N   1      19.289  15.934   3.086  0.00  0.00     0.210 HD
ENDBRANCH   3  13
BRANCH   5  15
HETATM   15  O   UNK N   1      23.461  18.686   4.207  0.00  0.00    -0.369 OA
HETATM   16  H   UNK N   1      24.231  19.277   4.213  0.00  0.00     0.212 HD
ENDBRANCH   5  15
BRANCH   4  17
HETATM   17  O   UNK N   1      21.885  16.779   2.950  0.00  0.00    -0.388 OA
HETATM   18  H   UNK N   1      22.394  16.525   2.165  0.00  0.00     0.210 HD
ENDBRANCH   4  17
TORSDOF 6
ENDMDL
MODEL 4
REMARK VINA RESULT:      -4.6      1.779      3.058
REMARK  6 active torsions:
REMARK  status: ('A' for Active; 'I' for Inactive)
REMARK    1  A    between atoms: C_2  and  C_1 
REMARK    2  A    between atoms: O_8  and  C_1 
REMARK    3  A    between atoms: C_3  and  N_7 
REMARK    4  A    between atoms: C_4  and  O_9 
REMARK    5  A    between atoms: C_5  and  O_10 
REMARK    6  A    between atoms: C_6  and  O_11 
ROOT
HETATM    1  C   UNK N   1      33.715  16.382   8.781  0.00  0.00     0.173 C 
HETATM    2  C   UNK N   1      35.135  16.374   9.416  0.00  0.00     0.137 C 
HETATM    3  C   UNK N   1      35.498  14.962   9.950  0.00  0.00     0.176 C 
HETATM    4  C   UNK N   1      34.232  14.156  10.236  0.00  0.00     0.204 C 
HETATM    5  C   UNK N   1      33.476  14.032   8.873  0.00  0.00     0.288 C 
HETATM    6  O   UNK N   1      33.474  15.202   8.042  0.00  0.00    -0.349 OA
ENDROOT
BRANCH   1   7
HETATM    7  C   UNK N   1      33.482  17.624   7.923  0.00  0.00     0.198 C 
BRANCH   7   8
HETATM    8  O   UNK N   1      34.683  18.270   7.629  0.00  0.00    -0.398 OA
HETATM    9  H   UNK N   1      35.487  18.494   7.136  0.00  0.00     0.209 HD
ENDBRANCH   7   8
ENDBRANCH   1   7
BRANCH   2  10
HETATM   10  N   UNK N   1      35.162  17.366  10.484  0.00  0.00    -0.421 N 
HETATM   11  H   UNK N   1      35.433  17.347  11.467  0.00  0.00     0.150 HD
HETATM   12  H   UNK N   1      34.838  18.284  10.180  0.00  0.00     0.150 HD
ENDBRANCH   2  10
BRANCH   3  13
HETATM   13  O   UNK N   1      36.337  15.030  11.066  0.00  0.00    -0.391 OA
HETATM   14  H   UNK N   1      36.992  15.742  11.139  0.00  0.00     0.210 HD
ENDBRANCH   3  13
BRANCH   5  15
HETATM   15  O   UNK N   1      32.172  13.575   9.073  0.00  0.00    -0.369 OA
HETATM   16  H   UNK N   1      31.302  13.706   8.662  0.00  0.00     0.212 HD
ENDBRANCH   5  15
BRANCH   4  17
HETATM   17  O   UNK N   1      33.456  14.800  11.206  0.00  0.00    -0.388 OA
HETATM   18  H   UNK N   1      33.089  15.431  11.845  0.00  0.00     0.210 HD
ENDBRANCH   4  17
TORSDOF 6
ENDMDL
MODEL 5
REMARK VINA RESULT:      -4.6      2.215      3.719
REMARK  6 active torsions:
REMARK  status: ('A' for Active; 'I' for Inactive)
REMARK    1  A    between atoms: C_2  and  C_1 
REMARK    2  A    between atoms: O_8  and  C_1 
REMARK    3  A    between atoms: C_3  and  N_7 
REMARK    4  A    between atoms: C_4  and  O_9 
REMARK    5  A    between atoms: C_5  and  O_10 
REMARK    6  A    between atoms: C_6  and  O_11 
ROOT
HETATM    1  C   UNK N   1      35.630  15.509   8.943  0.00  0.00     0.173 C 
HETATM    2  C   UNK N   1      34.341  16.023   9.646  0.00  0.00     0.137 C 
HETATM    3  C   UNK N   1      33.242  16.372   8.606  0.00  0.00     0.176 C 
HETATM    4  C   UNK N   1      33.867  16.670   7.245  0.00  0.00     0.204 C 
HETATM    5  C   UNK N   1      34.615  15.367   6.813  0.00  0.00     0.288 C 
HETATM    6  O   UNK N   1      35.321  14.669   7.850  0.00  0.00    -0.349 OA
ENDROOT
BRANCH   1   7
HETATM    7  C   UNK N   1      36.573  14.811   9.921  0.00  0.00     0.198 C 
BRANCH   7   8
HETATM    8  O   UNK N   1      37.250  15.734  10.720  0.00  0.00    -0.398 OA
HETATM    9  H   UNK N   1      37.849  16.463  10.943  0.00  0.00     0.209 HD
ENDBRANCH   7   8
ENDBRANCH   1   7
BRANCH   2  10
HETATM   10  N   UNK N   1      34.694  17.186  10.452  0.00  0.00    -0.421 N 
HETATM   11  H   UNK N   1      34.262  17.662  11.244  0.00  0.00     0.150 HD
HETATM   12  H   UNK N   1      35.569  17.621  10.157  0.00  0.00     0.150 HD
ENDBRANCH   2  10
BRANCH   3  13
HETATM   13  O   UNK N   1      32.425  17.416   9.048  0.00  0.00    -0.391 OA
HETATM   14  H   UNK N   1      31.918  17.324   9.869  0.00  0.00     0.210 HD
ENDBRANCH   3  13
BRANCH   5  15
HETATM   15  O   UNK N   1      35.463  15.621   5.733  0.00  0.00    -0.369 OA
HETATM   16  H   UNK N   1      36.125  15.132   5.219  0.00  0.00     0.212 HD
ENDBRANCH   5  15
BRANCH   4  17
HETATM   17  O   UNK N   1      34.736  17.764   7.340  0.00  0.00    -0.388 OA
HETATM   18  H   UNK N   1      35.221  18.590   7.191  0.00  0.00     0.210 HD
ENDBRANCH   4  17
TORSDOF 6
ENDMDL
MODEL 6
REMARK VINA RESULT:      -4.6      2.120      3.776
REMARK  6 active torsions:
REMARK  status: ('A' for Active; 'I' for Inactive)
REMARK    1  A    between atoms: C_2  and  C_1 
REMARK    2  A    between atoms: O_8  and  C_1 
REMARK    3  A    between atoms: C_3  and  N_7 
REMARK    4  A    between atoms: C_4  and  O_9 
REMARK    5  A    between atoms: C_5  and  O_10 
REMARK    6  A    between atoms: C_6  and  O_11 
ROOT
HETATM    1  C   UNK N   1      35.758  14.233  10.488  0.00  0.00     0.173 C 
HETATM    2  C   UNK N   1      34.863  13.098   9.913  0.00  0.00     0.137 C 
HETATM    3  C   UNK N   1      33.620  13.683   9.188  0.00  0.00     0.176 C 
HETATM    4  C   UNK N   1      33.308  15.084   9.709  0.00  0.00     0.204 C 
HETATM    5  C   UNK N   1      34.567  15.957   9.396  0.00  0.00     0.288 C 
HETATM    6  O   UNK N   1      35.840  15.326   9.597  0.00  0.00    -0.349 OA
ENDROOT
BRANCH   1   7
HETATM    7  C   UNK N   1      37.150  13.725  10.863  0.00  0.00     0.198 C 
BRANCH   7   8
HETATM    8  O   UNK N   1      37.267  13.534  12.240  0.00  0.00    -0.398 OA
HETATM    9  H   UNK N   1      37.512  13.098  13.070  0.00  0.00     0.209 HD
ENDBRANCH   7   8
ENDBRANCH   1   7
BRANCH   2  10
HETATM   10  N   UNK N   1      34.471  12.224  11.012  0.00  0.00    -0.421 N 
HETATM   11  H   UNK N   1      33.980  12.368  11.895  0.00  0.00     0.150 HD
HETATM   12  H   UNK N   1      34.749  11.254  10.866  0.00  0.00     0.150 HD
ENDBRANCH   2  10
BRANCH   3  13
HETATM   13  O   UNK N   1      32.517  12.831   9.284  0.00  0.00    -0.391 OA
HETATM   14  H   UNK N   1      32.562  11.933   8.919  0.00  0.00     0.210 HD
ENDBRANCH   3  13
BRANCH   5  15
HETATM   15  O   UNK N   1      34.509  17.168  10.088  0.00  0.00    -0.369 OA
HETATM   16  H   UNK N   1      34.856  18.068   9.974  0.00  0.00     0.212 HD
ENDBRANCH   5  15
BRANCH   4  17
HETATM   17  O   UNK N   1      33.029  15.042  11.080  0.00  0.00    -0.388 OA
HETATM   18  H   UNK N   1      33.024  15.183  12.039  0.00  0.00     0.210 HD
ENDBRANCH   4  17
TORSDOF 6
ENDMDL
MODEL 7
REMARK VINA RESULT:      -4.4     10.854     12.685
REMARK  6 active torsions:
REMARK  status: ('A' for Active; 'I' for Inactive)
REMARK    1  A    between atoms: C_2  and  C_1 
REMARK    2  A    between atoms: O_8  and  C_1 
REMARK    3  A    between atoms: C_3  and  N_7 
REMARK    4  A    between atoms: C_4  and  O_9 
REMARK    5  A    between atoms: C_5  and  O_10 
REMARK    6  A    between atoms: C_6  and  O_11 
ROOT
HETATM    1  C   UNK N   1      42.818  21.108   3.030  0.00  0.00     0.173 C 
HETATM    2  C   UNK N   1      42.364  21.995   1.835  0.00  0.00     0.137 C 
HETATM    3  C   UNK N   1      43.382  23.137   1.572  0.00  0.00     0.176 C 
HETATM    4  C   UNK N   1      44.192  23.434   2.832  0.00  0.00     0.204 C 
HETATM    5  C   UNK N   1      44.951  22.114   3.185  0.00  0.00     0.288 C 
HETATM    6  O   UNK N   1      44.215  20.894   3.011  0.00  0.00    -0.349 OA
ENDROOT
BRANCH   1   7
HETATM    7  C   UNK N   1      42.061  19.781   3.074  0.00  0.00     0.198 C 
BRANCH   7   8
HETATM    8  O   UNK N   1      40.912  19.879   3.858  0.00  0.00    -0.398 OA
HETATM    9  H   UNK N   1      40.366  20.079   4.634  0.00  0.00     0.209 HD
ENDBRANCH   7   8
ENDBRANCH   1   7
BRANCH   2  10
HETATM   10  N   UNK N   1      41.041  22.527   2.140  0.00  0.00    -0.421 N 
HETATM   11  H   UNK N   1      40.405  23.169   1.667  0.00  0.00     0.150 HD
HETATM   12  H   UNK N   1      40.669  22.179   3.024  0.00  0.00     0.150 HD
ENDBRANCH   2  10
BRANCH   3  13
HETATM   13  O   UNK N   1      42.757  24.282   1.069  0.00  0.00    -0.391 OA
HETATM   14  H   UNK N   1      41.800  24.398   1.171  0.00  0.00     0.210 HD
ENDBRANCH   3  13
BRANCH   5  15
HETATM   15  O   UNK N   1      45.483  22.181   4.473  0.00  0.00    -0.369 OA
HETATM   16  H   UNK N   1      45.204  21.939   5.371  0.00  0.00     0.212 HD
ENDBRANCH   5  15
BRANCH   4  17
HETATM   17  O   UNK N   1      43.344  23.841   3.869  0.00  0.00    -0.388 OA
HETATM   18  H   UNK N   1      42.967  24.237   4.670  0.00  0.00     0.210 HD
ENDBRANCH   4  17
TORSDOF 6
ENDMDL
MODEL 8
REMARK VINA RESULT:      -4.4      2.336      3.971
REMARK  6 active torsions:
REMARK  status: ('A' for Active; 'I' for Inactive)
REMARK    1  A    between atoms: C_2  and  C_1 
REMARK    2  A    between atoms: O_8  and  C_1 
REMARK    3  A    between atoms: C_3  and  N_7 
REMARK    4  A    between atoms: C_4  and  O_9 
REMARK    5  A    between atoms: C_5  and  O_10 
REMARK    6  A    between atoms: C_6  and  O_11 
ROOT
HETATM    1  C   UNK N   1      31.762  15.623   7.883  0.00  0.00     0.173 C 
HETATM    2  C   UNK N   1      32.786  16.725   8.281  0.00  0.00     0.137 C 
HETATM    3  C   UNK N   1      33.917  16.139   9.169  0.00  0.00     0.176 C 
HETATM    4  C   UNK N   1      33.445  14.865   9.866  0.00  0.00     0.204 C 
HETATM    5  C   UNK N   1      33.082  13.854   8.730  0.00  0.00     0.288 C 
HETATM    6  O   UNK N   1      32.409  14.402   7.587  0.00  0.00    -0.349 OA
ENDROOT
BRANCH   1   7
HETATM    7  C   UNK N   1      30.870  16.066   6.724  0.00  0.00     0.198 C 
BRANCH   7   8
HETATM    8  O   UNK N   1      29.866  16.932   7.160  0.00  0.00    -0.398 OA
HETATM    9  H   UNK N   1      29.426  17.773   7.354  0.00  0.00     0.209 HD
ENDBRANCH   7   8
ENDBRANCH   1   7
BRANCH   2  10
HETATM   10  N   UNK N   1      32.066  17.786   8.974  0.00  0.00    -0.421 N 
HETATM   11  H   UNK N   1      31.405  18.507   8.683  0.00  0.00     0.150 HD
HETATM   12  H   UNK N   1      32.268  17.814   9.974  0.00  0.00     0.150 HD
ENDBRANCH   2  10
BRANCH   3  13
HETATM   13  O   UNK N   1      34.403  17.084  10.077  0.00  0.00    -0.391 OA
HETATM   14  H   UNK N   1      33.844  17.826  10.353  0.00  0.00     0.210 HD
ENDBRANCH   3  13
BRANCH   5  15
HETATM   15  O   UNK N   1      32.365  12.773   9.244  0.00  0.00    -0.369 OA
HETATM   16  H   UNK N   1      31.762  12.608   9.987  0.00  0.00     0.212 HD
ENDBRANCH   5  15
BRANCH   4  17
HETATM   17  O   UNK N   1      32.347  15.141  10.689  0.00  0.00    -0.388 OA
HETATM   18  H   UNK N   1      31.465  15.341  11.037  0.00  0.00     0.210 HD
ENDBRANCH   4  17
TORSDOF 6
ENDMDL
MODEL 9
REMARK VINA RESULT:      -4.3     12.537     13.430
REMARK  6 active torsions:
REMARK  status: ('A' for Active; 'I' for Inactive)
REMARK    1  A    between atoms: C_2  and  C_1 
REMARK    2  A    between atoms: O_8  and  C_1 
REMARK    3  A    between atoms: C_3  and  N_7 
REMARK    4  A    between atoms: C_4  and  O_9 
REMARK    5  A    between atoms: C_5  and  O_10 
REMARK    6  A    between atoms: C_6  and  O_11 
ROOT
HETATM    1  C   UNK N   1      44.667  20.671   2.790  0.00  0.00     0.173 C 
HETATM    2  C   UNK N   1      44.459  21.670   3.964  0.00  0.00     0.137 C 
HETATM    3  C   UNK N   1      43.350  22.704   3.624  0.00  0.00     0.176 C 
HETATM    4  C   UNK N   1      43.187  22.835   2.111  0.00  0.00     0.204 C 
HETATM    5  C   UNK N   1      42.773  21.420   1.592  0.00  0.00     0.288 C 
HETATM    6  O   UNK N   1      43.437  20.303   2.201  0.00  0.00    -0.349 OA
ENDROOT
BRANCH   1   7
HETATM    7  C   UNK N   1      45.457  19.438   3.226  0.00  0.00     0.198 C 
BRANCH   7   8
HETATM    8  O   UNK N   1      46.762  19.773   3.589  0.00  0.00    -0.398 OA
HETATM    9  H   UNK N   1      47.563  19.810   4.134  0.00  0.00     0.209 HD
ENDBRANCH   7   8
ENDBRANCH   1   7
BRANCH   2  10
HETATM   10  N   UNK N   1      45.731  22.329   4.233  0.00  0.00    -0.421 N 
HETATM   11  H   UNK N   1      46.639  22.013   4.574  0.00  0.00     0.150 HD
HETATM   12  H   UNK N   1      45.708  23.330   4.038  0.00  0.00     0.150 HD
ENDBRANCH   2  10
BRANCH   3  13
HETATM   13  O   UNK N   1      43.590  23.938   4.234  0.00  0.00    -0.391 OA
HETATM   14  H   UNK N   1      42.867  24.412   4.673  0.00  0.00     0.210 HD
ENDBRANCH   3  13
BRANCH   5  15
HETATM   15  O   UNK N   1      42.885  21.354   0.202  0.00  0.00    -0.369 OA
HETATM   16  H   UNK N   1      43.152  21.947  -0.519  0.00  0.00     0.212 HD
ENDBRANCH   5  15
BRANCH   4  17
HETATM   17  O   UNK N   1      44.382  23.275   1.530  0.00  0.00    -0.388 OA
HETATM   18  H   UNK N   1      45.249  23.676   1.360  0.00  0.00     0.210 HD
ENDBRANCH   4  17
TORSDOF 6
ENDMDL
