MODEL 1
REMARK VINA RESULT:      -4.7      0.000      0.000
REMARK  9 active torsions:
REMARK  status: ('A' for Active; 'I' for Inactive)
REMARK    1  A    between atoms: N_2  and  C_4 
REMARK    2  A    between atoms: C_4  and  C_5 
REMARK    3  A    between atoms: C_5  and  O_6 
REMARK    4  A    between atoms: P_7  and  O_6 
REMARK    5  A    between atoms: P_7  and  O_8 
REMARK    6  A    between atoms: P_7  and  O_10 
REMARK    7  A    between atoms: O_10  and  P_11 
REMARK    8  A    between atoms: P_11  and  O_12 
REMARK    9  A    between atoms: P_11  and  O_13 
ROOT
HETATM    1  P   UNK N   1      35.418  15.873  11.374  0.00  0.00     0.401 P 
HETATM    2  O   UNK N   1      34.452  15.514  10.214  0.00  0.00    -0.631 OA
ENDROOT
BRANCH   1   3
HETATM    3  O   UNK N   1      35.572  17.226  10.294  0.00  0.00    -0.295 OA
BRANCH   3   4
HETATM    4  C   UNK N   1      34.598  17.042   9.312  0.00  0.00     0.211 C 
BRANCH   4   5
HETATM    5  C   UNK N   1      34.663  18.201   8.331  0.00  0.00     0.298 C 
BRANCH   5   6
HETATM    6  N   UNK N   1      33.470  18.240   7.500  0.00  0.00     0.082 N 
HETATM    7  C   UNK N   1      32.407  17.609   8.259  0.00  0.00     0.309 C 
HETATM    8  C   UNK N   1      33.708  17.397   6.338  0.00  0.00     0.309 C 
ENDBRANCH   5   6
ENDBRANCH   4   5
ENDBRANCH   3   4
ENDBRANCH   1   3
BRANCH   1   9
HETATM    9  O   UNK N   1      37.055  16.016  10.812  0.00  0.00    -0.307 OA
HETATM   10  H   UNK N   1      37.771  15.452  10.481  0.00  0.00     0.222 HD
ENDBRANCH   1   9
BRANCH   1  11
HETATM   11  O   UNK N   1      36.017  14.322  10.857  0.00  0.00    -0.195 OA
BRANCH  11  12
HETATM   12  P   UNK N   1      35.927  13.289  12.255  0.00  0.00     0.399 P 
HETATM   13  O   UNK N   1      35.864  14.709  12.877  0.00  0.00    -0.631 OA
BRANCH  12  14
HETATM   14  O   UNK N   1      34.477  13.242  13.206  0.00  0.00    -0.307 OA
HETATM   15  H   UNK N   1      34.485  13.379  14.166  0.00  0.00     0.222 HD
ENDBRANCH  12  14
BRANCH  12  16
HETATM   16  O   UNK N   1      34.544  13.014  11.242  0.00  0.00    -0.307 OA
HETATM   17  H   UNK N   1      34.348  12.285  10.635  0.00  0.00     0.222 HD
ENDBRANCH  12  16
ENDBRANCH  11  12
ENDBRANCH   1  11
TORSDOF 9
ENDMDL
MODEL 2
REMARK VINA RESULT:      -4.7      2.577      3.632
REMARK  9 active torsions:
REMARK  status: ('A' for Active; 'I' for Inactive)
REMARK    1  A    between atoms: N_2  and  C_4 
REMARK    2  A    between atoms: C_4  and  C_5 
REMARK    3  A    between atoms: C_5  and  O_6 
REMARK    4  A    between atoms: P_7  and  O_6 
REMARK    5  A    between atoms: P_7  and  O_8 
REMARK    6  A    between atoms: P_7  and  O_10 
REMARK    7  A    between atoms: O_10  and  P_11 
REMARK    8  A    between atoms: P_11  and  O_12 
REMARK    9  A    between atoms: P_11  and  O_13 
ROOT
HETATM    1  P   UNK N   1      33.982  17.649   8.267  0.00  0.00     0.401 P 
HETATM    2  O   UNK N   1      34.766  16.425   7.723  0.00  0.00    -0.631 OA
ENDROOT
BRANCH   1   3
HETATM    3  O   UNK N   1      34.366  18.114   6.637  0.00  0.00    -0.295 OA
BRANCH   3   4
HETATM    4  C   UNK N   1      33.986  17.037   5.834  0.00  0.00     0.211 C 
BRANCH   4   5
HETATM    5  C   UNK N   1      33.045  17.538   4.752  0.00  0.00     0.298 C 
BRANCH   5   6
HETATM    6  N   UNK N   1      32.386  16.425   4.086  0.00  0.00     0.082 N 
HETATM    7  C   UNK N   1      32.265  15.361   5.065  0.00  0.00     0.309 C 
HETATM    8  C   UNK N   1      33.278  15.935   3.047  0.00  0.00     0.309 C 
ENDBRANCH   5   6
ENDBRANCH   4   5
ENDBRANCH   3   4
ENDBRANCH   1   3
BRANCH   1   9
HETATM    9  O   UNK N   1      34.964  19.081   8.261  0.00  0.00    -0.307 OA
HETATM   10  H   UNK N   1      35.859  19.358   8.010  0.00  0.00     0.222 HD
ENDBRANCH   1   9
BRANCH   1  11
HETATM   11  O   UNK N   1      35.280  17.496   9.418  0.00  0.00    -0.195 OA
BRANCH  11  12
HETATM   12  P   UNK N   1      35.361  15.804   9.819  0.00  0.00     0.399 P 
HETATM   13  O   UNK N   1      36.450  16.422  10.734  0.00  0.00    -0.631 OA
BRANCH  12  14
HETATM   14  O   UNK N   1      34.901  15.265  11.402  0.00  0.00    -0.307 OA
HETATM   15  H   UNK N   1      35.145  15.753  12.204  0.00  0.00     0.222 HD
ENDBRANCH  12  14
BRANCH  12  16
HETATM   16  O   UNK N   1      33.796  16.425  10.242  0.00  0.00    -0.307 OA
HETATM   17  H   UNK N   1      33.505  17.338  10.392  0.00  0.00     0.222 HD
ENDBRANCH  12  16
ENDBRANCH  11  12
ENDBRANCH   1  11
TORSDOF 9
ENDMDL
MODEL 3
REMARK VINA RESULT:      -4.7     13.988     15.003
REMARK  9 active torsions:
REMARK  status: ('A' for Active; 'I' for Inactive)
REMARK    1  A    between atoms: N_2  and  C_4 
REMARK    2  A    between atoms: C_4  and  C_5 
REMARK    3  A    between atoms: C_5  and  O_6 
REMARK    4  A    between atoms: P_7  and  O_6 
REMARK    5  A    between atoms: P_7  and  O_8 
REMARK    6  A    between atoms: P_7  and  O_10 
REMARK    7  A    between atoms: O_10  and  P_11 
REMARK    8  A    between atoms: P_11  and  O_12 
REMARK    9  A    between atoms: P_11  and  O_13 
ROOT
HETATM    1  P   UNK N   1      20.560  14.739   8.888  0.00  0.00     0.401 P 
HETATM    2  O   UNK N   1      20.211  14.391   7.417  0.00  0.00    -0.631 OA
ENDROOT
BRANCH   1   3
HETATM    3  O   UNK N   1      20.600  13.002   8.870  0.00  0.00    -0.295 OA
BRANCH   3   4
HETATM    4  C   UNK N   1      21.436  12.630   9.924  0.00  0.00     0.211 C 
BRANCH   4   5
HETATM    5  C   UNK N   1      22.717  13.444   9.848  0.00  0.00     0.298 C 
BRANCH   5   6
HETATM    6  N   UNK N   1      23.877  12.605  10.105  0.00  0.00     0.082 N 
HETATM    7  C   UNK N   1      23.910  11.599   9.060  0.00  0.00     0.309 C 
HETATM    8  C   UNK N   1      23.648  11.898  11.356  0.00  0.00     0.309 C 
ENDBRANCH   5   6
ENDBRANCH   4   5
ENDBRANCH   3   4
ENDBRANCH   1   3
BRANCH   1   9
HETATM    9  O   UNK N   1      19.380  14.094   9.986  0.00  0.00    -0.307 OA
HETATM   10  H   UNK N   1      19.256  13.963  10.939  0.00  0.00     0.222 HD
ENDBRANCH   1   9
BRANCH   1  11
HETATM   11  O   UNK N   1      19.029  15.540   8.668  0.00  0.00    -0.195 OA
BRANCH  11  12
HETATM   12  P   UNK N   1      19.408  17.135   8.085  0.00  0.00     0.399 P 
HETATM   13  O   UNK N   1      18.194  17.393   9.015  0.00  0.00    -0.631 OA
BRANCH  12  14
HETATM   14  O   UNK N   1      19.998  18.342   9.183  0.00  0.00    -0.307 OA
HETATM   15  H   UNK N   1      19.904  19.291   9.006  0.00  0.00     0.222 HD
ENDBRANCH  12  14
BRANCH  12  16
HETATM   16  O   UNK N   1      20.748  16.520   9.002  0.00  0.00    -0.307 OA
HETATM   17  H   UNK N   1      21.176  15.651   8.978  0.00  0.00     0.222 HD
ENDBRANCH  12  16
ENDBRANCH  11  12
ENDBRANCH   1  11
TORSDOF 9
ENDMDL
MODEL 4
REMARK VINA RESULT:      -4.6      5.778      6.797
REMARK  9 active torsions:
REMARK  status: ('A' for Active; 'I' for Inactive)
REMARK    1  A    between atoms: N_2  and  C_4 
REMARK    2  A    between atoms: C_4  and  C_5 
REMARK    3  A    between atoms: C_5  and  O_6 
REMARK    4  A    between atoms: P_7  and  O_6 
REMARK    5  A    between atoms: P_7  and  O_8 
REMARK    6  A    between atoms: P_7  and  O_10 
REMARK    7  A    between atoms: O_10  and  P_11 
REMARK    8  A    between atoms: P_11  and  O_12 
REMARK    9  A    between atoms: P_11  and  O_13 
ROOT
HETATM    1  P   UNK N   1      36.203  13.745  12.883  0.00  0.00     0.401 P 
HETATM    2  O   UNK N   1      34.683  13.433  12.898  0.00  0.00    -0.631 OA
ENDROOT
BRANCH   1   3
HETATM    3  O   UNK N   1      35.824  13.695  14.578  0.00  0.00    -0.295 OA
BRANCH   3   4
HETATM    4  C   UNK N   1      36.905  13.058  15.191  0.00  0.00     0.211 C 
BRANCH   4   5
HETATM    5  C   UNK N   1      36.500  11.639  15.552  0.00  0.00     0.298 C 
BRANCH   5   6
HETATM    6  N   UNK N   1      35.149  11.610  16.090  0.00  0.00     0.082 N 
HETATM    7  C   UNK N   1      35.265  11.305  17.505  0.00  0.00     0.309 C 
HETATM    8  C   UNK N   1      34.448  10.490  15.480  0.00  0.00     0.309 C 
ENDBRANCH   5   6
ENDBRANCH   4   5
ENDBRANCH   3   4
ENDBRANCH   1   3
BRANCH   1   9
HETATM    9  O   UNK N   1      36.541  15.278  13.624  0.00  0.00    -0.307 OA
HETATM   10  H   UNK N   1      36.495  15.699  14.497  0.00  0.00     0.222 HD
ENDBRANCH   1   9
BRANCH   1  11
HETATM   11  O   UNK N   1      35.546  15.039  11.920  0.00  0.00    -0.195 OA
BRANCH  11  12
HETATM   12  P   UNK N   1      36.320  14.913  10.366  0.00  0.00     0.399 P 
HETATM   13  O   UNK N   1      36.585  16.391  10.759  0.00  0.00    -0.631 OA
BRANCH  12  14
HETATM   14  O   UNK N   1      38.045  15.054  10.243  0.00  0.00    -0.307 OA
HETATM   15  H   UNK N   1      38.615  15.114  11.025  0.00  0.00     0.222 HD
ENDBRANCH  12  14
BRANCH  12  16
HETATM   16  O   UNK N   1      37.100  13.844  11.490  0.00  0.00    -0.307 OA
HETATM   17  H   UNK N   1      38.013  13.837  11.817  0.00  0.00     0.222 HD
ENDBRANCH  12  16
ENDBRANCH  11  12
ENDBRANCH   1  11
TORSDOF 9
ENDMDL
MODEL 5
REMARK VINA RESULT:      -4.5      3.986      5.571
REMARK  9 active torsions:
REMARK  status: ('A' for Active; 'I' for Inactive)
REMARK    1  A    between atoms: N_2  and  C_4 
REMARK    2  A    between atoms: C_4  and  C_5 
REMARK    3  A    between atoms: C_5  and  O_6 
REMARK    4  A    between atoms: P_7  and  O_6 
REMARK    5  A    between atoms: P_7  and  O_8 
REMARK    6  A    between atoms: P_7  and  O_10 
REMARK    7  A    between atoms: O_10  and  P_11 
REMARK    8  A    between atoms: P_11  and  O_12 
REMARK    9  A    between atoms: P_11  and  O_13 
ROOT
HETATM    1  P   UNK N   1      34.096  17.765   8.325  0.00  0.00     0.401 P 
HETATM    2  O   UNK N   1      34.962  19.050   8.239  0.00  0.00    -0.631 OA
ENDROOT
BRANCH   1   3
HETATM    3  O   UNK N   1      35.267  17.541   9.589  0.00  0.00    -0.295 OA
BRANCH   3   4
HETATM    4  C   UNK N   1      34.801  16.472  10.355  0.00  0.00     0.211 C 
BRANCH   4   5
HETATM    5  C   UNK N   1      35.956  15.903  11.162  0.00  0.00     0.298 C 
BRANCH   5   6
HETATM    6  N   UNK N   1      36.185  14.507  10.821  0.00  0.00     0.082 N 
HETATM    7  C   UNK N   1      36.495  13.817  12.059  0.00  0.00     0.309 C 
HETATM    8  C   UNK N   1      37.381  14.439   9.996  0.00  0.00     0.309 C 
ENDBRANCH   5   6
ENDBRANCH   4   5
ENDBRANCH   3   4
ENDBRANCH   1   3
BRANCH   1   9
HETATM    9  O   UNK N   1      35.046  16.343   8.025  0.00  0.00    -0.307 OA
HETATM   10  H   UNK N   1      35.128  15.640   7.362  0.00  0.00     0.222 HD
ENDBRANCH   1   9
BRANCH   1  11
HETATM   11  O   UNK N   1      34.639  17.739   6.670  0.00  0.00    -0.195 OA
BRANCH  11  12
HETATM   12  P   UNK N   1      33.221  17.430   5.711  0.00  0.00     0.399 P 
HETATM   13  O   UNK N   1      34.048  16.132   5.522  0.00  0.00    -0.631 OA
BRANCH  12  14
HETATM   14  O   UNK N   1      32.111  16.182   6.180  0.00  0.00    -0.307 OA
HETATM   15  H   UNK N   1      31.478  15.794   5.557  0.00  0.00     0.222 HD
ENDBRANCH  12  14
BRANCH  12  16
HETATM   16  O   UNK N   1      32.764  17.617   7.375  0.00  0.00    -0.307 OA
HETATM   17  H   UNK N   1      31.886  17.629   7.786  0.00  0.00     0.222 HD
ENDBRANCH  12  16
ENDBRANCH  11  12
ENDBRANCH   1  11
TORSDOF 9
ENDMDL
MODEL 6
REMARK VINA RESULT:      -4.5      4.459      5.672
REMARK  9 active torsions:
REMARK  status: ('A' for Active; 'I' for Inactive)
REMARK    1  A    between atoms: N_2  and  C_4 
REMARK    2  A    between atoms: C_4  and  C_5 
REMARK    3  A    between atoms: C_5  and  O_6 
REMARK    4  A    between atoms: P_7  and  O_6 
REMARK    5  A    between atoms: P_7  and  O_8 
REMARK    6  A    between atoms: P_7  and  O_10 
REMARK    7  A    between atoms: O_10  and  P_11 
REMARK    8  A    between atoms: P_11  and  O_12 
REMARK    9  A    between atoms: P_11  and  O_13 
ROOT
HETATM    1  P   UNK N   1      32.073  16.051   7.586  0.00  0.00     0.401 P 
HETATM    2  O   UNK N   1      32.681  15.822   6.177  0.00  0.00    -0.631 OA
ENDROOT
BRANCH   1   3
HETATM    3  O   UNK N   1      31.087  17.048   6.559  0.00  0.00    -0.295 OA
BRANCH   3   4
HETATM    4  C   UNK N   1      29.782  16.576   6.708  0.00  0.00     0.211 C 
BRANCH   4   5
HETATM    5  C   UNK N   1      28.812  17.702   6.394  0.00  0.00     0.298 C 
BRANCH   5   6
HETATM    6  N   UNK N   1      28.751  18.651   7.495  0.00  0.00     0.082 N 
HETATM    7  C   UNK N   1      28.270  17.922   8.654  0.00  0.00     0.309 C 
HETATM    8  C   UNK N   1      27.734  19.641   7.175  0.00  0.00     0.309 C 
ENDBRANCH   5   6
ENDBRANCH   4   5
ENDBRANCH   3   4
ENDBRANCH   1   3
BRANCH   1   9
HETATM    9  O   UNK N   1      32.193  17.716   8.063  0.00  0.00    -0.307 OA
HETATM   10  H   UNK N   1      31.964  18.284   8.814  0.00  0.00     0.222 HD
ENDBRANCH   1   9
BRANCH   1  11
HETATM   11  O   UNK N   1      33.741  16.491   7.824  0.00  0.00    -0.195 OA
BRANCH  11  12
HETATM   12  P   UNK N   1      33.726  18.167   8.292  0.00  0.00     0.399 P 
HETATM   13  O   UNK N   1      34.511  17.498   9.450  0.00  0.00    -0.631 OA
BRANCH  12  14
HETATM   14  O   UNK N   1      35.208  19.067   8.338  0.00  0.00    -0.307 OA
HETATM   15  H   UNK N   1      35.364  19.835   7.766  0.00  0.00     0.222 HD
ENDBRANCH  12  14
BRANCH  12  16
HETATM   16  O   UNK N   1      34.592  17.991   6.797  0.00  0.00    -0.307 OA
HETATM   17  H   UNK N   1      35.545  17.938   6.629  0.00  0.00     0.222 HD
ENDBRANCH  12  16
ENDBRANCH  11  12
ENDBRANCH   1  11
TORSDOF 9
ENDMDL
MODEL 7
REMARK VINA RESULT:      -4.4      2.867      4.213
REMARK  9 active torsions:
REMARK  status: ('A' for Active; 'I' for Inactive)
REMARK    1  A    between atoms: N_2  and  C_4 
REMARK    2  A    between atoms: C_4  and  C_5 
REMARK    3  A    between atoms: C_5  and  O_6 
REMARK    4  A    between atoms: P_7  and  O_6 
REMARK    5  A    between atoms: P_7  and  O_8 
REMARK    6  A    between atoms: P_7  and  O_10 
REMARK    7  A    between atoms: O_10  and  P_11 
REMARK    8  A    between atoms: P_11  and  O_12 
REMARK    9  A    between atoms: P_11  and  O_13 
ROOT
HETATM    1  P   UNK N   1      33.786  16.773   7.688  0.00  0.00     0.401 P 
HETATM    2  O   UNK N   1      34.384  17.997   6.944  0.00  0.00    -0.631 OA
ENDROOT
BRANCH   1   3
HETATM    3  O   UNK N   1      32.466  17.902   7.655  0.00  0.00    -0.295 OA
BRANCH   3   4
HETATM    4  C   UNK N   1      31.471  17.349   8.462  0.00  0.00     0.211 C 
BRANCH   4   5
HETATM    5  C   UNK N   1      30.155  17.365   7.701  0.00  0.00     0.298 C 
BRANCH   5   6
HETATM    6  N   UNK N   1      29.080  17.868   8.542  0.00  0.00     0.082 N 
HETATM    7  C   UNK N   1      28.390  18.889   7.777  0.00  0.00     0.309 C 
HETATM    8  C   UNK N   1      29.683  18.539   9.683  0.00  0.00     0.309 C 
ENDBRANCH   5   6
ENDBRANCH   4   5
ENDBRANCH   3   4
ENDBRANCH   1   3
BRANCH   1   9
HETATM    9  O   UNK N   1      33.305  17.189   9.303  0.00  0.00    -0.307 OA
HETATM   10  H   UNK N   1      33.532  16.966  10.219  0.00  0.00     0.222 HD
ENDBRANCH   1   9
BRANCH   1  11
HETATM   11  O   UNK N   1      35.183  17.152   8.656  0.00  0.00    -0.195 OA
BRANCH  11  12
HETATM   12  P   UNK N   1      34.994  16.253  10.134  0.00  0.00     0.399 P 
HETATM   13  O   UNK N   1      35.791  15.269   9.238  0.00  0.00    -0.631 OA
BRANCH  12  14
HETATM   14  O   UNK N   1      36.383  15.872  11.101  0.00  0.00    -0.307 OA
HETATM   15  H   UNK N   1      36.649  16.416  11.859  0.00  0.00     0.222 HD
ENDBRANCH  12  14
BRANCH  12  16
HETATM   16  O   UNK N   1      35.932  17.682  10.441  0.00  0.00    -0.307 OA
HETATM   17  H   UNK N   1      35.992  18.510   9.942  0.00  0.00     0.222 HD
ENDBRANCH  12  16
ENDBRANCH  11  12
ENDBRANCH   1  11
TORSDOF 9
ENDMDL
MODEL 8
REMARK VINA RESULT:      -4.4     12.885     14.421
REMARK  9 active torsions:
REMARK  status: ('A' for Active; 'I' for Inactive)
REMARK    1  A    between atoms: N_2  and  C_4 
REMARK    2  A    between atoms: C_4  and  C_5 
REMARK    3  A    between atoms: C_5  and  O_6 
REMARK    4  A    between atoms: P_7  and  O_6 
REMARK    5  A    between atoms: P_7  and  O_8 
REMARK    6  A    between atoms: P_7  and  O_10 
REMARK    7  A    between atoms: O_10  and  P_11 
REMARK    8  A    between atoms: P_11  and  O_12 
REMARK    9  A    between atoms: P_11  and  O_13 
ROOT
HETATM    1  P   UNK N   1      44.368  22.867   2.430  0.00  0.00     0.401 P 
HETATM    2  O   UNK N   1      43.035  23.524   2.874  0.00  0.00    -0.631 OA
ENDROOT
BRANCH   1   3
HETATM    3  O   UNK N   1      43.760  21.764   3.626  0.00  0.00    -0.295 OA
BRANCH   3   4
HETATM    4  C   UNK N   1      43.369  20.621   2.927  0.00  0.00     0.211 C 
BRANCH   4   5
HETATM    5  C   UNK N   1      41.996  20.191   3.414  0.00  0.00     0.298 C 
BRANCH   5   6
HETATM    6  N   UNK N   1      41.056  20.116   2.306  0.00  0.00     0.082 N 
HETATM    7  C   UNK N   1      41.843  20.112   1.086  0.00  0.00     0.309 C 
HETATM    8  C   UNK N   1      40.279  21.346   2.295  0.00  0.00     0.309 C 
ENDBRANCH   5   6
ENDBRANCH   4   5
ENDBRANCH   3   4
ENDBRANCH   1   3
BRANCH   1   9
HETATM    9  O   UNK N   1      45.481  22.739   3.756  0.00  0.00    -0.307 OA
HETATM   10  H   UNK N   1      45.686  22.137   4.489  0.00  0.00     0.222 HD
ENDBRANCH   1   9
BRANCH   1  11
HETATM   11  O   UNK N   1      44.884  24.450   2.941  0.00  0.00    -0.195 OA
BRANCH  11  12
HETATM   12  P   UNK N   1      45.617  25.184   1.543  0.00  0.00     0.399 P 
HETATM   13  O   UNK N   1      46.751  25.256   2.599  0.00  0.00    -0.631 OA
BRANCH  12  14
HETATM   14  O   UNK N   1      46.948  24.402   0.751  0.00  0.00    -0.307 OA
HETATM   15  H   UNK N   1      46.818  23.685   0.112  0.00  0.00     0.222 HD
ENDBRANCH  12  14
BRANCH  12  16
HETATM   16  O   UNK N   1      45.228  23.529   1.191  0.00  0.00    -0.307 OA
HETATM   17  H   UNK N   1      45.055  23.093   0.342  0.00  0.00     0.222 HD
ENDBRANCH  12  16
ENDBRANCH  11  12
ENDBRANCH   1  11
TORSDOF 9
ENDMDL
MODEL 9
REMARK VINA RESULT:      -4.4      1.279      1.749
REMARK  9 active torsions:
REMARK  status: ('A' for Active; 'I' for Inactive)
REMARK    1  A    between atoms: N_2  and  C_4 
REMARK    2  A    between atoms: C_4  and  C_5 
REMARK    3  A    between atoms: C_5  and  O_6 
REMARK    4  A    between atoms: P_7  and  O_6 
REMARK    5  A    between atoms: P_7  and  O_8 
REMARK    6  A    between atoms: P_7  and  O_10 
REMARK    7  A    between atoms: O_10  and  P_11 
REMARK    8  A    between atoms: P_11  and  O_12 
REMARK    9  A    between atoms: P_11  and  O_13 
ROOT
HETATM    1  P   UNK N   1      35.024  15.725  10.391  0.00  0.00     0.401 P 
HETATM    2  O   UNK N   1      36.492  15.442   9.975  0.00  0.00    -0.631 OA
ENDROOT
BRANCH   1   3
HETATM    3  O   UNK N   1      35.450  17.126   9.456  0.00  0.00    -0.295 OA
BRANCH   3   4
HETATM    4  C   UNK N   1      34.307  17.461   8.729  0.00  0.00     0.211 C 
BRANCH   4   5
HETATM    5  C   UNK N   1      33.636  16.185   8.252  0.00  0.00     0.298 C 
BRANCH   5   6
HETATM    6  N   UNK N   1      33.634  16.116   6.799  0.00  0.00     0.082 N 
HETATM    7  C   UNK N   1      34.872  15.470   6.405  0.00  0.00     0.309 C 
HETATM    8  C   UNK N   1      33.695  17.477   6.287  0.00  0.00     0.309 C 
ENDBRANCH   5   6
ENDBRANCH   4   5
ENDBRANCH   3   4
ENDBRANCH   1   3
BRANCH   1   9
HETATM    9  O   UNK N   1      34.909  17.159  11.363  0.00  0.00    -0.307 OA
HETATM   10  H   UNK N   1      34.396  17.502  12.111  0.00  0.00     0.222 HD
ENDBRANCH   1   9
BRANCH   1  11
HETATM   11  O   UNK N   1      35.807  15.478  11.927  0.00  0.00    -0.195 OA
BRANCH  11  12
HETATM   12  P   UNK N   1      35.710  13.769  12.239  0.00  0.00     0.399 P 
HETATM   13  O   UNK N   1      36.022  14.352  13.642  0.00  0.00    -0.631 OA
BRANCH  12  14
HETATM   14  O   UNK N   1      34.429  13.138  13.225  0.00  0.00    -0.307 OA
HETATM   15  H   UNK N   1      33.703  13.695  13.545  0.00  0.00     0.222 HD
ENDBRANCH  12  14
BRANCH  12  16
HETATM   16  O   UNK N   1      34.171  14.343  11.677  0.00  0.00    -0.307 OA
HETATM   17  H   UNK N   1      33.465  13.878  11.203  0.00  0.00     0.222 HD
ENDBRANCH  12  16
ENDBRANCH  11  12
ENDBRANCH   1  11
TORSDOF 9
ENDMDL
