MODEL 1
REMARK VINA RESULT:      -8.3      0.000      0.000
REMARK  26 active torsions:
REMARK  status: ('A' for Active; 'I' for Inactive)
REMARK    1  A    between atoms: C_10  and  C_4 
REMARK    2  A    between atoms: O_47  and  C_4 
REMARK    3  A    between atoms: C_11  and  C_5 
REMARK    4  A    between atoms: O_48  and  C_5 
REMARK    5  A    between atoms: C_9  and  O_32 
REMARK    6  A    between atoms: C_12  and  N_30 
REMARK    7  A    between atoms: C_14  and  O_33 
REMARK    8  A    between atoms: C_15  and  O_34 
REMARK    9  A    between atoms: N_21  and  C_16 
REMARK   10  A    between atoms: O_35  and  C_18 
REMARK   11  A    between atoms: C_19  and  N_31 
REMARK   12  A    between atoms: P_55  and  O_37 
REMARK   13  A    between atoms: P_56  and  O_39 
REMARK   14  A    between atoms: P_57  and  O_41 
REMARK   15  A    between atoms: P_58  and  O_43 
REMARK   16  A    between atoms: P_59  and  O_45 
REMARK   17  A    between atoms: P_55  and  O_47 
REMARK   18  A    between atoms: P_56  and  O_48 
REMARK   19  A    between atoms: P_55  and  O_51 
REMARK   20  A    between atoms: P_57  and  O_51 
REMARK   21  A    between atoms: P_56  and  O_52 
REMARK   22  A    between atoms: P_58  and  O_52 
REMARK   23  A    between atoms: P_57  and  O_53 
REMARK   24  A    between atoms: P_59  and  O_53 
REMARK   25  A    between atoms: P_58  and  O_54 
REMARK   26  A    between atoms: P_59  and  O_54 
ROOT
HETATM    1  O   UNK N   1      32.729  17.744   8.958  0.00  0.00    -0.195 OA
ENDROOT
BRANCH   1   2
HETATM    2  P   UNK N   1      31.821  16.812   7.783  0.00  0.00     0.410 P 
HETATM    3  O   UNK N   1      30.310  17.135   7.922  0.00  0.00    -0.631 OA
BRANCH   2   4
HETATM    4  O   UNK N   1      31.957  15.116   8.123  0.00  0.00    -0.307 OA
HETATM    5  H   UNK N   1      32.061  14.173   7.918  0.00  0.00     0.222 HD
ENDBRANCH   2   4
BRANCH   2   6
HETATM    6  O   UNK N   1      32.274  17.145   6.134  0.00  0.00    -0.195 OA
BRANCH   6   7
HETATM    7  P   UNK N   1      30.983  16.535   5.136  0.00  0.00     0.401 P 
HETATM    8  O   UNK N   1      31.633  16.115   3.792  0.00  0.00    -0.631 OA
BRANCH   7   9
HETATM    9  O   UNK N   1      30.288  15.081   5.787  0.00  0.00    -0.307 OA
HETATM   10  H   UNK N   1      29.711  14.806   6.517  0.00  0.00     0.222 HD
ENDBRANCH   7   9
BRANCH   7  11
HETATM   11  O   UNK N   1      29.782  17.737   4.744  0.00  0.00    -0.294 OA
BRANCH  11  12
HETATM   12  C   UNK N   1      28.577  17.038   4.814  0.00  0.00     0.215 C 
BRANCH  12  13
HETATM   13  C   UNK N   1      27.416  17.897   5.273  0.00  0.00     0.180 C 
HETATM   14  C   UNK N   1      27.836  19.268   5.796  0.00  0.00     0.182 C 
HETATM   15  C   UNK N   1      26.522  19.957   5.658  0.00  0.00     0.198 C 
HETATM   16  C   UNK N   1      26.178  19.492   4.244  0.00  0.00     0.262 C 
HETATM   17  O   UNK N   1      26.545  18.124   4.179  0.00  0.00    -0.353 OA
BRANCH  14  18
HETATM   18  O   UNK N   1      28.296  19.229   7.114  0.00  0.00    -0.390 OA
HETATM   19  H   UNK N   1      28.712  18.446   7.508  0.00  0.00     0.210 HD
ENDBRANCH  14  18
BRANCH  15  20
HETATM   20  O   UNK N   1      26.624  21.346   5.769  0.00  0.00    -0.388 OA
HETATM   21  H   UNK N   1      27.178  22.142   5.763  0.00  0.00     0.210 HD
ENDBRANCH  15  20
BRANCH  16  22
HETATM   22  N   UNK N   1      24.771  19.655   3.862  0.00  0.00    -0.297 N 
HETATM   23  C   UNK N   1      24.340  20.505   2.891  0.00  0.00     0.188 A 
HETATM   24  N   UNK N   1      22.989  20.443   2.735  0.00  0.00    -0.346 N 
HETATM   25  C   UNK N   1      22.591  19.527   3.635  0.00  0.00     0.122 A 
ATOM     26  HN  UNK N   1      22.409  20.973   2.083  1.00  0.00     0.167 HD
HETATM   27  C   UNK N   1      21.321  19.049   3.911  0.00  0.00     0.131 A 
HETATM   28  C   UNK N   1      23.656  19.057   4.314  0.00  0.00     0.142 A 
HETATM   29  N   UNK N   1      21.192  18.096   4.881  0.00  0.00    -0.337 N 
HETATM   30  C   UNK N   1      22.290  17.630   5.563  0.00  0.00     0.183 A 
ATOM     31  HN  UNK N   1      20.268  17.725   5.102  1.00  0.00     0.168 HD
HETATM   32  N   UNK N   1      23.537  18.114   5.280  0.00  0.00    -0.336 N 
ATOM     33  HN  UNK N   1      24.357  17.774   5.782  1.00  0.00     0.168 HD
BRANCH  27  34
HETATM   34  N   UNK N   1      20.194  19.520   3.211  0.00  0.00    -0.383 N 
HETATM   35  H   UNK N   1      19.289  19.256   3.497  0.00  0.00     0.157 HD
HETATM   36  H   UNK N   1      20.309  20.116   2.436  0.00  0.00     0.157 HD
ENDBRANCH  27  34
ENDBRANCH  16  22
ENDBRANCH  12  13
ENDBRANCH  11  12
ENDBRANCH   7  11
ENDBRANCH   6   7
ENDBRANCH   2   6
ENDBRANCH   1   2
BRANCH   1  37
HETATM   37  P   UNK N   1      34.423  17.526   8.618  0.00  0.00     0.410 P 
HETATM   38  O   UNK N   1      34.955  18.798   7.904  0.00  0.00    -0.631 OA
BRANCH  37  39
HETATM   39  O   UNK N   1      34.724  16.199   7.539  0.00  0.00    -0.307 OA
HETATM   40  H   UNK N   1      35.062  15.319   7.769  0.00  0.00     0.222 HD
ENDBRANCH  37  39
BRANCH  37  41
HETATM   41  O   UNK N   1      35.338  17.365  10.073  0.00  0.00    -0.195 OA
BRANCH  41  42
HETATM   42  P   UNK N   1      35.195  15.712  10.628  0.00  0.00     0.410 P 
HETATM   43  O   UNK N   1      35.736  15.676  12.083  0.00  0.00    -0.631 OA
BRANCH  42  44
HETATM   44  O   UNK N   1      33.566  15.112  10.687  0.00  0.00    -0.307 OA
HETATM   45  H   UNK N   1      33.130  14.810   9.874  0.00  0.00     0.222 HD
ENDBRANCH  42  44
BRANCH  42  46
HETATM   46  O   UNK N   1      36.225  14.640   9.712  0.00  0.00    -0.195 OA
BRANCH  46  47
HETATM   47  P   UNK N   1      35.348  13.145   9.497  0.00  0.00     0.401 P 
HETATM   48  O   UNK N   1      36.331  12.151   8.820  0.00  0.00    -0.631 OA
BRANCH  47  49
HETATM   49  O   UNK N   1      34.027  13.327   8.389  0.00  0.00    -0.307 OA
HETATM   50  H   UNK N   1      33.802  12.614   7.769  0.00  0.00     0.222 HD
ENDBRANCH  47  49
BRANCH  47  51
HETATM   51  O   UNK N   1      34.841  12.388  10.989  0.00  0.00    -0.294 OA
BRANCH  51  52
HETATM   52  C   UNK N   1      35.999  11.982  11.669  0.00  0.00     0.215 C 
BRANCH  52  53
HETATM   53  C   UNK N   1      35.615  11.150  12.879  0.00  0.00     0.177 C 
HETATM   54  C   UNK N   1      34.132  10.787  12.858  0.00  0.00     0.153 C 
HETATM   55  C   UNK N   1      33.864  10.700  14.319  0.00  0.00     0.088 C 
HETATM   56  C   UNK N   1      34.659  11.921  14.770  0.00  0.00     0.235 C 
HETATM   57  O   UNK N   1      35.869  11.895  14.050  0.00  0.00    -0.356 OA
BRANCH  54  58
HETATM   58  O   UNK N   1      33.882   9.590  12.188  0.00  0.00    -0.393 OA
HETATM   59  H   UNK N   1      33.929   8.684  12.532  0.00  0.00     0.210 HD
ENDBRANCH  54  58
BRANCH  56  60
HETATM   60  N   UNK N   1      34.931  12.048  16.215  0.00  0.00    -0.282 N 
HETATM   61  C   UNK N   1      34.956  13.320  16.709  0.00  0.00     0.109 A 
HETATM   62  C   UNK N   1      35.165  13.566  18.058  0.00  0.00     0.005 A 
HETATM   63  C   UNK N   1      35.183  14.970  18.561  0.00  0.00     0.054 C 
HETATM   64  C   UNK N   1      35.346  12.485  18.917  0.00  0.00     0.151 A 
HETATM   65  N   UNK N   1      35.327  11.223  18.422  0.00  0.00    -0.288 N 
HETATM   66  C   UNK N   1      35.125  10.984  17.088  0.00  0.00     0.330 A 
ATOM     67  HN  UNK N   1      35.467  10.435  19.055  1.00  0.00     0.172 HD
HETATM   68  O   UNK N   1      35.110   9.832  16.693  0.00  0.00    -0.246 OA
BRANCH  64  69
HETATM   69  O   UNK N   1      35.537  12.682  20.233  0.00  0.00    -0.346 OA
HETATM   70  H   UNK N   1      36.317  12.370  20.647  0.00  0.00     0.219 HD
ENDBRANCH  64  69
ENDBRANCH  56  60
ENDBRANCH  52  53
ENDBRANCH  51  52
ENDBRANCH  47  51
ENDBRANCH  46  47
ENDBRANCH  42  46
ENDBRANCH  41  42
ENDBRANCH  37  41
ENDBRANCH   1  37
TORSDOF 26
ENDMDL
MODEL 2
REMARK VINA RESULT:      -8.0      7.693     14.149
REMARK  26 active torsions:
REMARK  status: ('A' for Active; 'I' for Inactive)
REMARK    1  A    between atoms: C_10  and  C_4 
REMARK    2  A    between atoms: O_47  and  C_4 
REMARK    3  A    between atoms: C_11  and  C_5 
REMARK    4  A    between atoms: O_48  and  C_5 
REMARK    5  A    between atoms: C_9  and  O_32 
REMARK    6  A    between atoms: C_12  and  N_30 
REMARK    7  A    between atoms: C_14  and  O_33 
REMARK    8  A    between atoms: C_15  and  O_34 
REMARK    9  A    between atoms: N_21  and  C_16 
REMARK   10  A    between atoms: O_35  and  C_18 
REMARK   11  A    between atoms: C_19  and  N_31 
REMARK   12  A    between atoms: P_55  and  O_37 
REMARK   13  A    between atoms: P_56  and  O_39 
REMARK   14  A    between atoms: P_57  and  O_41 
REMARK   15  A    between atoms: P_58  and  O_43 
REMARK   16  A    between atoms: P_59  and  O_45 
REMARK   17  A    between atoms: P_55  and  O_47 
REMARK   18  A    between atoms: P_56  and  O_48 
REMARK   19  A    between atoms: P_55  and  O_51 
REMARK   20  A    between atoms: P_57  and  O_51 
REMARK   21  A    between atoms: P_56  and  O_52 
REMARK   22  A    between atoms: P_58  and  O_52 
REMARK   23  A    between atoms: P_57  and  O_53 
REMARK   24  A    between atoms: P_59  and  O_53 
REMARK   25  A    between atoms: P_58  and  O_54 
REMARK   26  A    between atoms: P_59  and  O_54 
ROOT
HETATM    1  O   UNK N   1      22.135  13.640   5.232  0.00  0.00    -0.195 OA
ENDROOT
BRANCH   1   2
HETATM    2  P   UNK N   1      23.520  12.719   4.677  0.00  0.00     0.410 P 
HETATM    3  O   UNK N   1      23.034  11.405   4.011  0.00  0.00    -0.631 OA
BRANCH   2   4
HETATM    4  O   UNK N   1      24.487  12.213   6.027  0.00  0.00    -0.307 OA
HETATM    5  H   UNK N   1      25.104  12.320   6.769  0.00  0.00     0.222 HD
ENDBRANCH   2   4
BRANCH   2   6
HETATM    6  O   UNK N   1      24.495  13.566   3.508  0.00  0.00    -0.195 OA
BRANCH   6   7
HETATM    7  P   UNK N   1      25.046  15.022   4.289  0.00  0.00     0.401 P 
HETATM    8  O   UNK N   1      24.678  16.191   3.339  0.00  0.00    -0.631 OA
BRANCH   7   9
HETATM    9  O   UNK N   1      24.183  15.336   5.765  0.00  0.00    -0.307 OA
HETATM   10  H   UNK N   1      24.320  15.270   6.724  0.00  0.00     0.222 HD
ENDBRANCH   7   9
BRANCH   7  11
HETATM   11  O   UNK N   1      26.777  15.087   4.495  0.00  0.00    -0.294 OA
BRANCH  11  12
HETATM   12  C   UNK N   1      27.157  16.203   3.751  0.00  0.00     0.215 C 
BRANCH  12  13
HETATM   13  C   UNK N   1      27.893  17.243   4.572  0.00  0.00     0.180 C 
HETATM   14  C   UNK N   1      26.973  18.266   5.232  0.00  0.00     0.182 C 
HETATM   15  C   UNK N   1      27.913  18.747   6.284  0.00  0.00     0.198 C 
HETATM   16  C   UNK N   1      28.408  17.387   6.774  0.00  0.00     0.262 C 
HETATM   17  O   UNK N   1      28.603  16.597   5.613  0.00  0.00    -0.353 OA
BRANCH  14  18
HETATM   18  O   UNK N   1      26.568  19.278   4.359  0.00  0.00    -0.390 OA
HETATM   19  H   UNK N   1      25.784  19.205   3.790  0.00  0.00     0.210 HD
ENDBRANCH  14  18
BRANCH  15  20
HETATM   20  O   UNK N   1      27.278  19.492   7.281  0.00  0.00    -0.388 OA
HETATM   21  H   UNK N   1      26.456  19.831   7.668  0.00  0.00     0.210 HD
ENDBRANCH  15  20
BRANCH  16  22
HETATM   22  N   UNK N   1      29.638  17.424   7.572  0.00  0.00    -0.297 N 
HETATM   23  C   UNK N   1      29.662  17.494   8.930  0.00  0.00     0.188 A 
HETATM   24  N   UNK N   1      30.938  17.500   9.409  0.00  0.00    -0.346 N 
HETATM   25  C   UNK N   1      31.706  17.428   8.308  0.00  0.00     0.122 A 
ATOM     26  HN  UNK N   1      31.241  17.548  10.381  1.00  0.00     0.167 HD
HETATM   27  C   UNK N   1      33.086  17.385   8.192  0.00  0.00     0.131 A 
HETATM   28  C   UNK N   1      30.931  17.387   7.207  0.00  0.00     0.142 A 
HETATM   29  N   UNK N   1      33.621  17.301   6.938  0.00  0.00    -0.337 N 
HETATM   30  C   UNK N   1      32.813  17.261   5.827  0.00  0.00     0.183 A 
ATOM     31  HN  UNK N   1      34.634  17.265   6.825  1.00  0.00     0.168 HD
HETATM   32  N   UNK N   1      31.453  17.305   5.958  0.00  0.00    -0.336 N 
ATOM     33  HN  UNK N   1      30.846  17.278   5.139  1.00  0.00     0.168 HD
BRANCH  27  34
HETATM   34  N   UNK N   1      33.917  17.421   9.328  0.00  0.00    -0.383 N 
HETATM   35  H   UNK N   1      34.896  17.452   9.222  0.00  0.00     0.157 HD
HETATM   36  H   UNK N   1      33.520  17.415  10.228  0.00  0.00     0.157 HD
ENDBRANCH  27  34
ENDBRANCH  16  22
ENDBRANCH  12  13
ENDBRANCH  11  12
ENDBRANCH   7  11
ENDBRANCH   6   7
ENDBRANCH   2   6
ENDBRANCH   1   2
BRANCH   1  37
HETATM   37  P   UNK N   1      21.078  12.553   6.088  0.00  0.00     0.410 P 
HETATM   38  O   UNK N   1      21.944  11.519   6.855  0.00  0.00    -0.631 OA
BRANCH  37  39
HETATM   39  O   UNK N   1      20.055  11.639   5.024  0.00  0.00    -0.307 OA
HETATM   40  H   UNK N   1      20.314  10.905   4.445  0.00  0.00     0.222 HD
ENDBRANCH  37  39
BRANCH  37  41
HETATM   41  O   UNK N   1      20.149  13.390   7.277  0.00  0.00    -0.195 OA
BRANCH  41  42
HETATM   42  P   UNK N   1      21.240  13.969   8.516  0.00  0.00     0.410 P 
HETATM   43  O   UNK N   1      21.188  12.941   9.679  0.00  0.00    -0.631 OA
BRANCH  42  44
HETATM   44  O   UNK N   1      22.900  14.076   8.019  0.00  0.00    -0.307 OA
HETATM   45  H   UNK N   1      23.393  13.270   7.794  0.00  0.00     0.222 HD
ENDBRANCH  42  44
BRANCH  42  46
HETATM   46  O   UNK N   1      20.691  15.481   9.194  0.00  0.00    -0.195 OA
BRANCH  46  47
HETATM   47  P   UNK N   1      20.454  16.586   7.862  0.00  0.00     0.401 P 
HETATM   48  O   UNK N   1      19.967  17.925   8.480  0.00  0.00    -0.631 OA
BRANCH  47  49
HETATM   49  O   UNK N   1      19.178  16.062   6.811  0.00  0.00    -0.307 OA
HETATM   50  H   UNK N   1      19.378  15.723   5.924  0.00  0.00     0.222 HD
ENDBRANCH  47  49
BRANCH  47  51
HETATM   51  O   UNK N   1      21.911  16.961   6.972  0.00  0.00    -0.294 OA
BRANCH  51  52
HETATM   52  C   UNK N   1      21.657  18.117   6.219  0.00  0.00     0.215 C 
BRANCH  52  53
HETATM   53  C   UNK N   1      21.824  17.811   4.742  0.00  0.00     0.177 C 
HETATM   54  C   UNK N   1      20.874  18.649   3.888  0.00  0.00     0.153 C 
HETATM   55  C   UNK N   1      20.670  17.723   2.740  0.00  0.00     0.088 C 
HETATM   56  C   UNK N   1      20.538  16.419   3.521  0.00  0.00     0.235 C 
HETATM   57  O   UNK N   1      21.533  16.450   4.517  0.00  0.00    -0.356 OA
BRANCH  54  58
HETATM   58  O   UNK N   1      21.430  19.870   3.508  0.00  0.00    -0.393 OA
HETATM   59  H   UNK N   1      20.975  20.684   3.239  0.00  0.00     0.210 HD
ENDBRANCH  54  58
BRANCH  56  60
HETATM   60  N   UNK N   1      20.629  15.165   2.749  0.00  0.00    -0.282 N 
HETATM   61  C   UNK N   1      21.722  15.040   1.940  0.00  0.00     0.109 A 
HETATM   62  C   UNK N   1      21.938  13.891   1.191  0.00  0.00     0.005 A 
HETATM   63  C   UNK N   1      23.144  13.791   0.321  0.00  0.00     0.054 C 
HETATM   64  C   UNK N   1      21.019  12.850   1.280  0.00  0.00     0.151 A 
HETATM   65  N   UNK N   1      19.931  12.980   2.080  0.00  0.00    -0.288 N 
HETATM   66  C   UNK N   1      19.719  14.118   2.814  0.00  0.00     0.330 A 
ATOM     67  HN  UNK N   1      19.257  12.217   2.136  1.00  0.00     0.172 HD
HETATM   68  O   UNK N   1      18.730  14.184   3.522  0.00  0.00    -0.246 OA
BRANCH  64  69
HETATM   69  O   UNK N   1      21.200  11.715   0.583  0.00  0.00    -0.346 OA
HETATM   70  H   UNK N   1      21.711  11.722  -0.202  0.00  0.00     0.219 HD
ENDBRANCH  64  69
ENDBRANCH  56  60
ENDBRANCH  52  53
ENDBRANCH  51  52
ENDBRANCH  47  51
ENDBRANCH  46  47
ENDBRANCH  42  46
ENDBRANCH  41  42
ENDBRANCH  37  41
ENDBRANCH   1  37
TORSDOF 26
ENDMDL
MODEL 3
REMARK VINA RESULT:      -7.9      6.600     12.934
REMARK  26 active torsions:
REMARK  status: ('A' for Active; 'I' for Inactive)
REMARK    1  A    between atoms: C_10  and  C_4 
REMARK    2  A    between atoms: O_47  and  C_4 
REMARK    3  A    between atoms: C_11  and  C_5 
REMARK    4  A    between atoms: O_48  and  C_5 
REMARK    5  A    between atoms: C_9  and  O_32 
REMARK    6  A    between atoms: C_12  and  N_30 
REMARK    7  A    between atoms: C_14  and  O_33 
REMARK    8  A    between atoms: C_15  and  O_34 
REMARK    9  A    between atoms: N_21  and  C_16 
REMARK   10  A    between atoms: O_35  and  C_18 
REMARK   11  A    between atoms: C_19  and  N_31 
REMARK   12  A    between atoms: P_55  and  O_37 
REMARK   13  A    between atoms: P_56  and  O_39 
REMARK   14  A    between atoms: P_57  and  O_41 
REMARK   15  A    between atoms: P_58  and  O_43 
REMARK   16  A    between atoms: P_59  and  O_45 
REMARK   17  A    between atoms: P_55  and  O_47 
REMARK   18  A    between atoms: P_56  and  O_48 
REMARK   19  A    between atoms: P_55  and  O_51 
REMARK   20  A    between atoms: P_57  and  O_51 
REMARK   21  A    between atoms: P_56  and  O_52 
REMARK   22  A    between atoms: P_58  and  O_52 
REMARK   23  A    between atoms: P_57  and  O_53 
REMARK   24  A    between atoms: P_59  and  O_53 
REMARK   25  A    between atoms: P_58  and  O_54 
REMARK   26  A    between atoms: P_59  and  O_54 
ROOT
HETATM    1  O   UNK N   1      24.989  18.038   3.140  0.00  0.00    -0.195 OA
ENDROOT
BRANCH   1   2
HETATM    2  P   UNK N   1      25.105  16.473   3.922  0.00  0.00     0.410 P 
HETATM    3  O   UNK N   1      23.709  15.797   3.939  0.00  0.00    -0.631 OA
BRANCH   2   4
HETATM    4  O   UNK N   1      25.538  16.664   5.593  0.00  0.00    -0.307 OA
HETATM    5  H   UNK N   1      25.503  17.051   6.482  0.00  0.00     0.222 HD
ENDBRANCH   2   4
BRANCH   2   6
HETATM    6  O   UNK N   1      26.204  15.379   3.127  0.00  0.00    -0.195 OA
BRANCH   6   7
HETATM    7  P   UNK N   1      27.799  15.782   3.698  0.00  0.00     0.401 P 
HETATM    8  O   UNK N   1      28.088  14.832   4.889  0.00  0.00    -0.631 OA
BRANCH   7   9
HETATM    9  O   UNK N   1      29.023  15.426   2.515  0.00  0.00    -0.307 OA
HETATM   10  H   UNK N   1      29.346  14.672   1.998  0.00  0.00     0.222 HD
ENDBRANCH   7   9
BRANCH   7  11
HETATM   11  O   UNK N   1      27.922  17.404   4.326  0.00  0.00    -0.294 OA
BRANCH  11  12
HETATM   12  C   UNK N   1      29.292  17.578   4.528  0.00  0.00     0.215 C 
BRANCH  12  13
HETATM   13  C   UNK N   1      29.650  17.849   5.976  0.00  0.00     0.180 C 
HETATM   14  C   UNK N   1      28.466  17.736   6.932  0.00  0.00     0.182 C 
HETATM   15  C   UNK N   1      29.234  17.553   8.196  0.00  0.00     0.198 C 
HETATM   16  C   UNK N   1      30.222  16.498   7.702  0.00  0.00     0.262 C 
HETATM   17  O   UNK N   1      30.615  16.904   6.402  0.00  0.00    -0.353 OA
BRANCH  14  18
HETATM   18  O   UNK N   1      27.663  18.879   6.942  0.00  0.00    -0.390 OA
HETATM   19  H   UNK N   1      27.679  19.544   6.236  0.00  0.00     0.210 HD
ENDBRANCH  14  18
BRANCH  15  20
HETATM   20  O   UNK N   1      28.439  17.107   9.255  0.00  0.00    -0.388 OA
HETATM   21  H   UNK N   1      28.134  16.375   9.814  0.00  0.00     0.210 HD
ENDBRANCH  15  20
BRANCH  16  22
HETATM   22  N   UNK N   1      31.404  16.309   8.549  0.00  0.00    -0.297 N 
HETATM   23  C   UNK N   1      31.511  15.343   9.501  0.00  0.00     0.188 A 
HETATM   24  N   UNK N   1      32.720  15.387  10.126  0.00  0.00    -0.346 N 
HETATM   25  C   UNK N   1      33.364  16.407   9.533  0.00  0.00     0.122 A 
ATOM     26  HN  UNK N   1      33.060  14.783  10.875  1.00  0.00     0.167 HD
HETATM   27  C   UNK N   1      34.639  16.900   9.757  0.00  0.00     0.131 A 
HETATM   28  C   UNK N   1      32.577  16.963   8.592  0.00  0.00     0.142 A 
HETATM   29  N   UNK N   1      35.061  17.954   8.997  0.00  0.00    -0.337 N 
HETATM   30  C   UNK N   1      34.242  18.508   8.043  0.00  0.00     0.183 A 
ATOM     31  HN  UNK N   1      35.996  18.334   9.140  1.00  0.00     0.168 HD
HETATM   32  N   UNK N   1      32.985  18.011   7.835  0.00  0.00    -0.336 N 
ATOM     33  HN  UNK N   1      32.372  18.417   7.129  1.00  0.00     0.168 HD
BRANCH  27  34
HETATM   34  N   UNK N   1      35.483  16.332  10.731  0.00  0.00    -0.383 N 
HETATM   35  H   UNK N   1      36.183  16.878  11.156  0.00  0.00     0.157 HD
HETATM   36  H   UNK N   1      35.373  15.388  10.987  0.00  0.00     0.157 HD
ENDBRANCH  27  34
ENDBRANCH  16  22
ENDBRANCH  12  13
ENDBRANCH  11  12
ENDBRANCH   7  11
ENDBRANCH   6   7
ENDBRANCH   2   6
ENDBRANCH   1   2
BRANCH   1  37
HETATM   37  P   UNK N   1      24.137  19.110   4.215  0.00  0.00     0.410 P 
HETATM   38  O   UNK N   1      25.171  19.836   5.116  0.00  0.00    -0.631 OA
BRANCH  37  39
HETATM   39  O   UNK N   1      23.062  18.267   5.288  0.00  0.00    -0.307 OA
HETATM   40  H   UNK N   1      23.014  17.310   5.439  0.00  0.00     0.222 HD
ENDBRANCH  37  39
BRANCH  37  41
HETATM   41  O   UNK N   1      23.301  20.341   3.340  0.00  0.00    -0.195 OA
BRANCH  41  42
HETATM   42  P   UNK N   1      21.697  19.753   2.965  0.00  0.00     0.410 P 
HETATM   43  O   UNK N   1      20.753  20.273   4.082  0.00  0.00    -0.631 OA
BRANCH  42  44
HETATM   44  O   UNK N   1      21.053  20.331   1.459  0.00  0.00    -0.307 OA
HETATM   45  H   UNK N   1      20.341  20.991   1.456  0.00  0.00     0.222 HD
ENDBRANCH  42  44
BRANCH  42  46
HETATM   46  O   UNK N   1      21.621  18.011   3.051  0.00  0.00    -0.195 OA
BRANCH  46  47
HETATM   47  P   UNK N   1      20.061  17.534   2.426  0.00  0.00     0.401 P 
HETATM   48  O   UNK N   1      20.281  17.147   0.938  0.00  0.00    -0.631 OA
BRANCH  47  49
HETATM   49  O   UNK N   1      18.943  18.860   2.406  0.00  0.00    -0.307 OA
HETATM   50  H   UNK N   1      18.050  18.757   2.773  0.00  0.00     0.222 HD
ENDBRANCH  47  49
BRANCH  47  51
HETATM   51  O   UNK N   1      19.377  16.124   3.201  0.00  0.00    -0.294 OA
BRANCH  51  52
HETATM   52  C   UNK N   1      20.445  15.343   3.668  0.00  0.00     0.215 C 
BRANCH  52  53
HETATM   53  C   UNK N   1      20.123  14.814   5.054  0.00  0.00     0.177 C 
HETATM   54  C   UNK N   1      19.494  15.896   5.930  0.00  0.00     0.153 C 
HETATM   55  C   UNK N   1      19.961  15.448   7.271  0.00  0.00     0.088 C 
HETATM   56  C   UNK N   1      21.391  15.070   6.900  0.00  0.00     0.235 C 
HETATM   57  O   UNK N   1      21.315  14.384   5.673  0.00  0.00    -0.356 OA
BRANCH  54  58
HETATM   58  O   UNK N   1      18.104  15.932   5.824  0.00  0.00    -0.393 OA
HETATM   59  H   UNK N   1      17.539  16.673   5.553  0.00  0.00     0.210 HD
ENDBRANCH  54  58
BRANCH  56  60
HETATM   60  N   UNK N   1      22.149  14.271   7.883  0.00  0.00    -0.282 N 
HETATM   61  C   UNK N   1      21.427  13.767   8.926  0.00  0.00     0.109 A 
HETATM   62  C   UNK N   1      22.020  12.970   9.896  0.00  0.00     0.005 A 
HETATM   63  C   UNK N   1      21.199  12.435  11.019  0.00  0.00     0.054 C 
HETATM   64  C   UNK N   1      23.378  12.680   9.787  0.00  0.00     0.151 A 
HETATM   65  N   UNK N   1      24.093  13.189   8.753  0.00  0.00    -0.288 N 
HETATM   66  C   UNK N   1      23.505  13.979   7.801  0.00  0.00     0.330 A 
ATOM     67  HN  UNK N   1      25.089  12.980   8.683  1.00  0.00     0.172 HD
HETATM   68  O   UNK N   1      24.188  14.406   6.888  0.00  0.00    -0.246 OA
BRANCH  64  69
HETATM   69  O   UNK N   1      23.986  11.901  10.698  0.00  0.00    -0.346 OA
HETATM   70  H   UNK N   1      24.916  11.793  10.680  0.00  0.00     0.219 HD
ENDBRANCH  64  69
ENDBRANCH  56  60
ENDBRANCH  52  53
ENDBRANCH  51  52
ENDBRANCH  47  51
ENDBRANCH  46  47
ENDBRANCH  42  46
ENDBRANCH  41  42
ENDBRANCH  37  41
ENDBRANCH   1  37
TORSDOF 26
ENDMDL
MODEL 4
REMARK VINA RESULT:      -7.9      2.025      3.988
REMARK  26 active torsions:
REMARK  status: ('A' for Active; 'I' for Inactive)
REMARK    1  A    between atoms: C_10  and  C_4 
REMARK    2  A    between atoms: O_47  and  C_4 
REMARK    3  A    between atoms: C_11  and  C_5 
REMARK    4  A    between atoms: O_48  and  C_5 
REMARK    5  A    between atoms: C_9  and  O_32 
REMARK    6  A    between atoms: C_12  and  N_30 
REMARK    7  A    between atoms: C_14  and  O_33 
REMARK    8  A    between atoms: C_15  and  O_34 
REMARK    9  A    between atoms: N_21  and  C_16 
REMARK   10  A    between atoms: O_35  and  C_18 
REMARK   11  A    between atoms: C_19  and  N_31 
REMARK   12  A    between atoms: P_55  and  O_37 
REMARK   13  A    between atoms: P_56  and  O_39 
REMARK   14  A    between atoms: P_57  and  O_41 
REMARK   15  A    between atoms: P_58  and  O_43 
REMARK   16  A    between atoms: P_59  and  O_45 
REMARK   17  A    between atoms: P_55  and  O_47 
REMARK   18  A    between atoms: P_56  and  O_48 
REMARK   19  A    between atoms: P_55  and  O_51 
REMARK   20  A    between atoms: P_57  and  O_51 
REMARK   21  A    between atoms: P_56  and  O_52 
REMARK   22  A    between atoms: P_58  and  O_52 
REMARK   23  A    between atoms: P_57  and  O_53 
REMARK   24  A    between atoms: P_59  and  O_53 
REMARK   25  A    between atoms: P_58  and  O_54 
REMARK   26  A    between atoms: P_59  and  O_54 
ROOT
HETATM    1  O   UNK N   1      36.840  15.127   9.445  0.00  0.00    -0.195 OA
ENDROOT
BRANCH   1   2
HETATM    2  P   UNK N   1      35.236  15.504  10.044  0.00  0.00     0.410 P 
HETATM    3  O   UNK N   1      35.045  14.871  11.448  0.00  0.00    -0.631 OA
BRANCH   2   4
HETATM    4  O   UNK N   1      34.028  14.763   9.042  0.00  0.00    -0.307 OA
HETATM    5  H   UNK N   1      33.526  14.032   8.647  0.00  0.00     0.222 HD
ENDBRANCH   2   4
BRANCH   2   6
HETATM    6  O   UNK N   1      34.937  17.214  10.200  0.00  0.00    -0.195 OA
BRANCH   6   7
HETATM    7  P   UNK N   1      34.352  17.754   8.651  0.00  0.00     0.401 P 
HETATM    8  O   UNK N   1      35.072  19.097   8.359  0.00  0.00    -0.631 OA
BRANCH   7   9
HETATM    9  O   UNK N   1      34.827  16.685   7.366  0.00  0.00    -0.307 OA
HETATM   10  H   UNK N   1      34.418  16.107   6.703  0.00  0.00     0.222 HD
ENDBRANCH   7   9
BRANCH   7  11
HETATM   11  O   UNK N   1      32.643  18.104   8.638  0.00  0.00    -0.294 OA
BRANCH  11  12
HETATM   12  C   UNK N   1      32.128  17.206   7.703  0.00  0.00     0.215 C 
BRANCH  12  13
HETATM   13  C   UNK N   1      30.635  16.988   7.847  0.00  0.00     0.180 C 
HETATM   14  C   UNK N   1      29.930  18.077   8.650  0.00  0.00     0.182 C 
HETATM   15  C   UNK N   1      28.543  17.832   8.165  0.00  0.00     0.198 C 
HETATM   16  C   UNK N   1      28.848  17.732   6.671  0.00  0.00     0.262 C 
HETATM   17  O   UNK N   1      30.041  16.975   6.561  0.00  0.00    -0.353 OA
BRANCH  14  18
HETATM   18  O   UNK N   1      30.063  17.909  10.030  0.00  0.00    -0.390 OA
HETATM   19  H   UNK N   1      30.693  18.416  10.567  0.00  0.00     0.210 HD
ENDBRANCH  14  18
BRANCH  15  20
HETATM   20  O   UNK N   1      27.666  18.874   8.477  0.00  0.00    -0.388 OA
HETATM   21  H   UNK N   1      27.254  19.440   9.148  0.00  0.00     0.210 HD
ENDBRANCH  15  20
BRANCH  16  22
HETATM   22  N   UNK N   1      27.788  17.123   5.860  0.00  0.00    -0.297 N 
HETATM   23  C   UNK N   1      27.786  15.822   5.463  0.00  0.00     0.188 A 
HETATM   24  N   UNK N   1      26.675  15.523   4.734  0.00  0.00    -0.346 N 
HETATM   25  C   UNK N   1      25.984  16.675   4.691  0.00  0.00     0.122 A 
ATOM     26  HN  UNK N   1      26.424  14.627   4.315  1.00  0.00     0.167 HD
HETATM   27  C   UNK N   1      24.766  16.957   4.095  0.00  0.00     0.131 A 
HETATM   28  C   UNK N   1      26.650  17.637   5.361  0.00  0.00     0.142 A 
HETATM   29  N   UNK N   1      24.274  18.226   4.212  0.00  0.00    -0.337 N 
HETATM   30  C   UNK N   1      24.969  19.192   4.898  0.00  0.00     0.183 A 
ATOM     31  HN  UNK N   1      23.378  18.459   3.785  1.00  0.00     0.168 HD
HETATM   32  N   UNK N   1      26.171  18.899   5.480  0.00  0.00    -0.336 N 
ATOM     33  HN  UNK N   1      26.694  19.610   5.990  1.00  0.00     0.168 HD
BRANCH  27  34
HETATM   34  N   UNK N   1      24.048  15.969   3.395  0.00  0.00    -0.383 N 
HETATM   35  H   UNK N   1      23.171  15.667   3.726  0.00  0.00     0.157 HD
HETATM   36  H   UNK N   1      24.423  15.578   2.572  0.00  0.00     0.157 HD
ENDBRANCH  27  34
ENDBRANCH  16  22
ENDBRANCH  12  13
ENDBRANCH  11  12
ENDBRANCH   7  11
ENDBRANCH   6   7
ENDBRANCH   2   6
ENDBRANCH   1   2
BRANCH   1  37
HETATM   37  P   UNK N   1      36.693  13.804   8.323  0.00  0.00     0.410 P 
HETATM   38  O   UNK N   1      38.107  13.230   8.043  0.00  0.00    -0.631 OA
BRANCH  37  39
HETATM   39  O   UNK N   1      36.055  14.300   6.785  0.00  0.00    -0.307 OA
HETATM   40  H   UNK N   1      35.129  14.486   6.565  0.00  0.00     0.222 HD
ENDBRANCH  37  39
BRANCH  37  41
HETATM   41  O   UNK N   1      35.764  12.513   8.994  0.00  0.00    -0.195 OA
BRANCH  41  42
HETATM   42  P   UNK N   1      35.139  11.547   7.677  0.00  0.00     0.410 P 
HETATM   43  O   UNK N   1      33.981  12.357   7.034  0.00  0.00    -0.631 OA
BRANCH  42  44
HETATM   44  O   UNK N   1      36.286  11.227   6.412  0.00  0.00    -0.307 OA
HETATM   45  H   UNK N   1      36.632  10.329   6.286  0.00  0.00     0.222 HD
ENDBRANCH  42  44
BRANCH  42  46
HETATM   46  O   UNK N   1      34.418  10.067   8.258  0.00  0.00    -0.195 OA
BRANCH  46  47
HETATM   47  P   UNK N   1      33.663  10.430   9.790  0.00  0.00     0.401 P 
HETATM   48  O   UNK N   1      32.417   9.509   9.897  0.00  0.00    -0.631 OA
BRANCH  47  49
HETATM   49  O   UNK N   1      33.051  12.053   9.838  0.00  0.00    -0.307 OA
HETATM   50  H   UNK N   1      32.153  12.231  10.159  0.00  0.00     0.222 HD
ENDBRANCH  47  49
BRANCH  47  51
HETATM   51  O   UNK N   1      34.655  10.072  11.183  0.00  0.00    -0.294 OA
BRANCH  51  52
HETATM   52  C   UNK N   1      33.883  10.331  12.327  0.00  0.00     0.215 C 
BRANCH  52  53
HETATM   53  C   UNK N   1      34.539  11.427  13.147  0.00  0.00     0.177 C 
HETATM   54  C   UNK N   1      36.047  11.472  12.913  0.00  0.00     0.153 C 
HETATM   55  C   UNK N   1      36.501  11.985  14.234  0.00  0.00     0.088 C 
HETATM   56  C   UNK N   1      35.582  11.158  15.127  0.00  0.00     0.235 C 
HETATM   57  O   UNK N   1      34.313  11.175  14.517  0.00  0.00    -0.356 OA
BRANCH  54  58
HETATM   58  O   UNK N   1      36.401  12.309  11.855  0.00  0.00    -0.393 OA
HETATM   59  H   UNK N   1      37.096  12.986  11.827  0.00  0.00     0.210 HD
ENDBRANCH  54  58
BRANCH  56  60
HETATM   60  N   UNK N   1      35.472  11.572  16.540  0.00  0.00    -0.282 N 
HETATM   61  C   UNK N   1      35.453  12.917  16.768  0.00  0.00     0.109 A 
HETATM   62  C   UNK N   1      35.317  13.430  18.051  0.00  0.00     0.005 A 
HETATM   63  C   UNK N   1      35.297  14.905  18.261  0.00  0.00     0.054 C 
HETATM   64  C   UNK N   1      35.191  12.543  19.118  0.00  0.00     0.151 A 
HETATM   65  N   UNK N   1      35.217  11.207  18.887  0.00  0.00    -0.288 N 
HETATM   66  C   UNK N   1      35.356  10.705  17.620  0.00  0.00     0.330 A 
ATOM     67  HN  UNK N   1      35.131  10.562  19.673  1.00  0.00     0.172 HD
HETATM   68  O   UNK N   1      35.367   9.497  17.464  0.00  0.00    -0.246 OA
BRANCH  64  69
HETATM   69  O   UNK N   1      35.042  13.000  20.373  0.00  0.00    -0.346 OA
HETATM   70  H   UNK N   1      35.393  13.833  20.616  0.00  0.00     0.219 HD
ENDBRANCH  64  69
ENDBRANCH  56  60
ENDBRANCH  52  53
ENDBRANCH  51  52
ENDBRANCH  47  51
ENDBRANCH  46  47
ENDBRANCH  42  46
ENDBRANCH  41  42
ENDBRANCH  37  41
ENDBRANCH   1  37
TORSDOF 26
ENDMDL
MODEL 5
REMARK VINA RESULT:      -7.8      5.962      9.999
REMARK  26 active torsions:
REMARK  status: ('A' for Active; 'I' for Inactive)
REMARK    1  A    between atoms: C_10  and  C_4 
REMARK    2  A    between atoms: O_47  and  C_4 
REMARK    3  A    between atoms: C_11  and  C_5 
REMARK    4  A    between atoms: O_48  and  C_5 
REMARK    5  A    between atoms: C_9  and  O_32 
REMARK    6  A    between atoms: C_12  and  N_30 
REMARK    7  A    between atoms: C_14  and  O_33 
REMARK    8  A    between atoms: C_15  and  O_34 
REMARK    9  A    between atoms: N_21  and  C_16 
REMARK   10  A    between atoms: O_35  and  C_18 
REMARK   11  A    between atoms: C_19  and  N_31 
REMARK   12  A    between atoms: P_55  and  O_37 
REMARK   13  A    between atoms: P_56  and  O_39 
REMARK   14  A    between atoms: P_57  and  O_41 
REMARK   15  A    between atoms: P_58  and  O_43 
REMARK   16  A    between atoms: P_59  and  O_45 
REMARK   17  A    between atoms: P_55  and  O_47 
REMARK   18  A    between atoms: P_56  and  O_48 
REMARK   19  A    between atoms: P_55  and  O_51 
REMARK   20  A    between atoms: P_57  and  O_51 
REMARK   21  A    between atoms: P_56  and  O_52 
REMARK   22  A    between atoms: P_58  and  O_52 
REMARK   23  A    between atoms: P_57  and  O_53 
REMARK   24  A    between atoms: P_59  and  O_53 
REMARK   25  A    between atoms: P_58  and  O_54 
REMARK   26  A    between atoms: P_59  and  O_54 
ROOT
HETATM    1  O   UNK N   1      23.289  19.926   3.178  0.00  0.00    -0.195 OA
ENDROOT
BRANCH   1   2
HETATM    2  P   UNK N   1      21.696  19.194   3.233  0.00  0.00     0.410 P 
HETATM    3  O   UNK N   1      20.877  19.643   1.995  0.00  0.00    -0.631 OA
BRANCH   2   4
HETATM    4  O   UNK N   1      20.809  19.784   4.604  0.00  0.00    -0.307 OA
HETATM    5  H   UNK N   1      20.099  19.797   5.265  0.00  0.00     0.222 HD
ENDBRANCH   2   4
BRANCH   2   6
HETATM    6  O   UNK N   1      21.732  17.453   3.230  0.00  0.00    -0.195 OA
BRANCH   6   7
HETATM    7  P   UNK N   1      20.192  16.927   3.852  0.00  0.00     0.401 P 
HETATM    8  O   UNK N   1      20.203  17.249   5.369  0.00  0.00    -0.631 OA
BRANCH   7   9
HETATM    9  O   UNK N   1      18.875  17.850   3.193  0.00  0.00    -0.307 OA
HETATM   10  H   UNK N   1      18.664  18.363   2.396  0.00  0.00     0.222 HD
ENDBRANCH   7   9
BRANCH   7  11
HETATM   11  O   UNK N   1      19.941  15.206   3.719  0.00  0.00    -0.294 OA
BRANCH  11  12
HETATM   12  C   UNK N   1      19.415  14.852   4.961  0.00  0.00     0.215 C 
BRANCH  12  13
HETATM   13  C   UNK N   1      20.239  13.800   5.678  0.00  0.00     0.180 C 
HETATM   14  C   UNK N   1      21.653  13.647   5.125  0.00  0.00     0.182 C 
HETATM   15  C   UNK N   1      22.270  12.981   6.307  0.00  0.00     0.198 C 
HETATM   16  C   UNK N   1      21.717  13.904   7.392  0.00  0.00     0.262 C 
HETATM   17  O   UNK N   1      20.367  14.159   7.042  0.00  0.00    -0.353 OA
BRANCH  14  18
HETATM   18  O   UNK N   1      21.705  12.865   3.969  0.00  0.00    -0.390 OA
HETATM   19  H   UNK N   1      21.023  12.213   3.740  0.00  0.00     0.210 HD
ENDBRANCH  14  18
BRANCH  15  20
HETATM   20  O   UNK N   1      23.666  12.970   6.257  0.00  0.00    -0.388 OA
HETATM   21  H   UNK N   1      24.481  12.591   5.892  0.00  0.00     0.210 HD
ENDBRANCH  15  20
BRANCH  16  22
HETATM   22  N   UNK N   1      21.792  13.372   8.757  0.00  0.00    -0.297 N 
HETATM   23  C   UNK N   1      20.704  13.088   9.523  0.00  0.00     0.188 A 
HETATM   24  N   UNK N   1      21.065  12.594  10.741  0.00  0.00    -0.346 N 
HETATM   25  C   UNK N   1      22.408  12.576  10.708  0.00  0.00     0.122 A 
ATOM     26  HN  UNK N   1      20.453  12.305  11.504  1.00  0.00     0.167 HD
HETATM   27  C   UNK N   1      23.313  12.156  11.669  0.00  0.00     0.131 A 
HETATM   28  C   UNK N   1      22.846  13.045   9.523  0.00  0.00     0.142 A 
HETATM   29  N   UNK N   1      24.644  12.234  11.374  0.00  0.00    -0.337 N 
HETATM   30  C   UNK N   1      25.070  12.717  10.160  0.00  0.00     0.183 A 
ATOM     31  HN  UNK N   1      25.331  11.929  12.063  1.00  0.00     0.168 HD
HETATM   32  N   UNK N   1      24.165  13.128   9.222  0.00  0.00    -0.336 N 
ATOM     33  HN  UNK N   1      24.474  13.488   8.319  1.00  0.00     0.168 HD
BRANCH  27  34
HETATM   34  N   UNK N   1      22.880  11.657  12.913  0.00  0.00    -0.383 N 
HETATM   35  H   UNK N   1      23.446  11.028  13.416  0.00  0.00     0.157 HD
HETATM   36  H   UNK N   1      22.011  11.937  13.280  0.00  0.00     0.157 HD
ENDBRANCH  27  34
ENDBRANCH  16  22
ENDBRANCH  12  13
ENDBRANCH  11  12
ENDBRANCH   7  11
ENDBRANCH   6   7
ENDBRANCH   2   6
ENDBRANCH   1   2
BRANCH   1  37
HETATM   37  P   UNK N   1      24.329  19.021   4.241  0.00  0.00     0.410 P 
HETATM   38  O   UNK N   1      24.959  17.849   3.442  0.00  0.00    -0.631 OA
BRANCH  37  39
HETATM   39  O   UNK N   1      23.468  18.301   5.567  0.00  0.00    -0.307 OA
HETATM   40  H   UNK N   1      22.563  18.496   5.855  0.00  0.00     0.222 HD
ENDBRANCH  37  39
BRANCH  37  41
HETATM   41  O   UNK N   1      25.643  19.989   4.805  0.00  0.00    -0.195 OA
BRANCH  41  42
HETATM   42  P   UNK N   1      26.924  18.920   5.331  0.00  0.00     0.410 P 
HETATM   43  O   UNK N   1      27.755  19.697   6.387  0.00  0.00    -0.631 OA
BRANCH  42  44
HETATM   44  O   UNK N   1      26.373  17.465   6.103  0.00  0.00    -0.307 OA
HETATM   45  H   UNK N   1      25.439  17.207   6.046  0.00  0.00     0.222 HD
ENDBRANCH  42  44
BRANCH  42  46
HETATM   46  O   UNK N   1      28.028  18.558   4.029  0.00  0.00    -0.195 OA
BRANCH  46  47
HETATM   47  P   UNK N   1      28.889  17.105   4.473  0.00  0.00     0.401 P 
HETATM   48  O   UNK N   1      27.891  15.928   4.294  0.00  0.00    -0.631 OA
BRANCH  47  49
HETATM   49  O   UNK N   1      29.321  17.102   6.153  0.00  0.00    -0.307 OA
HETATM   50  H   UNK N   1      28.963  16.427   6.752  0.00  0.00     0.222 HD
ENDBRANCH  47  49
BRANCH  47  51
HETATM   51  O   UNK N   1      30.260  16.742   3.453  0.00  0.00    -0.294 OA
BRANCH  51  52
HETATM   52  C   UNK N   1      30.451  15.352   3.485  0.00  0.00     0.215 C 
BRANCH  52  53
HETATM   53  C   UNK N   1      31.773  15.034   4.160  0.00  0.00     0.177 C 
HETATM   54  C   UNK N   1      31.942  13.531   4.374  0.00  0.00     0.153 C 
HETATM   55  C   UNK N   1      32.790  13.537   5.598  0.00  0.00     0.088 C 
HETATM   56  C   UNK N   1      32.082  14.652   6.360  0.00  0.00     0.235 C 
HETATM   57  O   UNK N   1      31.812  15.666   5.420  0.00  0.00    -0.356 OA
BRANCH  54  58
HETATM   58  O   UNK N   1      32.555  12.900   3.292  0.00  0.00    -0.393 OA
HETATM   59  H   UNK N   1      32.414  12.000   2.960  0.00  0.00     0.210 HD
ENDBRANCH  54  58
BRANCH  56  60
HETATM   60  N   UNK N   1      32.787  15.217   7.527  0.00  0.00    -0.282 N 
HETATM   61  C   UNK N   1      33.357  16.444   7.344  0.00  0.00     0.109 A 
HETATM   62  C   UNK N   1      34.017  17.094   8.378  0.00  0.00     0.005 A 
HETATM   63  C   UNK N   1      34.624  18.435   8.141  0.00  0.00     0.054 C 
HETATM   64  C   UNK N   1      34.087  16.476   9.623  0.00  0.00     0.151 A 
HETATM   65  N   UNK N   1      33.525  15.254   9.799  0.00  0.00    -0.288 N 
HETATM   66  C   UNK N   1      32.879  14.613   8.774  0.00  0.00     0.330 A 
ATOM     67  HN  UNK N   1      33.585  14.802  10.711  1.00  0.00     0.172 HD
HETATM   68  O   UNK N   1      32.385  13.519   8.984  0.00  0.00    -0.246 OA
BRANCH  64  69
HETATM   69  O   UNK N   1      34.704  17.079  10.653  0.00  0.00    -0.346 OA
HETATM   70  H   UNK N   1      34.489  17.962  10.879  0.00  0.00     0.219 HD
ENDBRANCH  64  69
ENDBRANCH  56  60
ENDBRANCH  52  53
ENDBRANCH  51  52
ENDBRANCH  47  51
ENDBRANCH  46  47
ENDBRANCH  42  46
ENDBRANCH  41  42
ENDBRANCH  37  41
ENDBRANCH   1  37
TORSDOF 26
ENDMDL
MODEL 6
REMARK VINA RESULT:      -7.8      4.885     14.164
REMARK  26 active torsions:
REMARK  status: ('A' for Active; 'I' for Inactive)
REMARK    1  A    between atoms: C_10  and  C_4 
REMARK    2  A    between atoms: O_47  and  C_4 
REMARK    3  A    between atoms: C_11  and  C_5 
REMARK    4  A    between atoms: O_48  and  C_5 
REMARK    5  A    between atoms: C_9  and  O_32 
REMARK    6  A    between atoms: C_12  and  N_30 
REMARK    7  A    between atoms: C_14  and  O_33 
REMARK    8  A    between atoms: C_15  and  O_34 
REMARK    9  A    between atoms: N_21  and  C_16 
REMARK   10  A    between atoms: O_35  and  C_18 
REMARK   11  A    between atoms: C_19  and  N_31 
REMARK   12  A    between atoms: P_55  and  O_37 
REMARK   13  A    between atoms: P_56  and  O_39 
REMARK   14  A    between atoms: P_57  and  O_41 
REMARK   15  A    between atoms: P_58  and  O_43 
REMARK   16  A    between atoms: P_59  and  O_45 
REMARK   17  A    between atoms: P_55  and  O_47 
REMARK   18  A    between atoms: P_56  and  O_48 
REMARK   19  A    between atoms: P_55  and  O_51 
REMARK   20  A    between atoms: P_57  and  O_51 
REMARK   21  A    between atoms: P_56  and  O_52 
REMARK   22  A    between atoms: P_58  and  O_52 
REMARK   23  A    between atoms: P_57  and  O_53 
REMARK   24  A    between atoms: P_59  and  O_53 
REMARK   25  A    between atoms: P_58  and  O_54 
REMARK   26  A    between atoms: P_59  and  O_54 
ROOT
HETATM    1  O   UNK N   1      26.504  13.632   3.429  0.00  0.00    -0.195 OA
ENDROOT
BRANCH   1   2
HETATM    2  P   UNK N   1      27.720  14.888   3.299  0.00  0.00     0.410 P 
HETATM    3  O   UNK N   1      27.033  16.243   2.985  0.00  0.00    -0.631 OA
BRANCH   2   4
HETATM    4  O   UNK N   1      28.762  14.582   1.946  0.00  0.00    -0.307 OA
HETATM    5  H   UNK N   1      29.084  14.665   1.034  0.00  0.00     0.222 HD
ENDBRANCH   2   4
BRANCH   2   6
HETATM    6  O   UNK N   1      28.653  15.103   4.755  0.00  0.00    -0.195 OA
BRANCH   6   7
HETATM    7  P   UNK N   1      29.993  16.134   4.333  0.00  0.00     0.401 P 
HETATM    8  O   UNK N   1      31.101  15.201   3.778  0.00  0.00    -0.631 OA
BRANCH   7   9
HETATM    9  O   UNK N   1      29.600  17.211   3.026  0.00  0.00    -0.307 OA
HETATM   10  H   UNK N   1      28.872  17.787   2.744  0.00  0.00     0.222 HD
ENDBRANCH   7   9
BRANCH   7  11
HETATM   11  O   UNK N   1      30.690  16.961   5.700  0.00  0.00    -0.294 OA
BRANCH  11  12
HETATM   12  C   UNK N   1      31.220  15.930   6.476  0.00  0.00     0.215 C 
BRANCH  12  13
HETATM   13  C   UNK N   1      32.693  16.113   6.782  0.00  0.00     0.180 C 
HETATM   14  C   UNK N   1      33.170  17.558   6.666  0.00  0.00     0.182 C 
HETATM   15  C   UNK N   1      34.410  17.437   7.483  0.00  0.00     0.198 C 
HETATM   16  C   UNK N   1      33.819  16.673   8.667  0.00  0.00     0.262 C 
HETATM   17  O   UNK N   1      32.947  15.702   8.114  0.00  0.00    -0.353 OA
BRANCH  14  18
HETATM   18  O   UNK N   1      33.421  17.944   5.347  0.00  0.00    -0.390 OA
HETATM   19  H   UNK N   1      33.811  18.801   5.112  0.00  0.00     0.210 HD
ENDBRANCH  14  18
BRANCH  15  20
HETATM   20  O   UNK N   1      34.947  18.676   7.843  0.00  0.00    -0.388 OA
HETATM   21  H   UNK N   1      35.026  19.389   8.495  0.00  0.00     0.210 HD
ENDBRANCH  15  20
BRANCH  16  22
HETATM   22  N   UNK N   1      34.803  16.026   9.542  0.00  0.00    -0.297 N 
HETATM   23  C   UNK N   1      35.397  16.639  10.602  0.00  0.00     0.188 A 
HETATM   24  N   UNK N   1      36.256  15.802  11.248  0.00  0.00    -0.346 N 
HETATM   25  C   UNK N   1      36.176  14.649  10.560  0.00  0.00     0.122 A 
ATOM     26  HN  UNK N   1      36.830  16.004  12.066  1.00  0.00     0.167 HD
HETATM   27  C   UNK N   1      36.822  13.443  10.775  0.00  0.00     0.131 A 
HETATM   28  C   UNK N   1      35.310  14.782   9.536  0.00  0.00     0.142 A 
HETATM   29  N   UNK N   1      36.550  12.410   9.923  0.00  0.00    -0.337 N 
HETATM   30  C   UNK N   1      35.665  12.566   8.885  0.00  0.00     0.183 A 
ATOM     31  HN  UNK N   1      37.010  11.511  10.062  1.00  0.00     0.168 HD
HETATM   32  N   UNK N   1      35.036  13.764   8.685  0.00  0.00    -0.336 N 
ATOM     33  HN  UNK N   1      34.379  13.888   7.916  1.00  0.00     0.168 HD
BRANCH  27  34
HETATM   34  N   UNK N   1      37.727  13.277  11.841  0.00  0.00    -0.383 N 
HETATM   35  H   UNK N   1      37.590  13.765  12.686  0.00  0.00     0.157 HD
HETATM   36  H   UNK N   1      38.498  12.673  11.743  0.00  0.00     0.157 HD
ENDBRANCH  27  34
ENDBRANCH  16  22
ENDBRANCH  12  13
ENDBRANCH  11  12
ENDBRANCH   7  11
ENDBRANCH   6   7
ENDBRANCH   2   6
ENDBRANCH   1   2
BRANCH   1  37
HETATM   37  P   UNK N   1      25.271  14.192   4.523  0.00  0.00     0.410 P 
HETATM   38  O   UNK N   1      24.069  14.715   3.692  0.00  0.00    -0.631 OA
BRANCH  37  39
HETATM   39  O   UNK N   1      25.802  15.523   5.504  0.00  0.00    -0.307 OA
HETATM   40  H   UNK N   1      26.068  16.406   5.203  0.00  0.00     0.222 HD
ENDBRANCH  37  39
BRANCH  37  41
HETATM   41  O   UNK N   1      24.666  12.903   5.499  0.00  0.00    -0.195 OA
BRANCH  41  42
HETATM   42  P   UNK N   1      23.912  13.597   6.916  0.00  0.00     0.410 P 
HETATM   43  O   UNK N   1      25.034  13.808   7.967  0.00  0.00    -0.631 OA
BRANCH  42  44
HETATM   44  O   UNK N   1      23.178  15.150   6.651  0.00  0.00    -0.307 OA
HETATM   45  H   UNK N   1      23.669  15.961   6.859  0.00  0.00     0.222 HD
ENDBRANCH  42  44
BRANCH  42  46
HETATM   46  O   UNK N   1      22.780  12.486   7.644  0.00  0.00    -0.195 OA
BRANCH  46  47
HETATM   47  P   UNK N   1      21.513  13.445   8.370  0.00  0.00     0.401 P 
HETATM   48  O   UNK N   1      22.215  14.614   9.114  0.00  0.00    -0.631 OA
BRANCH  47  49
HETATM   49  O   UNK N   1      20.655  12.560   9.590  0.00  0.00    -0.307 OA
HETATM   50  H   UNK N   1      21.121  11.923  10.155  0.00  0.00     0.222 HD
ENDBRANCH  47  49
BRANCH  47  51
HETATM   51  O   UNK N   1      20.423  14.183   7.221  0.00  0.00    -0.294 OA
BRANCH  51  52
HETATM   52  C   UNK N   1      19.993  15.401   7.772  0.00  0.00     0.215 C 
BRANCH  52  53
HETATM   53  C   UNK N   1      19.681  16.383   6.658  0.00  0.00     0.177 C 
HETATM   54  C   UNK N   1      19.097  15.674   5.437  0.00  0.00     0.153 C 
HETATM   55  C   UNK N   1      19.574  16.580   4.357  0.00  0.00     0.088 C 
HETATM   56  C   UNK N   1      20.987  16.827   4.875  0.00  0.00     0.235 C 
HETATM   57  O   UNK N   1      20.872  17.028   6.264  0.00  0.00    -0.356 OA
BRANCH  54  58
HETATM   58  O   UNK N   1      17.706  15.576   5.488  0.00  0.00    -0.393 OA
HETATM   59  H   UNK N   1      17.137  15.463   6.266  0.00  0.00     0.210 HD
ENDBRANCH  54  58
BRANCH  56  60
HETATM   60  N   UNK N   1      21.740  17.938   4.261  0.00  0.00    -0.282 N 
HETATM   61  C   UNK N   1      21.030  18.750   3.424  0.00  0.00     0.109 A 
HETATM   62  C   UNK N   1      21.619  19.850   2.815  0.00  0.00     0.005 A 
HETATM   63  C   UNK N   1      20.811  20.715   1.909  0.00  0.00     0.054 C 
HETATM   64  C   UNK N   1      22.959  20.124   3.076  0.00  0.00     0.151 A 
HETATM   65  N   UNK N   1      23.662  19.311   3.903  0.00  0.00    -0.288 N 
HETATM   66  C   UNK N   1      23.079  18.224   4.499  0.00  0.00     0.330 A 
ATOM     67  HN  UNK N   1      24.645  19.513   4.086  1.00  0.00     0.172 HD
HETATM   68  O   UNK N   1      23.751  17.528   5.239  0.00  0.00    -0.246 OA
BRANCH  64  69
HETATM   69  O   UNK N   1      23.561  21.188   2.518  0.00  0.00    -0.346 OA
HETATM   70  H   UNK N   1      24.439  21.120   2.200  0.00  0.00     0.219 HD
ENDBRANCH  64  69
ENDBRANCH  56  60
ENDBRANCH  52  53
ENDBRANCH  51  52
ENDBRANCH  47  51
ENDBRANCH  46  47
ENDBRANCH  42  46
ENDBRANCH  41  42
ENDBRANCH  37  41
ENDBRANCH   1  37
TORSDOF 26
ENDMDL
MODEL 7
REMARK VINA RESULT:      -7.7      5.494     13.781
REMARK  26 active torsions:
REMARK  status: ('A' for Active; 'I' for Inactive)
REMARK    1  A    between atoms: C_10  and  C_4 
REMARK    2  A    between atoms: O_47  and  C_4 
REMARK    3  A    between atoms: C_11  and  C_5 
REMARK    4  A    between atoms: O_48  and  C_5 
REMARK    5  A    between atoms: C_9  and  O_32 
REMARK    6  A    between atoms: C_12  and  N_30 
REMARK    7  A    between atoms: C_14  and  O_33 
REMARK    8  A    between atoms: C_15  and  O_34 
REMARK    9  A    between atoms: N_21  and  C_16 
REMARK   10  A    between atoms: O_35  and  C_18 
REMARK   11  A    between atoms: C_19  and  N_31 
REMARK   12  A    between atoms: P_55  and  O_37 
REMARK   13  A    between atoms: P_56  and  O_39 
REMARK   14  A    between atoms: P_57  and  O_41 
REMARK   15  A    between atoms: P_58  and  O_43 
REMARK   16  A    between atoms: P_59  and  O_45 
REMARK   17  A    between atoms: P_55  and  O_47 
REMARK   18  A    between atoms: P_56  and  O_48 
REMARK   19  A    between atoms: P_55  and  O_51 
REMARK   20  A    between atoms: P_57  and  O_51 
REMARK   21  A    between atoms: P_56  and  O_52 
REMARK   22  A    between atoms: P_58  and  O_52 
REMARK   23  A    between atoms: P_57  and  O_53 
REMARK   24  A    between atoms: P_59  and  O_53 
REMARK   25  A    between atoms: P_58  and  O_54 
REMARK   26  A    between atoms: P_59  and  O_54 
ROOT
HETATM    1  O   UNK N   1      25.948  13.685   2.124  0.00  0.00    -0.195 OA
ENDROOT
BRANCH   1   2
HETATM    2  P   UNK N   1      27.142  14.870   2.620  0.00  0.00     0.410 P 
HETATM    3  O   UNK N   1      28.327  14.861   1.619  0.00  0.00    -0.631 OA
BRANCH   2   4
HETATM    4  O   UNK N   1      27.834  14.425   4.148  0.00  0.00    -0.307 OA
HETATM    5  H   UNK N   1      28.521  14.106   4.754  0.00  0.00     0.222 HD
ENDBRANCH   2   4
BRANCH   2   6
HETATM    6  O   UNK N   1      26.523  16.497   2.678  0.00  0.00    -0.195 OA
BRANCH   6   7
HETATM    7  P   UNK N   1      27.364  17.297   3.977  0.00  0.00     0.401 P 
HETATM    8  O   UNK N   1      27.029  18.806   3.848  0.00  0.00    -0.631 OA
BRANCH   7   9
HETATM    9  O   UNK N   1      26.758  16.821   5.536  0.00  0.00    -0.307 OA
HETATM   10  H   UNK N   1      26.082  17.095   6.175  0.00  0.00     0.222 HD
ENDBRANCH   7   9
BRANCH   7  11
HETATM   11  O   UNK N   1      29.099  17.171   3.863  0.00  0.00    -0.294 OA
BRANCH  11  12
HETATM   12  C   UNK N   1      29.538  17.444   5.158  0.00  0.00     0.215 C 
BRANCH  12  13
HETATM   13  C   UNK N   1      30.833  16.739   5.509  0.00  0.00     0.180 C 
HETATM   14  C   UNK N   1      32.083  17.524   5.124  0.00  0.00     0.182 C 
HETATM   15  C   UNK N   1      33.051  16.834   6.023  0.00  0.00     0.198 C 
HETATM   16  C   UNK N   1      32.214  16.852   7.301  0.00  0.00     0.262 C 
HETATM   17  O   UNK N   1      30.889  16.537   6.910  0.00  0.00    -0.353 OA
BRANCH  14  18
HETATM   18  O   UNK N   1      32.410  17.400   3.772  0.00  0.00    -0.390 OA
HETATM   19  H   UNK N   1      33.206  17.795   3.381  0.00  0.00     0.210 HD
ENDBRANCH  14  18
BRANCH  15  20
HETATM   20  O   UNK N   1      34.260  17.521   6.149  0.00  0.00    -0.388 OA
HETATM   21  H   UNK N   1      35.068  17.695   6.657  0.00  0.00     0.210 HD
ENDBRANCH  15  20
BRANCH  16  22
HETATM   22  N   UNK N   1      32.663  15.931   8.350  0.00  0.00    -0.297 N 
HETATM   23  C   UNK N   1      32.166  14.676   8.524  0.00  0.00     0.188 A 
HETATM   24  N   UNK N   1      32.773  14.037   9.563  0.00  0.00    -0.346 N 
HETATM   25  C   UNK N   1      33.664  14.930  10.028  0.00  0.00     0.122 A 
ATOM     26  HN  UNK N   1      32.592  13.095   9.909  1.00  0.00     0.167 HD
HETATM   27  C   UNK N   1      34.570  14.817  11.070  0.00  0.00     0.131 A 
HETATM   28  C   UNK N   1      33.597  16.066   9.307  0.00  0.00     0.142 A 
HETATM   29  N   UNK N   1      35.381  15.885  11.332  0.00  0.00    -0.337 N 
HETATM   30  C   UNK N   1      35.296  17.035  10.585  0.00  0.00     0.183 A 
ATOM     31  HN  UNK N   1      36.058  15.827  12.092  1.00  0.00     0.168 HD
HETATM   32  N   UNK N   1      34.395  17.131   9.561  0.00  0.00    -0.336 N 
ATOM     33  HN  UNK N   1      34.325  17.982   9.003  1.00  0.00     0.168 HD
BRANCH  27  34
HETATM   34  N   UNK N   1      34.663  13.639  11.835  0.00  0.00    -0.383 N 
HETATM   35  H   UNK N   1      33.880  13.312  12.335  0.00  0.00     0.157 HD
HETATM   36  H   UNK N   1      35.511  13.140  11.869  0.00  0.00     0.157 HD
ENDBRANCH  27  34
ENDBRANCH  16  22
ENDBRANCH  12  13
ENDBRANCH  11  12
ENDBRANCH   7  11
ENDBRANCH   6   7
ENDBRANCH   2   6
ENDBRANCH   1   2
BRANCH   1  37
HETATM   37  P   UNK N   1      24.595  13.803   3.214  0.00  0.00     0.410 P 
HETATM   38  O   UNK N   1      23.474  14.629   2.528  0.00  0.00    -0.631 OA
BRANCH  37  39
HETATM   39  O   UNK N   1      24.989  14.642   4.682  0.00  0.00    -0.307 OA
HETATM   40  H   UNK N   1      25.182  14.251   5.549  0.00  0.00     0.222 HD
ENDBRANCH  37  39
BRANCH  37  41
HETATM   41  O   UNK N   1      23.922  12.249   3.547  0.00  0.00    -0.195 OA
BRANCH  41  42
HETATM   42  P   UNK N   1      23.441  12.210   5.228  0.00  0.00     0.410 P 
HETATM   43  O   UNK N   1      22.604  10.918   5.429  0.00  0.00    -0.631 OA
BRANCH  42  44
HETATM   44  O   UNK N   1      24.763  12.127   6.352  0.00  0.00    -0.307 OA
HETATM   45  H   UNK N   1      25.054  11.268   6.697  0.00  0.00     0.222 HD
ENDBRANCH  42  44
BRANCH  42  46
HETATM   46  O   UNK N   1      22.371  13.533   5.616  0.00  0.00    -0.195 OA
BRANCH  46  47
HETATM   47  P   UNK N   1      22.573  13.875   7.317  0.00  0.00     0.401 P 
HETATM   48  O   UNK N   1      23.996  14.475   7.481  0.00  0.00    -0.631 OA
BRANCH  47  49
HETATM   49  O   UNK N   1      22.563  12.426   8.270  0.00  0.00    -0.307 OA
HETATM   50  H   UNK N   1      22.191  11.604   7.912  0.00  0.00     0.222 HD
ENDBRANCH  47  49
BRANCH  47  51
HETATM   51  O   UNK N   1      21.464  15.070   7.947  0.00  0.00    -0.294 OA
BRANCH  51  52
HETATM   52  C   UNK N   1      20.228  14.870   7.313  0.00  0.00     0.215 C 
BRANCH  52  53
HETATM   53  C   UNK N   1      19.915  16.056   6.418  0.00  0.00     0.177 C 
HETATM   54  C   UNK N   1      19.142  15.627   5.174  0.00  0.00     0.153 C 
HETATM   55  C   UNK N   1      19.606  16.660   4.208  0.00  0.00     0.088 C 
HETATM   56  C   UNK N   1      21.081  16.686   4.594  0.00  0.00     0.235 C 
HETATM   57  O   UNK N   1      21.125  16.651   6.001  0.00  0.00    -0.356 OA
BRANCH  54  58
HETATM   58  O   UNK N   1      17.760  15.646   5.367  0.00  0.00    -0.393 OA
HETATM   59  H   UNK N   1      17.265  15.934   6.149  0.00  0.00     0.210 HD
ENDBRANCH  54  58
BRANCH  56  60
HETATM   60  N   UNK N   1      21.886  17.815   4.089  0.00  0.00    -0.282 N 
HETATM   61  C   UNK N   1      21.208  18.756   3.369  0.00  0.00     0.109 A 
HETATM   62  C   UNK N   1      21.848  19.883   2.871  0.00  0.00     0.005 A 
HETATM   63  C   UNK N   1      21.074  20.890   2.091  0.00  0.00     0.054 C 
HETATM   64  C   UNK N   1      23.208  20.049   3.124  0.00  0.00     0.151 A 
HETATM   65  N   UNK N   1      23.879  19.108   3.834  0.00  0.00    -0.288 N 
HETATM   66  C   UNK N   1      23.244  17.995   4.319  0.00  0.00     0.330 A 
ATOM     67  HN  UNK N   1      24.876  19.231   4.010  1.00  0.00     0.172 HD
HETATM   68  O   UNK N   1      23.890  17.182   4.957  0.00  0.00    -0.246 OA
BRANCH  64  69
HETATM   69  O   UNK N   1      23.860  21.133   2.672  0.00  0.00    -0.346 OA
HETATM   70  H   UNK N   1      23.452  21.704   2.051  0.00  0.00     0.219 HD
ENDBRANCH  64  69
ENDBRANCH  56  60
ENDBRANCH  52  53
ENDBRANCH  51  52
ENDBRANCH  47  51
ENDBRANCH  46  47
ENDBRANCH  42  46
ENDBRANCH  41  42
ENDBRANCH  37  41
ENDBRANCH   1  37
TORSDOF 26
ENDMDL
MODEL 8
REMARK VINA RESULT:      -7.7      3.221      5.301
REMARK  26 active torsions:
REMARK  status: ('A' for Active; 'I' for Inactive)
REMARK    1  A    between atoms: C_10  and  C_4 
REMARK    2  A    between atoms: O_47  and  C_4 
REMARK    3  A    between atoms: C_11  and  C_5 
REMARK    4  A    between atoms: O_48  and  C_5 
REMARK    5  A    between atoms: C_9  and  O_32 
REMARK    6  A    between atoms: C_12  and  N_30 
REMARK    7  A    between atoms: C_14  and  O_33 
REMARK    8  A    between atoms: C_15  and  O_34 
REMARK    9  A    between atoms: N_21  and  C_16 
REMARK   10  A    between atoms: O_35  and  C_18 
REMARK   11  A    between atoms: C_19  and  N_31 
REMARK   12  A    between atoms: P_55  and  O_37 
REMARK   13  A    between atoms: P_56  and  O_39 
REMARK   14  A    between atoms: P_57  and  O_41 
REMARK   15  A    between atoms: P_58  and  O_43 
REMARK   16  A    between atoms: P_59  and  O_45 
REMARK   17  A    between atoms: P_55  and  O_47 
REMARK   18  A    between atoms: P_56  and  O_48 
REMARK   19  A    between atoms: P_55  and  O_51 
REMARK   20  A    between atoms: P_57  and  O_51 
REMARK   21  A    between atoms: P_56  and  O_52 
REMARK   22  A    between atoms: P_58  and  O_52 
REMARK   23  A    between atoms: P_57  and  O_53 
REMARK   24  A    between atoms: P_59  and  O_53 
REMARK   25  A    between atoms: P_58  and  O_54 
REMARK   26  A    between atoms: P_59  and  O_54 
ROOT
HETATM    1  O   UNK N   1      35.282  15.555   8.405  0.00  0.00    -0.195 OA
ENDROOT
BRANCH   1   2
HETATM    2  P   UNK N   1      36.037  14.021   8.017  0.00  0.00     0.410 P 
HETATM    3  O   UNK N   1      37.454  13.966   8.648  0.00  0.00    -0.631 OA
BRANCH   2   4
HETATM    4  O   UNK N   1      36.297  13.893   6.305  0.00  0.00    -0.307 OA
HETATM    5  H   UNK N   1      36.663  14.137   5.441  0.00  0.00     0.222 HD
ENDBRANCH   2   4
BRANCH   2   6
HETATM    6  O   UNK N   1      35.152  12.641   8.607  0.00  0.00    -0.195 OA
BRANCH   6   7
HETATM    7  P   UNK N   1      33.538  12.782   7.966  0.00  0.00     0.401 P 
HETATM    8  O   UNK N   1      33.044  11.334   7.708  0.00  0.00    -0.631 OA
BRANCH   7   9
HETATM    9  O   UNK N   1      32.431  13.447   9.130  0.00  0.00    -0.307 OA
HETATM   10  H   UNK N   1      32.447  13.837  10.018  0.00  0.00     0.222 HD
ENDBRANCH   7   9
BRANCH   7  11
HETATM   11  O   UNK N   1      33.471  13.602   6.428  0.00  0.00    -0.294 OA
BRANCH  11  12
HETATM   12  C   UNK N   1      32.127  13.951   6.298  0.00  0.00     0.215 C 
BRANCH  12  13
HETATM   13  C   UNK N   1      31.901  15.450   6.281  0.00  0.00     0.180 C 
HETATM   14  C   UNK N   1      32.314  16.119   4.974  0.00  0.00     0.182 C 
HETATM   15  C   UNK N   1      31.521  17.372   5.118  0.00  0.00     0.198 C 
HETATM   16  C   UNK N   1      30.194  16.744   5.543  0.00  0.00     0.262 C 
HETATM   17  O   UNK N   1      30.520  15.715   6.461  0.00  0.00    -0.353 OA
BRANCH  14  18
HETATM   18  O   UNK N   1      33.689  16.350   4.891  0.00  0.00    -0.390 OA
HETATM   19  H   UNK N   1      34.142  16.560   4.058  0.00  0.00     0.210 HD
ENDBRANCH  14  18
BRANCH  15  20
HETATM   20  O   UNK N   1      31.429  18.097   3.927  0.00  0.00    -0.388 OA
HETATM   21  H   UNK N   1      31.032  18.828   3.428  0.00  0.00     0.210 HD
ENDBRANCH  15  20
BRANCH  16  22
HETATM   22  N   UNK N   1      29.233  17.673   6.147  0.00  0.00    -0.297 N 
HETATM   23  C   UNK N   1      28.975  17.739   7.481  0.00  0.00     0.188 A 
HETATM   24  N   UNK N   1      28.051  18.699   7.765  0.00  0.00    -0.346 N 
HETATM   25  C   UNK N   1      27.744  19.230   6.569  0.00  0.00     0.122 A 
ATOM     26  HN  UNK N   1      27.676  18.956   8.679  1.00  0.00     0.167 HD
HETATM   27  C   UNK N   1      26.869  20.256   6.253  0.00  0.00     0.131 A 
HETATM   28  C   UNK N   1      28.447  18.614   5.598  0.00  0.00     0.142 A 
HETATM   29  N   UNK N   1      26.749  20.614   4.940  0.00  0.00    -0.337 N 
HETATM   30  C   UNK N   1      27.473  19.973   3.965  0.00  0.00     0.183 A 
ATOM     31  HN  UNK N   1      26.113  21.368   4.681  1.00  0.00     0.168 HD
HETATM   32  N   UNK N   1      28.332  18.961   4.293  0.00  0.00    -0.336 N 
ATOM     33  HN  UNK N   1      28.873  18.480   3.574  1.00  0.00     0.168 HD
BRANCH  27  34
HETATM   34  N   UNK N   1      26.127  20.918   7.250  0.00  0.00    -0.383 N 
HETATM   35  H   UNK N   1      25.519  21.654   7.007  0.00  0.00     0.157 HD
HETATM   36  H   UNK N   1      26.216  20.646   8.192  0.00  0.00     0.157 HD
ENDBRANCH  27  34
ENDBRANCH  16  22
ENDBRANCH  12  13
ENDBRANCH  11  12
ENDBRANCH   7  11
ENDBRANCH   6   7
ENDBRANCH   2   6
ENDBRANCH   1   2
BRANCH   1  37
HETATM   37  P   UNK N   1      35.431  15.803  10.122  0.00  0.00     0.410 P 
HETATM   38  O   UNK N   1      34.912  17.225  10.466  0.00  0.00    -0.631 OA
BRANCH  37  39
HETATM   39  O   UNK N   1      37.079  15.741  10.666  0.00  0.00    -0.307 OA
HETATM   40  H   UNK N   1      37.446  16.129  11.476  0.00  0.00     0.222 HD
ENDBRANCH  37  39
BRANCH  37  41
HETATM   41  O   UNK N   1      34.443  14.696  11.004  0.00  0.00    -0.195 OA
BRANCH  41  42
HETATM   42  P   UNK N   1      35.469  13.803  12.103  0.00  0.00     0.410 P 
HETATM   43  O   UNK N   1      34.572  12.745  12.799  0.00  0.00    -0.631 OA
BRANCH  42  44
HETATM   44  O   UNK N   1      36.760  12.932  11.334  0.00  0.00    -0.307 OA
HETATM   45  H   UNK N   1      36.600  12.461  10.501  0.00  0.00     0.222 HD
ENDBRANCH  42  44
BRANCH  42  46
HETATM   46  O   UNK N   1      36.077  14.825  13.381  0.00  0.00    -0.195 OA
BRANCH  46  47
HETATM   47  P   UNK N   1      36.321  13.809  14.780  0.00  0.00     0.401 P 
HETATM   48  O   UNK N   1      37.089  14.669  15.821  0.00  0.00    -0.631 OA
BRANCH  47  49
HETATM   49  O   UNK N   1      37.359  12.465  14.426  0.00  0.00    -0.307 OA
HETATM   50  H   UNK N   1      37.374  12.076  13.537  0.00  0.00     0.222 HD
ENDBRANCH  47  49
BRANCH  47  51
HETATM   51  O   UNK N   1      34.845  13.297  15.563  0.00  0.00    -0.294 OA
BRANCH  51  52
HETATM   52  C   UNK N   1      35.062  13.356  16.948  0.00  0.00     0.215 C 
BRANCH  52  53
HETATM   53  C   UNK N   1      35.689  12.057  17.422  0.00  0.00     0.177 C 
HETATM   54  C   UNK N   1      34.915  10.845  16.909  0.00  0.00     0.153 C 
HETATM   55  C   UNK N   1      35.184   9.879  18.009  0.00  0.00     0.088 C 
HETATM   56  C   UNK N   1      35.022  10.829  19.191  0.00  0.00     0.235 C 
HETATM   57  O   UNK N   1      35.673  12.025  18.832  0.00  0.00    -0.356 OA
BRANCH  54  58
HETATM   58  O   UNK N   1      35.376  10.399  15.670  0.00  0.00    -0.393 OA
HETATM   59  H   UNK N   1      35.909   9.613  15.471  0.00  0.00     0.210 HD
ENDBRANCH  54  58
BRANCH  56  60
HETATM   60  N   UNK N   1      35.510  10.357  20.501  0.00  0.00    -0.282 N 
HETATM   61  C   UNK N   1      36.865  10.355  20.667  0.00  0.00     0.109 A 
HETATM   62  C   UNK N   1      37.444   9.967  21.868  0.00  0.00     0.005 A 
HETATM   63  C   UNK N   1      38.928   9.981  22.013  0.00  0.00     0.054 C 
HETATM   64  C   UNK N   1      36.616   9.581  22.918  0.00  0.00     0.151 A 
HETATM   65  N   UNK N   1      35.270   9.577  22.746  0.00  0.00    -0.288 N 
HETATM   66  C   UNK N   1      34.703   9.956  21.558  0.00  0.00     0.330 A 
ATOM     67  HN  UNK N   1      34.668   9.286  23.517  1.00  0.00     0.172 HD
HETATM   68  O   UNK N   1      33.489   9.942  21.456  0.00  0.00    -0.246 OA
BRANCH  64  69
HETATM   69  O   UNK N   1      37.137   9.212  24.101  0.00  0.00    -0.346 OA
HETATM   70  H   UNK N   1      37.800   9.735  24.507  0.00  0.00     0.219 HD
ENDBRANCH  64  69
ENDBRANCH  56  60
ENDBRANCH  52  53
ENDBRANCH  51  52
ENDBRANCH  47  51
ENDBRANCH  46  47
ENDBRANCH  42  46
ENDBRANCH  41  42
ENDBRANCH  37  41
ENDBRANCH   1  37
TORSDOF 26
ENDMDL
MODEL 9
REMARK VINA RESULT:      -7.6      1.731      2.689
REMARK  26 active torsions:
REMARK  status: ('A' for Active; 'I' for Inactive)
REMARK    1  A    between atoms: C_10  and  C_4 
REMARK    2  A    between atoms: O_47  and  C_4 
REMARK    3  A    between atoms: C_11  and  C_5 
REMARK    4  A    between atoms: O_48  and  C_5 
REMARK    5  A    between atoms: C_9  and  O_32 
REMARK    6  A    between atoms: C_12  and  N_30 
REMARK    7  A    between atoms: C_14  and  O_33 
REMARK    8  A    between atoms: C_15  and  O_34 
REMARK    9  A    between atoms: N_21  and  C_16 
REMARK   10  A    between atoms: O_35  and  C_18 
REMARK   11  A    between atoms: C_19  and  N_31 
REMARK   12  A    between atoms: P_55  and  O_37 
REMARK   13  A    between atoms: P_56  and  O_39 
REMARK   14  A    between atoms: P_57  and  O_41 
REMARK   15  A    between atoms: P_58  and  O_43 
REMARK   16  A    between atoms: P_59  and  O_45 
REMARK   17  A    between atoms: P_55  and  O_47 
REMARK   18  A    between atoms: P_56  and  O_48 
REMARK   19  A    between atoms: P_55  and  O_51 
REMARK   20  A    between atoms: P_57  and  O_51 
REMARK   21  A    between atoms: P_56  and  O_52 
REMARK   22  A    between atoms: P_58  and  O_52 
REMARK   23  A    between atoms: P_57  and  O_53 
REMARK   24  A    between atoms: P_59  and  O_53 
REMARK   25  A    between atoms: P_58  and  O_54 
REMARK   26  A    between atoms: P_59  and  O_54 
ROOT
HETATM    1  O   UNK N   1      34.853  17.724   9.393  0.00  0.00    -0.195 OA
ENDROOT
BRANCH   1   2
HETATM    2  P   UNK N   1      33.493  17.457   8.318  0.00  0.00     0.410 P 
HETATM    3  O   UNK N   1      32.299  18.341   8.765  0.00  0.00    -0.631 OA
BRANCH   2   4
HETATM    4  O   UNK N   1      32.927  15.822   8.458  0.00  0.00    -0.307 OA
HETATM    5  H   UNK N   1      32.325  15.074   8.318  0.00  0.00     0.222 HD
ENDBRANCH   2   4
BRANCH   2   6
HETATM    6  O   UNK N   1      33.835  17.846   6.655  0.00  0.00    -0.195 OA
BRANCH   6   7
HETATM    7  P   UNK N   1      33.258  16.504   5.707  0.00  0.00     0.401 P 
HETATM    8  O   UNK N   1      33.313  16.962   4.226  0.00  0.00    -0.631 OA
BRANCH   7   9
HETATM    9  O   UNK N   1      34.320  15.132   5.806  0.00  0.00    -0.307 OA
HETATM   10  H   UNK N   1      34.504  14.310   5.324  0.00  0.00     0.222 HD
ENDBRANCH   7   9
BRANCH   7  11
HETATM   11  O   UNK N   1      31.594  16.092   6.028  0.00  0.00    -0.294 OA
BRANCH  11  12
HETATM   12  C   UNK N   1      30.872  17.054   5.322  0.00  0.00     0.215 C 
BRANCH  12  13
HETATM   13  C   UNK N   1      29.461  17.241   5.844  0.00  0.00     0.180 C 
HETATM   14  C   UNK N   1      29.399  17.881   7.228  0.00  0.00     0.182 C 
HETATM   15  C   UNK N   1      27.987  18.353   7.178  0.00  0.00     0.198 C 
HETATM   16  C   UNK N   1      28.015  18.984   5.787  0.00  0.00     0.262 C 
HETATM   17  O   UNK N   1      28.749  18.093   4.965  0.00  0.00    -0.353 OA
BRANCH  14  18
HETATM   18  O   UNK N   1      29.634  16.970   8.260  0.00  0.00    -0.390 OA
HETATM   19  H   UNK N   1      30.245  16.220   8.176  0.00  0.00     0.210 HD
ENDBRANCH  14  18
BRANCH  15  20
HETATM   20  O   UNK N   1      27.684  19.268   8.190  0.00  0.00    -0.388 OA
HETATM   21  H   UNK N   1      27.625  20.189   8.486  0.00  0.00     0.210 HD
ENDBRANCH  15  20
BRANCH  16  22
HETATM   22  N   UNK N   1      26.698  19.246   5.197  0.00  0.00    -0.297 N 
HETATM   23  C   UNK N   1      26.323  20.445   4.676  0.00  0.00     0.188 A 
HETATM   24  N   UNK N   1      25.053  20.403   4.184  0.00  0.00    -0.346 N 
HETATM   25  C   UNK N   1      24.651  19.140   4.410  0.00  0.00     0.122 A 
ATOM     26  HN  UNK N   1      24.527  21.158   3.743  1.00  0.00     0.167 HD
HETATM   27  C   UNK N   1      23.449  18.525   4.104  0.00  0.00     0.131 A 
HETATM   28  C   UNK N   1      25.632  18.447   5.021  0.00  0.00     0.142 A 
HETATM   29  N   UNK N   1      23.299  17.208   4.438  0.00  0.00    -0.337 N 
HETATM   30  C   UNK N   1      24.311  16.520   5.061  0.00  0.00     0.183 A 
ATOM     31  HN  UNK N   1      22.425  16.731   4.221  1.00  0.00     0.168 HD
HETATM   32  N   UNK N   1      25.492  17.142   5.358  0.00  0.00    -0.336 N 
ATOM     33  HN  UNK N   1      26.247  16.637   5.822  1.00  0.00     0.168 HD
BRANCH  27  34
HETATM   34  N   UNK N   1      22.411  19.226   3.461  0.00  0.00    -0.383 N 
HETATM   35  H   UNK N   1      22.604  19.778   2.668  0.00  0.00     0.157 HD
HETATM   36  H   UNK N   1      21.490  19.165   3.804  0.00  0.00     0.157 HD
ENDBRANCH  27  34
ENDBRANCH  16  22
ENDBRANCH  12  13
ENDBRANCH  11  12
ENDBRANCH   7  11
ENDBRANCH   6   7
ENDBRANCH   2   6
ENDBRANCH   1   2
BRANCH   1  37
HETATM   37  P   UNK N   1      35.377  16.174   9.986  0.00  0.00     0.410 P 
HETATM   38  O   UNK N   1      34.284  15.606  10.931  0.00  0.00    -0.631 OA
BRANCH  37  39
HETATM   39  O   UNK N   1      36.832  16.276  10.930  0.00  0.00    -0.307 OA
HETATM   40  H   UNK N   1      37.437  15.553  11.158  0.00  0.00     0.222 HD
ENDBRANCH  37  39
BRANCH  37  41
HETATM   41  O   UNK N   1      35.550  15.036   8.699  0.00  0.00    -0.195 OA
BRANCH  41  42
HETATM   42  P   UNK N   1      36.510  13.694   9.280  0.00  0.00     0.410 P 
HETATM   43  O   UNK N   1      37.996  14.049   9.003  0.00  0.00    -0.631 OA
BRANCH  42  44
HETATM   44  O   UNK N   1      36.378  13.402  10.987  0.00  0.00    -0.307 OA
HETATM   45  H   UNK N   1      35.628  13.764  11.486  0.00  0.00     0.222 HD
ENDBRANCH  42  44
BRANCH  42  46
HETATM   46  O   UNK N   1      36.191  12.240   8.369  0.00  0.00    -0.195 OA
BRANCH  46  47
HETATM   47  P   UNK N   1      34.641  11.632   8.898  0.00  0.00     0.401 P 
HETATM   48  O   UNK N   1      33.856  11.249   7.614  0.00  0.00    -0.631 OA
BRANCH  47  49
HETATM   49  O   UNK N   1      33.698  12.863   9.675  0.00  0.00    -0.307 OA
HETATM   50  H   UNK N   1      33.023  12.625  10.330  0.00  0.00     0.222 HD
ENDBRANCH  47  49
BRANCH  47  51
HETATM   51  O   UNK N   1      34.732  10.180   9.866  0.00  0.00    -0.294 OA
BRANCH  51  52
HETATM   52  C   UNK N   1      36.072  10.010  10.244  0.00  0.00     0.215 C 
BRANCH  52  53
HETATM   53  C   UNK N   1      36.147   9.677  11.723  0.00  0.00     0.177 C 
HETATM   54  C   UNK N   1      35.094   8.643  12.115  0.00  0.00     0.153 C 
HETATM   55  C   UNK N   1      34.857   9.037  13.531  0.00  0.00     0.088 C 
HETATM   56  C   UNK N   1      34.852  10.551  13.348  0.00  0.00     0.235 C 
HETATM   57  O   UNK N   1      35.915  10.848  12.472  0.00  0.00    -0.356 OA
BRANCH  54  58
HETATM   58  O   UNK N   1      35.555   7.332  11.987  0.00  0.00    -0.393 OA
HETATM   59  H   UNK N   1      36.417   6.967  12.241  0.00  0.00     0.210 HD
ENDBRANCH  54  58
BRANCH  56  60
HETATM   60  N   UNK N   1      34.955  11.373  14.569  0.00  0.00    -0.282 N 
HETATM   61  C   UNK N   1      35.090  10.687  15.741  0.00  0.00     0.109 A 
HETATM   62  C   UNK N   1      35.232  11.349  16.953  0.00  0.00     0.005 A 
HETATM   63  C   UNK N   1      35.380  10.565  18.212  0.00  0.00     0.054 C 
HETATM   64  C   UNK N   1      35.241  12.742  16.959  0.00  0.00     0.151 A 
HETATM   65  N   UNK N   1      35.099  13.420  15.793  0.00  0.00    -0.288 N 
HETATM   66  C   UNK N   1      34.955  12.762  14.600  0.00  0.00     0.330 A 
ATOM     67  HN  UNK N   1      35.099  14.440  15.805  1.00  0.00     0.172 HD
HETATM   68  O   UNK N   1      34.837  13.416  13.579  0.00  0.00    -0.246 OA
BRANCH  64  69
HETATM   69  O   UNK N   1      35.391  13.419  18.110  0.00  0.00    -0.346 OA
HETATM   70  H   UNK N   1      36.006  13.127  18.753  0.00  0.00     0.219 HD
ENDBRANCH  64  69
ENDBRANCH  56  60
ENDBRANCH  52  53
ENDBRANCH  51  52
ENDBRANCH  47  51
ENDBRANCH  46  47
ENDBRANCH  42  46
ENDBRANCH  41  42
ENDBRANCH  37  41
ENDBRANCH   1  37
TORSDOF 26
ENDMDL
