MODEL 1
REMARK VINA RESULT:      -6.8      0.000      0.000
REMARK  8 active torsions:
REMARK  status: ('A' for Active; 'I' for Inactive)
REMARK    1  A    between atoms: C_2  and  N_1 
REMARK    2  A    between atoms: C_5  and  O_13 
REMARK    3  A    between atoms: C_12  and  O_17 
REMARK    4  A    between atoms: C_14  and  C_18 
REMARK       I    between atoms: C_16  and  N_21 
REMARK    5  A    between atoms: O_17  and  P_22 
REMARK    6  A    between atoms: C_18  and  O_23 
REMARK    7  A    between atoms: P_22  and  O_24 
REMARK    8  A    between atoms: P_22  and  O_25 
ROOT
HETATM    1  C   UNK N   1      35.621  13.938  10.777  0.00  0.00     0.262 C 
HETATM    2  C   UNK N   1      35.569  15.450  11.045  0.00  0.00     0.199 C 
HETATM    3  O   UNK N   1      34.549  13.617   9.913  0.00  0.00    -0.353 OA
HETATM    4  C   UNK N   1      34.721  15.850   9.868  0.00  0.00     0.197 C 
HETATM    5  C   UNK N   1      33.735  14.743   9.998  0.00  0.00     0.180 C 
ENDROOT
BRANCH   1   6
HETATM    6  N   UNK N   1      35.548  13.076  11.962  0.00  0.00    -0.297 N 
HETATM    7  C   UNK N   1      35.928  13.414  13.205  0.00  0.00     0.159 A 
HETATM    8  C   UNK N   1      35.434  12.527  14.084  0.00  0.00     0.147 A 
HETATM    9  N   UNK N   1      36.629  14.509  13.587  0.00  0.00    -0.174 N 
HETATM   10  C   UNK N   1      35.620  12.730  15.446  0.00  0.00     0.290 A 
HETATM   11  N   UNK N   1      34.746  11.572  13.429  0.00  0.00    -0.345 N 
HETATM   12  N   UNK N   1      36.343  13.836  15.844  0.00  0.00    -0.154 N 
HETATM   13  O   UNK N   1      35.136  11.978  16.271  0.00  0.00    -0.265 OA
HETATM   14  C   UNK N   1      36.852  14.712  14.917  0.00  0.00     0.680 A 
HETATM   15  H   UNK N   1      36.494  13.999  16.803  0.00  0.00     0.187 HD
HETATM   16  N   UNK N   1      37.587  15.838  15.337  0.00  0.00    -0.234 N 
HETATM   17  H   UNK N   1      37.604  16.097  16.287  0.00  0.00     0.174 HD
HETATM   18  H   UNK N   1      38.088  16.368  14.677  0.00  0.00     0.174 HD
HETATM   19  C   UNK N   1      34.814  11.946  12.114  0.00  0.00     0.188 A 
ATOM     20  HN  UNK N   1      34.278  10.756  13.823  1.00  0.00     0.167 HD
ATOM     21  HN  UNK N   1      36.983  15.168  12.893  1.00  0.00     0.186 HD
ENDBRANCH   1   6
BRANCH   2  22
HETATM   22  O   UNK N   1      36.838  16.024  10.957  0.00  0.00    -0.388 OA
HETATM   23  H   UNK N   1      37.516  15.805  11.616  0.00  0.00     0.210 HD
ENDBRANCH   2  22
BRANCH   4  24
HETATM   24  O   UNK N   1      34.174  17.138   9.918  0.00  0.00    -0.286 OA
BRANCH  24  25
HETATM   25  P   UNK N   1      34.624  17.818   8.367  0.00  0.00     0.391 P 
HETATM   26  O   UNK N   1      34.441  19.356   8.324  0.00  0.00    -0.632 OA
BRANCH  25  27
HETATM   27  O   UNK N   1      32.921  18.055   8.607  0.00  0.00    -0.307 OA
HETATM   28  H   UNK N   1      32.427  18.197   9.429  0.00  0.00     0.222 HD
ENDBRANCH  25  27
BRANCH  25  29
HETATM   29  O   UNK N   1      35.745  18.414   9.553  0.00  0.00    -0.307 OA
HETATM   30  H   UNK N   1      35.562  18.984  10.315  0.00  0.00     0.222 HD
ENDBRANCH  25  29
ENDBRANCH  24  25
ENDBRANCH   4  24
BRANCH   5  31
HETATM   31  C   UNK N   1      32.617  14.701   8.985  0.00  0.00     0.198 C 
BRANCH  31  32
HETATM   32  O   UNK N   1      31.667  15.660   9.345  0.00  0.00    -0.398 OA
HETATM   33  H   UNK N   1      31.383  16.477   8.908  0.00  0.00     0.209 HD
ENDBRANCH  31  32
ENDBRANCH   5  31
TORSDOF 8
ENDMDL
MODEL 2
REMARK VINA RESULT:      -6.7     15.672     17.391
REMARK  8 active torsions:
REMARK  status: ('A' for Active; 'I' for Inactive)
REMARK    1  A    between atoms: C_2  and  N_1 
REMARK    2  A    between atoms: C_5  and  O_13 
REMARK    3  A    between atoms: C_12  and  O_17 
REMARK    4  A    between atoms: C_14  and  C_18 
REMARK       I    between atoms: C_16  and  N_21 
REMARK    5  A    between atoms: O_17  and  P_22 
REMARK    6  A    between atoms: C_18  and  O_23 
REMARK    7  A    between atoms: P_22  and  O_24 
REMARK    8  A    between atoms: P_22  and  O_25 
ROOT
HETATM    1  C   UNK N   1      21.297  15.428   5.107  0.00  0.00     0.262 C 
HETATM    2  C   UNK N   1      20.912  14.119   5.814  0.00  0.00     0.199 C 
HETATM    3  O   UNK N   1      20.796  16.499   5.882  0.00  0.00    -0.353 OA
HETATM    4  C   UNK N   1      20.647  14.682   7.184  0.00  0.00     0.197 C 
HETATM    5  C   UNK N   1      19.881  15.872   6.723  0.00  0.00     0.180 C 
ENDROOT
BRANCH   1   6
HETATM    6  N   UNK N   1      20.815  15.574   3.729  0.00  0.00    -0.297 N 
HETATM    7  C   UNK N   1      20.601  16.735   3.089  0.00  0.00     0.159 A 
HETATM    8  C   UNK N   1      20.477  16.507   1.771  0.00  0.00     0.147 A 
HETATM    9  N   UNK N   1      20.582  17.981   3.620  0.00  0.00    -0.174 N 
HETATM   10  C   UNK N   1      20.345  17.578   0.897  0.00  0.00     0.290 A 
HETATM   11  N   UNK N   1      20.579  15.185   1.527  0.00  0.00    -0.345 N 
HETATM   12  N   UNK N   1      20.314  18.850   1.429  0.00  0.00    -0.154 N 
HETATM   13  O   UNK N   1      20.291  17.409  -0.308  0.00  0.00    -0.265 OA
HETATM   14  C   UNK N   1      20.421  19.047   2.784  0.00  0.00     0.680 A 
HETATM   15  H   UNK N   1      20.214  19.626   0.831  0.00  0.00     0.187 HD
HETATM   16  N   UNK N   1      20.388  20.351   3.314  0.00  0.00    -0.234 N 
HETATM   17  H   UNK N   1      20.453  21.133   2.720  0.00  0.00     0.174 HD
HETATM   18  H   UNK N   1      20.298  20.481   4.286  0.00  0.00     0.174 HD
HETATM   19  C   UNK N   1      20.808  14.629   2.756  0.00  0.00     0.188 A 
ATOM     20  HN  UNK N   1      20.504  14.708   0.629  1.00  0.00     0.167 HD
ATOM     21  HN  UNK N   1      20.687  18.120   4.626  1.00  0.00     0.186 HD
ENDBRANCH   1   6
BRANCH   2  22
HETATM   22  O   UNK N   1      21.984  13.226   5.846  0.00  0.00    -0.388 OA
HETATM   23  H   UNK N   1      21.819  12.270   5.836  0.00  0.00     0.210 HD
ENDBRANCH   2  22
BRANCH   4  24
HETATM   24  O   UNK N   1      19.960  13.843   8.068  0.00  0.00    -0.286 OA
BRANCH  24  25
HETATM   25  P   UNK N   1      20.978  13.853   9.495  0.00  0.00     0.391 P 
HETATM   26  O   UNK N   1      20.608  12.723  10.489  0.00  0.00    -0.632 OA
BRANCH  25  27
HETATM   27  O   UNK N   1      19.347  14.215   9.971  0.00  0.00    -0.307 OA
HETATM   28  H   UNK N   1      18.974  15.040  10.316  0.00  0.00     0.222 HD
ENDBRANCH  25  27
BRANCH  25  29
HETATM   29  O   UNK N   1      21.306  12.389   8.618  0.00  0.00    -0.307 OA
HETATM   30  H   UNK N   1      21.904  12.263   7.866  0.00  0.00     0.222 HD
ENDBRANCH  25  29
ENDBRANCH  24  25
ENDBRANCH   4  24
BRANCH   5  31
HETATM   31  C   UNK N   1      19.368  16.809   7.788  0.00  0.00     0.198 C 
BRANCH  31  32
HETATM   32  O   UNK N   1      18.186  16.274   8.306  0.00  0.00    -0.398 OA
HETATM   33  H   UNK N   1      17.670  16.503   9.095  0.00  0.00     0.209 HD
ENDBRANCH  31  32
ENDBRANCH   5  31
TORSDOF 8
ENDMDL
MODEL 3
REMARK VINA RESULT:      -6.5      4.113      6.299
REMARK  8 active torsions:
REMARK  status: ('A' for Active; 'I' for Inactive)
REMARK    1  A    between atoms: C_2  and  N_1 
REMARK    2  A    between atoms: C_5  and  O_13 
REMARK    3  A    between atoms: C_12  and  O_17 
REMARK    4  A    between atoms: C_14  and  C_18 
REMARK       I    between atoms: C_16  and  N_21 
REMARK    5  A    between atoms: O_17  and  P_22 
REMARK    6  A    between atoms: C_18  and  O_23 
REMARK    7  A    between atoms: P_22  and  O_24 
REMARK    8  A    between atoms: P_22  and  O_25 
ROOT
HETATM    1  C   UNK N   1      31.577  16.356   7.977  0.00  0.00     0.262 C 
HETATM    2  C   UNK N   1      31.186  17.319   6.846  0.00  0.00     0.199 C 
HETATM    3  O   UNK N   1      30.489  16.281   8.876  0.00  0.00    -0.353 OA
HETATM    4  C   UNK N   1      29.693  17.281   7.035  0.00  0.00     0.197 C 
HETATM    5  C   UNK N   1      29.718  17.385   8.520  0.00  0.00     0.180 C 
ENDROOT
BRANCH   1   6
HETATM    6  N   UNK N   1      32.788  16.710   8.727  0.00  0.00    -0.297 N 
HETATM    7  C   UNK N   1      33.573  15.856   9.403  0.00  0.00     0.159 A 
HETATM    8  C   UNK N   1      34.742  16.451   9.692  0.00  0.00     0.147 A 
HETATM    9  N   UNK N   1      33.318  14.560   9.706  0.00  0.00    -0.174 N 
HETATM   10  C   UNK N   1      35.752  15.722  10.307  0.00  0.00     0.290 A 
HETATM   11  N   UNK N   1      34.732  17.719   9.235  0.00  0.00    -0.345 N 
HETATM   12  N   UNK N   1      35.497  14.405  10.630  0.00  0.00    -0.154 N 
HETATM   13  O   UNK N   1      36.843  16.214  10.529  0.00  0.00    -0.265 OA
HETATM   14  C   UNK N   1      34.283  13.834  10.340  0.00  0.00     0.680 A 
HETATM   15  H   UNK N   1      36.194  13.869  11.073  0.00  0.00     0.187 HD
HETATM   16  N   UNK N   1      34.036  12.488  10.674  0.00  0.00    -0.234 N 
HETATM   17  H   UNK N   1      34.773  11.903  10.964  0.00  0.00     0.174 HD
HETATM   18  H   UNK N   1      33.121  12.131  10.618  0.00  0.00     0.174 HD
HETATM   19  C   UNK N   1      33.516  17.850   8.623  0.00  0.00     0.188 A 
ATOM     20  HN  UNK N   1      35.466  18.421   9.325  1.00  0.00     0.167 HD
ATOM     21  HN  UNK N   1      32.422  14.137   9.465  1.00  0.00     0.186 HD
ENDBRANCH   1   6
BRANCH   2  22
HETATM   22  O   UNK N   1      31.538  16.805   5.598  0.00  0.00    -0.388 OA
HETATM   23  H   UNK N   1      31.349  15.878   5.384  0.00  0.00     0.210 HD
ENDBRANCH   2  22
BRANCH   4  24
HETATM   24  O   UNK N   1      28.968  18.285   6.384  0.00  0.00    -0.286 OA
BRANCH  24  25
HETATM   25  P   UNK N   1      27.964  17.385   5.265  0.00  0.00     0.391 P 
HETATM   26  O   UNK N   1      27.195  18.312   4.289  0.00  0.00    -0.632 OA
BRANCH  25  27
HETATM   27  O   UNK N   1      26.938  18.337   6.293  0.00  0.00    -0.307 OA
HETATM   28  H   UNK N   1      26.420  19.130   6.085  0.00  0.00     0.222 HD
ENDBRANCH  25  27
BRANCH  25  29
HETATM   29  O   UNK N   1      29.214  18.168   4.346  0.00  0.00    -0.307 OA
HETATM   30  H   UNK N   1      29.771  17.789   3.649  0.00  0.00     0.222 HD
ENDBRANCH  25  29
ENDBRANCH  24  25
ENDBRANCH   4  24
BRANCH   5  31
HETATM   31  C   UNK N   1      28.385  17.385   9.227  0.00  0.00     0.198 C 
BRANCH  31  32
HETATM   32  O   UNK N   1      27.789  18.632   9.031  0.00  0.00    -0.398 OA
HETATM   33  H   UNK N   1      26.871  18.883   8.841  0.00  0.00     0.209 HD
ENDBRANCH  31  32
ENDBRANCH   5  31
TORSDOF 8
ENDMDL
MODEL 4
REMARK VINA RESULT:      -6.5     12.128     14.419
REMARK  8 active torsions:
REMARK  status: ('A' for Active; 'I' for Inactive)
REMARK    1  A    between atoms: C_2  and  N_1 
REMARK    2  A    between atoms: C_5  and  O_13 
REMARK    3  A    between atoms: C_12  and  O_17 
REMARK    4  A    between atoms: C_14  and  C_18 
REMARK       I    between atoms: C_16  and  N_21 
REMARK    5  A    between atoms: O_17  and  P_22 
REMARK    6  A    between atoms: C_18  and  O_23 
REMARK    7  A    between atoms: P_22  and  O_24 
REMARK    8  A    between atoms: P_22  and  O_25 
ROOT
HETATM    1  C   UNK N   1      21.528  13.739   7.208  0.00  0.00     0.262 C 
HETATM    2  C   UNK N   1      21.949  14.514   5.950  0.00  0.00     0.199 C 
HETATM    3  O   UNK N   1      20.400  14.390   7.757  0.00  0.00    -0.353 OA
HETATM    4  C   UNK N   1      20.658  15.245   5.702  0.00  0.00     0.197 C 
HETATM    5  C   UNK N   1      20.417  15.628   7.121  0.00  0.00     0.180 C 
ENDROOT
BRANCH   1   6
HETATM    6  N   UNK N   1      22.553  13.607   8.249  0.00  0.00    -0.297 N 
HETATM    7  C   UNK N   1      22.372  13.076   9.469  0.00  0.00     0.159 A 
HETATM    8  C   UNK N   1      23.566  12.822  10.031  0.00  0.00     0.147 A 
HETATM    9  N   UNK N   1      21.200  12.747  10.063  0.00  0.00    -0.174 N 
HETATM   10  C   UNK N   1      23.624  12.179  11.261  0.00  0.00     0.290 A 
HETATM   11  N   UNK N   1      24.552  13.211   9.200  0.00  0.00    -0.345 N 
HETATM   12  N   UNK N   1      22.435  11.852  11.879  0.00  0.00    -0.154 N 
HETATM   13  O   UNK N   1      24.689  11.882  11.771  0.00  0.00    -0.265 OA
HETATM   14  C   UNK N   1      21.232  12.145  11.286  0.00  0.00     0.680 A 
HETATM   15  H   UNK N   1      22.449  11.402  12.755  0.00  0.00     0.187 HD
HETATM   16  N   UNK N   1      20.025  11.804  11.927  0.00  0.00    -0.234 N 
HETATM   17  H   UNK N   1      20.028  11.215  12.715  0.00  0.00     0.174 HD
HETATM   18  H   UNK N   1      19.173  12.159  11.585  0.00  0.00     0.174 HD
HETATM   19  C   UNK N   1      23.899  13.677   8.092  0.00  0.00     0.188 A 
ATOM     20  HN  UNK N   1      25.558  13.167   9.360  1.00  0.00     0.167 HD
ATOM     21  HN  UNK N   1      20.311  12.947   9.604  1.00  0.00     0.186 HD
ENDBRANCH   1   6
BRANCH   2  22
HETATM   22  O   UNK N   1      22.236  13.648   4.893  0.00  0.00    -0.388 OA
HETATM   23  H   UNK N   1      21.609  13.555   4.159  0.00  0.00     0.210 HD
ENDBRANCH   2  22
BRANCH   4  24
HETATM   24  O   UNK N   1      20.723  16.316   4.804  0.00  0.00    -0.286 OA
BRANCH  24  25
HETATM   25  P   UNK N   1      20.039  15.644   3.338  0.00  0.00     0.391 P 
HETATM   26  O   UNK N   1      19.969  16.684   2.190  0.00  0.00    -0.632 OA
BRANCH  25  27
HETATM   27  O   UNK N   1      18.972  16.876   3.937  0.00  0.00    -0.307 OA
HETATM   28  H   UNK N   1      18.986  17.345   4.785  0.00  0.00     0.222 HD
ENDBRANCH  25  27
BRANCH  25  29
HETATM   29  O   UNK N   1      21.701  16.037   3.017  0.00  0.00    -0.307 OA
HETATM   30  H   UNK N   1      22.054  16.639   2.344  0.00  0.00     0.222 HD
ENDBRANCH  25  29
ENDBRANCH  24  25
ENDBRANCH   4  24
BRANCH   5  31
HETATM   31  C   UNK N   1      19.168  16.422   7.411  0.00  0.00     0.198 C 
BRANCH  31  32
HETATM   32  O   UNK N   1      18.195  16.059   6.478  0.00  0.00    -0.398 OA
HETATM   33  H   UNK N   1      17.233  16.183   6.472  0.00  0.00     0.209 HD
ENDBRANCH  31  32
ENDBRANCH   5  31
TORSDOF 8
ENDMDL
MODEL 5
REMARK VINA RESULT:      -6.4      2.475      3.862
REMARK  8 active torsions:
REMARK  status: ('A' for Active; 'I' for Inactive)
REMARK    1  A    between atoms: C_2  and  N_1 
REMARK    2  A    between atoms: C_5  and  O_13 
REMARK    3  A    between atoms: C_12  and  O_17 
REMARK    4  A    between atoms: C_14  and  C_18 
REMARK       I    between atoms: C_16  and  N_21 
REMARK    5  A    between atoms: O_17  and  P_22 
REMARK    6  A    between atoms: C_18  and  O_23 
REMARK    7  A    between atoms: P_22  and  O_24 
REMARK    8  A    between atoms: P_22  and  O_25 
ROOT
HETATM    1  C   UNK N   1      34.807  15.964  10.811  0.00  0.00     0.262 C 
HETATM    2  C   UNK N   1      33.595  15.404  10.050  0.00  0.00     0.199 C 
HETATM    3  O   UNK N   1      35.238  17.128  10.137  0.00  0.00    -0.353 OA
HETATM    4  C   UNK N   1      33.216  16.651   9.298  0.00  0.00     0.197 C 
HETATM    5  C   UNK N   1      34.602  17.025   8.902  0.00  0.00     0.180 C 
ENDROOT
BRANCH   1   6
HETATM    6  N   UNK N   1      35.946  15.050  10.957  0.00  0.00    -0.297 N 
HETATM    7  C   UNK N   1      35.915  13.841  11.539  0.00  0.00     0.159 A 
HETATM    8  C   UNK N   1      37.026  13.158  11.217  0.00  0.00     0.147 A 
HETATM    9  N   UNK N   1      34.915  13.303  12.277  0.00  0.00    -0.174 N 
HETATM   10  C   UNK N   1      37.167  11.839  11.630  0.00  0.00     0.290 A 
HETATM   11  N   UNK N   1      37.821  13.921  10.441  0.00  0.00    -0.345 N 
HETATM   12  N   UNK N   1      36.159  11.287  12.393  0.00  0.00    -0.154 N 
HETATM   13  O   UNK N   1      38.134  11.174  11.307  0.00  0.00    -0.265 OA
HETATM   14  C   UNK N   1      35.046  12.020  12.722  0.00  0.00     0.680 A 
HETATM   15  H   UNK N   1      36.238  10.356  12.704  0.00  0.00     0.187 HD
HETATM   16  N   UNK N   1      34.024  11.444  13.501  0.00  0.00    -0.234 N 
HETATM   17  H   UNK N   1      34.016  10.475  13.676  0.00  0.00     0.174 HD
HETATM   18  H   UNK N   1      33.313  12.013  13.872  0.00  0.00     0.174 HD
HETATM   19  C   UNK N   1      37.119  15.084  10.277  0.00  0.00     0.188 A 
ATOM     20  HN  UNK N   1      38.737  13.685  10.061  1.00  0.00     0.167 HD
ATOM     21  HN  UNK N   1      34.080  13.847  12.497  1.00  0.00     0.186 HD
ENDBRANCH   1   6
BRANCH   2  22
HETATM   22  O   UNK N   1      32.575  15.029  10.927  0.00  0.00    -0.388 OA
HETATM   23  H   UNK N   1      31.746  14.664  10.578  0.00  0.00     0.210 HD
ENDBRANCH   2  22
BRANCH   4  24
HETATM   24  O   UNK N   1      32.325  16.476   8.232  0.00  0.00    -0.286 OA
BRANCH  24  25
HETATM   25  P   UNK N   1      31.220  17.823   8.417  0.00  0.00     0.391 P 
HETATM   26  O   UNK N   1      29.797  17.492   7.900  0.00  0.00    -0.632 OA
BRANCH  25  27
HETATM   27  O   UNK N   1      31.440  17.511   6.723  0.00  0.00    -0.307 OA
HETATM   28  H   UNK N   1      30.830  17.657   5.984  0.00  0.00     0.222 HD
ENDBRANCH  25  27
BRANCH  25  29
HETATM   29  O   UNK N   1      30.676  16.543   9.458  0.00  0.00    -0.307 OA
HETATM   30  H   UNK N   1      30.787  16.464  10.417  0.00  0.00     0.222 HD
ENDBRANCH  25  29
ENDBRANCH  24  25
ENDBRANCH   4  24
BRANCH   5  31
HETATM   31  C   UNK N   1      34.764  18.283   8.085  0.00  0.00     0.198 C 
BRANCH  31  32
HETATM   32  O   UNK N   1      34.476  17.976   6.753  0.00  0.00    -0.398 OA
HETATM   33  H   UNK N   1      34.078  18.505   6.044  0.00  0.00     0.209 HD
ENDBRANCH  31  32
ENDBRANCH   5  31
TORSDOF 8
ENDMDL
MODEL 6
REMARK VINA RESULT:      -6.4      6.228      8.690
REMARK  8 active torsions:
REMARK  status: ('A' for Active; 'I' for Inactive)
REMARK    1  A    between atoms: C_2  and  N_1 
REMARK    2  A    between atoms: C_5  and  O_13 
REMARK    3  A    between atoms: C_12  and  O_17 
REMARK    4  A    between atoms: C_14  and  C_18 
REMARK       I    between atoms: C_16  and  N_21 
REMARK    5  A    between atoms: O_17  and  P_22 
REMARK    6  A    between atoms: C_18  and  O_23 
REMARK    7  A    between atoms: P_22  and  O_24 
REMARK    8  A    between atoms: P_22  and  O_25 
ROOT
HETATM    1  C   UNK N   1      31.388  15.672   6.883  0.00  0.00     0.262 C 
HETATM    2  C   UNK N   1      32.240  16.540   7.821  0.00  0.00     0.199 C 
HETATM    3  O   UNK N   1      32.268  14.878   6.113  0.00  0.00    -0.353 OA
HETATM    4  C   UNK N   1      33.509  15.733   7.770  0.00  0.00     0.197 C 
HETATM    5  C   UNK N   1      33.495  15.507   6.299  0.00  0.00     0.180 C 
ENDROOT
BRANCH   1   6
HETATM    6  N   UNK N   1      30.492  16.401   5.978  0.00  0.00    -0.297 N 
HETATM    7  C   UNK N   1      29.517  17.246   6.348  0.00  0.00     0.159 A 
HETATM    8  C   UNK N   1      29.119  17.967   5.287  0.00  0.00     0.147 A 
HETATM    9  N   UNK N   1      29.024  17.447   7.594  0.00  0.00    -0.174 N 
HETATM   10  C   UNK N   1      28.180  18.978   5.455  0.00  0.00     0.290 A 
HETATM   11  N   UNK N   1      29.807  17.586   4.193  0.00  0.00    -0.345 N 
HETATM   12  N   UNK N   1      27.664  19.181   6.718  0.00  0.00    -0.154 N 
HETATM   13  O   UNK N   1      27.842  19.689   4.526  0.00  0.00    -0.265 OA
HETATM   14  C   UNK N   1      28.078  18.411   7.777  0.00  0.00     0.680 A 
HETATM   15  H   UNK N   1      26.993  19.887   6.862  0.00  0.00     0.187 HD
HETATM   16  N   UNK N   1      27.543  18.630   9.061  0.00  0.00    -0.234 N 
HETATM   17  H   UNK N   1      27.001  19.430   9.247  0.00  0.00     0.174 HD
HETATM   18  H   UNK N   1      27.713  17.978   9.778  0.00  0.00     0.174 HD
HETATM   19  C   UNK N   1      30.667  16.626   4.651  0.00  0.00     0.188 A 
ATOM     20  HN  UNK N   1      29.710  17.934   3.240  1.00  0.00     0.167 HD
ATOM     21  HN  UNK N   1      29.355  16.886   8.380  1.00  0.00     0.186 HD
ENDBRANCH   1   6
BRANCH   2  22
HETATM   22  O   UNK N   1      31.716  16.554   9.114  0.00  0.00    -0.388 OA
HETATM   23  H   UNK N   1      32.311  16.616   9.878  0.00  0.00     0.210 HD
ENDBRANCH   2  22
BRANCH   4  24
HETATM   24  O   UNK N   1      34.657  16.366   8.260  0.00  0.00    -0.286 OA
BRANCH  24  25
HETATM   25  P   UNK N   1      34.885  15.614   9.826  0.00  0.00     0.391 P 
HETATM   26  O   UNK N   1      36.201  16.065  10.510  0.00  0.00    -0.632 OA
BRANCH  25  27
HETATM   27  O   UNK N   1      36.137  15.063   8.756  0.00  0.00    -0.307 OA
HETATM   28  H   UNK N   1      36.757  15.576   8.216  0.00  0.00     0.222 HD
ENDBRANCH  25  27
BRANCH  25  29
HETATM   29  O   UNK N   1      34.670  17.319  10.082  0.00  0.00    -0.307 OA
HETATM   30  H   UNK N   1      34.358  17.984   9.450  0.00  0.00     0.222 HD
ENDBRANCH  25  29
ENDBRANCH  24  25
ENDBRANCH   4  24
BRANCH   5  31
HETATM   31  C   UNK N   1      34.630  14.697   5.721  0.00  0.00     0.198 C 
BRANCH  31  32
HETATM   32  O   UNK N   1      35.810  15.428   5.877  0.00  0.00    -0.398 OA
HETATM   33  H   UNK N   1      36.360  15.601   6.657  0.00  0.00     0.209 HD
ENDBRANCH  31  32
ENDBRANCH   5  31
TORSDOF 8
ENDMDL
MODEL 7
REMARK VINA RESULT:      -6.3     18.076     20.864
REMARK  8 active torsions:
REMARK  status: ('A' for Active; 'I' for Inactive)
REMARK    1  A    between atoms: C_2  and  N_1 
REMARK    2  A    between atoms: C_5  and  O_13 
REMARK    3  A    between atoms: C_12  and  O_17 
REMARK    4  A    between atoms: C_14  and  C_18 
REMARK       I    between atoms: C_16  and  N_21 
REMARK    5  A    between atoms: O_17  and  P_22 
REMARK    6  A    between atoms: C_18  and  O_23 
REMARK    7  A    between atoms: P_22  and  O_24 
REMARK    8  A    between atoms: P_22  and  O_25 
ROOT
HETATM    1  C   UNK N   1      28.723  24.347  -4.959  0.00  0.00     0.262 C 
HETATM    2  C   UNK N   1      29.088  22.929  -5.426  0.00  0.00     0.199 C 
HETATM    3  O   UNK N   1      28.963  24.417  -3.568  0.00  0.00    -0.353 OA
HETATM    4  C   UNK N   1      29.961  22.536  -4.266  0.00  0.00     0.197 C 
HETATM    5  C   UNK N   1      29.068  23.077  -3.205  0.00  0.00     0.180 C 
ENDROOT
BRANCH   1   6
HETATM    6  N   UNK N   1      27.344  24.771  -5.225  0.00  0.00    -0.297 N 
HETATM    7  C   UNK N   1      26.760  25.886  -4.758  0.00  0.00     0.159 A 
HETATM    8  C   UNK N   1      25.628  26.121  -5.442  0.00  0.00     0.147 A 
HETATM    9  N   UNK N   1      27.227  26.729  -3.807  0.00  0.00    -0.174 N 
HETATM   10  C   UNK N   1      24.903  27.280  -5.195  0.00  0.00     0.290 A 
HETATM   11  N   UNK N   1      25.434  25.146  -6.351  0.00  0.00    -0.345 N 
HETATM   12  N   UNK N   1      25.365  28.139  -4.220  0.00  0.00    -0.154 N 
HETATM   13  O   UNK N   1      23.906  27.553  -5.838  0.00  0.00    -0.265 OA
HETATM   14  C   UNK N   1      26.515  27.857  -3.524  0.00  0.00     0.680 A 
HETATM   15  H   UNK N   1      24.866  28.964  -4.021  0.00  0.00     0.187 HD
HETATM   16  N   UNK N   1      26.977  28.743  -2.531  0.00  0.00    -0.234 N 
HETATM   17  H   UNK N   1      26.581  29.640  -2.439  0.00  0.00     0.174 HD
HETATM   18  H   UNK N   1      27.699  28.464  -1.925  0.00  0.00     0.174 HD
HETATM   19  C   UNK N   1      26.523  24.329  -6.210  0.00  0.00     0.188 A 
ATOM     20  HN  UNK N   1      24.654  25.040  -6.999  1.00  0.00     0.167 HD
ATOM     21  HN  UNK N   1      28.096  26.524  -3.312  1.00  0.00     0.186 HD
ENDBRANCH   1   6
BRANCH   2  22
HETATM   22  O   UNK N   1      29.827  22.960  -6.610  0.00  0.00    -0.388 OA
HETATM   23  H   UNK N   1      30.464  23.674  -6.766  0.00  0.00     0.210 HD
ENDBRANCH   2  22
BRANCH   4  24
HETATM   24  O   UNK N   1      30.253  21.172  -4.154  0.00  0.00    -0.286 OA
BRANCH  24  25
HETATM   25  P   UNK N   1      31.912  21.076  -4.708  0.00  0.00     0.391 P 
HETATM   26  O   UNK N   1      32.477  19.635  -4.628  0.00  0.00    -0.632 OA
BRANCH  25  27
HETATM   27  O   UNK N   1      31.866  20.688  -3.015  0.00  0.00    -0.307 OA
HETATM   28  H   UNK N   1      31.563  19.879  -2.576  0.00  0.00     0.222 HD
ENDBRANCH  25  27
BRANCH  25  29
HETATM   29  O   UNK N   1      30.929  20.171  -5.818  0.00  0.00    -0.307 OA
HETATM   30  H   UNK N   1      30.374  20.508  -6.537  0.00  0.00     0.222 HD
ENDBRANCH  25  29
ENDBRANCH  24  25
ENDBRANCH   4  24
BRANCH   5  31
HETATM   31  C   UNK N   1      29.532  22.922  -1.777  0.00  0.00     0.198 C 
BRANCH  31  32
HETATM   32  O   UNK N   1      30.927  22.982  -1.763  0.00  0.00    -0.398 OA
HETATM   33  H   UNK N   1      31.537  23.735  -1.744  0.00  0.00     0.209 HD
ENDBRANCH  31  32
ENDBRANCH   5  31
TORSDOF 8
ENDMDL
MODEL 8
REMARK VINA RESULT:      -6.3     12.992     15.849
REMARK  8 active torsions:
REMARK  status: ('A' for Active; 'I' for Inactive)
REMARK    1  A    between atoms: C_2  and  N_1 
REMARK    2  A    between atoms: C_5  and  O_13 
REMARK    3  A    between atoms: C_12  and  O_17 
REMARK    4  A    between atoms: C_14  and  C_18 
REMARK       I    between atoms: C_16  and  N_21 
REMARK    5  A    between atoms: O_17  and  P_22 
REMARK    6  A    between atoms: C_18  and  O_23 
REMARK    7  A    between atoms: P_22  and  O_24 
REMARK    8  A    between atoms: P_22  and  O_25 
ROOT
HETATM    1  C   UNK N   1      22.240  19.383   3.930  0.00  0.00     0.262 C 
HETATM    2  C   UNK N   1      21.508  18.149   3.380  0.00  0.00     0.199 C 
HETATM    3  O   UNK N   1      21.807  20.506   3.190  0.00  0.00    -0.353 OA
HETATM    4  C   UNK N   1      20.372  18.858   2.694  0.00  0.00     0.197 C 
HETATM    5  C   UNK N   1      21.203  19.929   2.076  0.00  0.00     0.180 C 
ENDROOT
BRANCH   1   6
HETATM    6  N   UNK N   1      23.705  19.326   3.892  0.00  0.00    -0.297 N 
HETATM    7  C   UNK N   1      24.470  18.372   4.446  0.00  0.00     0.159 A 
HETATM    8  C   UNK N   1      25.718  18.453   3.954  0.00  0.00     0.147 A 
HETATM    9  N   UNK N   1      24.086  17.400   5.308  0.00  0.00    -0.174 N 
HETATM   10  C   UNK N   1      26.662  17.500   4.315  0.00  0.00     0.290 A 
HETATM   11  N   UNK N   1      25.800  19.483   3.090  0.00  0.00    -0.345 N 
HETATM   12  N   UNK N   1      26.283  16.513   5.201  0.00  0.00    -0.154 N 
HETATM   13  O   UNK N   1      27.784  17.510   3.842  0.00  0.00    -0.265 OA
HETATM   14  C   UNK N   1      25.005  16.472   5.701  0.00  0.00     0.680 A 
HETATM   15  H   UNK N   1      26.937  15.830   5.478  0.00  0.00     0.187 HD
HETATM   16  N   UNK N   1      24.631  15.459   6.605  0.00  0.00    -0.234 N 
HETATM   17  H   UNK N   1      25.220  14.685   6.759  0.00  0.00     0.174 HD
HETATM   18  H   UNK N   1      23.776  15.525   7.086  0.00  0.00     0.174 HD
HETATM   19  C   UNK N   1      24.533  19.998   3.053  0.00  0.00     0.188 A 
ATOM     20  HN  UNK N   1      26.621  19.805   2.578  1.00  0.00     0.167 HD
ATOM     21  HN  UNK N   1      23.127  17.363   5.656  1.00  0.00     0.186 HD
ENDBRANCH   1   6
BRANCH   2  22
HETATM   22  O   UNK N   1      21.032  17.340   4.412  0.00  0.00    -0.388 OA
HETATM   23  H   UNK N   1      21.431  16.470   4.570  0.00  0.00     0.210 HD
ENDBRANCH   2  22
BRANCH   4  24
HETATM   24  O   UNK N   1      19.629  18.091   1.789  0.00  0.00    -0.286 OA
BRANCH  24  25
HETATM   25  P   UNK N   1      20.745  16.815   1.344  0.00  0.00     0.391 P 
HETATM   26  O   UNK N   1      20.093  15.762   0.412  0.00  0.00    -0.632 OA
BRANCH  25  27
HETATM   27  O   UNK N   1      19.465  16.130   2.297  0.00  0.00    -0.307 OA
HETATM   28  H   UNK N   1      18.828  16.569   2.882  0.00  0.00     0.222 HD
ENDBRANCH  25  27
BRANCH  25  29
HETATM   29  O   UNK N   1      20.354  17.705  -0.096  0.00  0.00    -0.307 OA
HETATM   30  H   UNK N   1      20.045  18.620  -0.169  0.00  0.00     0.222 HD
ENDBRANCH  25  29
ENDBRANCH  24  25
ENDBRANCH   4  24
BRANCH   5  31
HETATM   31  C   UNK N   1      20.481  20.955   1.238  0.00  0.00     0.198 C 
BRANCH  31  32
HETATM   32  O   UNK N   1      20.568  20.563  -0.100  0.00  0.00    -0.398 OA
HETATM   33  H   UNK N   1      20.662  19.688  -0.508  0.00  0.00     0.209 HD
ENDBRANCH  31  32
ENDBRANCH   5  31
TORSDOF 8
ENDMDL
MODEL 9
REMARK VINA RESULT:      -6.3      5.566      8.734
REMARK  8 active torsions:
REMARK  status: ('A' for Active; 'I' for Inactive)
REMARK    1  A    between atoms: C_2  and  N_1 
REMARK    2  A    between atoms: C_5  and  O_13 
REMARK    3  A    between atoms: C_12  and  O_17 
REMARK    4  A    between atoms: C_14  and  C_18 
REMARK       I    between atoms: C_16  and  N_21 
REMARK    5  A    between atoms: O_17  and  P_22 
REMARK    6  A    between atoms: C_18  and  O_23 
REMARK    7  A    between atoms: P_22  and  O_24 
REMARK    8  A    between atoms: P_22  and  O_25 
ROOT
HETATM    1  C   UNK N   1      31.766  16.238   7.710  0.00  0.00     0.262 C 
HETATM    2  C   UNK N   1      32.131  15.960   9.177  0.00  0.00     0.199 C 
HETATM    3  O   UNK N   1      32.790  17.040   7.157  0.00  0.00    -0.353 OA
HETATM    4  C   UNK N   1      33.601  16.267   9.097  0.00  0.00     0.197 C 
HETATM    5  C   UNK N   1      33.461  17.506   8.284  0.00  0.00     0.180 C 
ENDROOT
BRANCH   1   6
HETATM    6  N   UNK N   1      30.474  16.898   7.488  0.00  0.00    -0.297 N 
HETATM    7  C   UNK N   1      29.864  17.054   6.303  0.00  0.00     0.159 A 
HETATM    8  C   UNK N   1      28.581  17.402   6.500  0.00  0.00     0.147 A 
HETATM    9  N   UNK N   1      30.379  16.830   5.070  0.00  0.00    -0.174 N 
HETATM   10  C   UNK N   1      27.727  17.524   5.411  0.00  0.00     0.290 A 
HETATM   11  N   UNK N   1      28.336  17.511   7.820  0.00  0.00    -0.345 N 
HETATM   12  N   UNK N   1      28.246  17.310   4.151  0.00  0.00    -0.154 N 
HETATM   13  O   UNK N   1      26.546  17.780   5.558  0.00  0.00    -0.265 OA
HETATM   14  C   UNK N   1      29.568  16.976   3.984  0.00  0.00     0.680 A 
HETATM   15  H   UNK N   1      27.663  17.397   3.362  0.00  0.00     0.187 HD
HETATM   16  N   UNK N   1      30.085  16.759   2.692  0.00  0.00    -0.234 N 
HETATM   17  H   UNK N   1      29.481  16.683   1.919  0.00  0.00     0.174 HD
HETATM   18  H   UNK N   1      31.058  16.685   2.562  0.00  0.00     0.174 HD
HETATM   19  C   UNK N   1      29.522  17.174   8.414  0.00  0.00     0.188 A 
ATOM     20  HN  UNK N   1      27.465  17.781   8.274  1.00  0.00     0.167 HD
ATOM     21  HN  UNK N   1      31.357  16.559   4.958  1.00  0.00     0.186 HD
ENDBRANCH   1   6
BRANCH   2  22
HETATM   22  O   UNK N   1      31.924  14.619   9.504  0.00  0.00    -0.388 OA
HETATM   23  H   UNK N   1      31.709  14.371  10.417  0.00  0.00     0.210 HD
ENDBRANCH   2  22
BRANCH   4  24
HETATM   24  O   UNK N   1      34.259  16.435  10.321  0.00  0.00    -0.286 OA
BRANCH  24  25
HETATM   25  P   UNK N   1      35.387  15.094  10.350  0.00  0.00     0.391 P 
HETATM   26  O   UNK N   1      36.044  14.908  11.742  0.00  0.00    -0.632 OA
BRANCH  25  27
HETATM   27  O   UNK N   1      36.266  16.569  10.611  0.00  0.00    -0.307 OA
HETATM   28  H   UNK N   1      36.333  17.355  10.048  0.00  0.00     0.222 HD
ENDBRANCH  25  27
BRANCH  25  29
HETATM   29  O   UNK N   1      34.060  14.695  11.398  0.00  0.00    -0.307 OA
HETATM   30  H   UNK N   1      33.474  13.925  11.354  0.00  0.00     0.222 HD
ENDBRANCH  25  29
ENDBRANCH  24  25
ENDBRANCH   4  24
BRANCH   5  31
HETATM   31  C   UNK N   1      34.733  18.229   7.916  0.00  0.00     0.198 C 
BRANCH  31  32
HETATM   32  O   UNK N   1      35.315  18.712   9.090  0.00  0.00    -0.398 OA
HETATM   33  H   UNK N   1      35.963  18.318   9.695  0.00  0.00     0.209 HD
ENDBRANCH  31  32
ENDBRANCH   5  31
TORSDOF 8
ENDMDL
