MODEL 1
REMARK VINA RESULT:      -4.7      0.000      0.000
REMARK  6 active torsions:
REMARK  status: ('A' for Active; 'I' for Inactive)
REMARK    1  A    between atoms: C_2  and  N_1 
REMARK    2  A    between atoms: C_2  and  C_3 
REMARK    3  A    between atoms: C_2  and  C_8 
REMARK    4  A    between atoms: C_3  and  C_4 
REMARK    5  A    between atoms: C_4  and  C_5 
REMARK    6  A    between atoms: C_5  and  O_6 
REMARK       I    between atoms: C_8  and  N_9 
ROOT
HETATM    1  C   UNK N   1      34.395  15.743  10.133  0.00  0.00     0.167 C 
ENDROOT
BRANCH   1   2
HETATM    2  N   UNK N   1      33.569  14.946  11.021  0.00  0.00    -0.418 N 
HETATM    3  H   UNK N   1      33.949  14.608  11.905  0.00  0.00     0.150 HD
HETATM    4  H   UNK N   1      32.608  14.724  10.761  0.00  0.00     0.150 HD
ENDBRANCH   1   2
BRANCH   1   5
HETATM    5  C   UNK N   1      33.866  15.914   8.710  0.00  0.00     0.044 C 
BRANCH   5   6
HETATM    6  C   UNK N   1      33.299  17.298   8.447  0.00  0.00     0.112 C 
BRANCH   6   7
HETATM    7  C   UNK N   1      34.252  18.174   7.703  0.00  0.00     0.139 C 
HETATM    8  O   UNK N   1      34.374  18.034   6.499  0.00  0.00    -0.650 OA
BRANCH   7   9
HETATM    9  O   UNK N   1      34.977  19.114   8.344  0.00  0.00    -0.776 OA
HETATM   10  H   UNK N   1      35.544  19.681   7.859  0.00  0.00     0.167 HD
ENDBRANCH   7   9
ENDBRANCH   6   7
ENDBRANCH   5   6
ENDBRANCH   1   5
BRANCH   1  11
HETATM   11  C   UNK N   1      35.674  16.310  10.705  0.00  0.00     0.237 C 
HETATM   12  N   UNK N   1      36.536  15.498  11.349  0.00  0.00    -0.368 N 
HETATM   13  H   UNK N   1      37.370  15.864  11.723  0.00  0.00     0.159 HD
HETATM   14  H   UNK N   1      36.331  14.540  11.445  0.00  0.00     0.159 HD
HETATM   15  O   UNK N   1      35.939  17.495  10.593  0.00  0.00    -0.271 OA
ENDBRANCH   1  11
TORSDOF 6
ENDMDL
MODEL 2
REMARK VINA RESULT:      -4.5     12.716     13.386
REMARK  6 active torsions:
REMARK  status: ('A' for Active; 'I' for Inactive)
REMARK    1  A    between atoms: C_2  and  N_1 
REMARK    2  A    between atoms: C_2  and  C_3 
REMARK    3  A    between atoms: C_2  and  C_8 
REMARK    4  A    between atoms: C_3  and  C_4 
REMARK    5  A    between atoms: C_4  and  C_5 
REMARK    6  A    between atoms: C_5  and  O_6 
REMARK       I    between atoms: C_8  and  N_9 
ROOT
HETATM    1  C   UNK N   1      23.647  12.316  11.127  0.00  0.00     0.167 C 
ENDROOT
BRANCH   1   2
HETATM    2  N   UNK N   1      25.047  12.629  10.907  0.00  0.00    -0.418 N 
HETATM    3  H   UNK N   1      25.716  12.542  11.671  0.00  0.00     0.150 HD
HETATM    4  H   UNK N   1      25.363  12.936   9.986  0.00  0.00     0.150 HD
ENDBRANCH   1   2
BRANCH   1   5
HETATM    5  C   UNK N   1      22.752  12.377   9.890  0.00  0.00     0.044 C 
BRANCH   5   6
HETATM    6  C   UNK N   1      22.025  13.702   9.744  0.00  0.00     0.112 C 
BRANCH   6   7
HETATM    7  C   UNK N   1      20.553  13.574   9.961  0.00  0.00     0.139 C 
HETATM    8  O   UNK N   1      20.139  12.744  10.750  0.00  0.00    -0.650 OA
BRANCH   7   9
HETATM    9  O   UNK N   1      19.682  14.363   9.299  0.00  0.00    -0.776 OA
HETATM   10  H   UNK N   1      19.385  15.162   9.687  0.00  0.00     0.167 HD
ENDBRANCH   7   9
ENDBRANCH   6   7
ENDBRANCH   5   6
ENDBRANCH   1   5
BRANCH   1  11
HETATM   11  C   UNK N   1      23.232  11.969  12.537  0.00  0.00     0.237 C 
HETATM   12  N   UNK N   1      21.987  11.509  12.775  0.00  0.00    -0.368 N 
HETATM   13  H   UNK N   1      21.713  11.282  13.693  0.00  0.00     0.159 HD
HETATM   14  H   UNK N   1      21.352  11.402  12.030  0.00  0.00     0.159 HD
HETATM   15  O   UNK N   1      24.008  12.097  13.469  0.00  0.00    -0.271 OA
ENDBRANCH   1  11
TORSDOF 6
ENDMDL
MODEL 3
REMARK VINA RESULT:      -4.5     15.766     16.749
REMARK  6 active torsions:
REMARK  status: ('A' for Active; 'I' for Inactive)
REMARK    1  A    between atoms: C_2  and  N_1 
REMARK    2  A    between atoms: C_2  and  C_3 
REMARK    3  A    between atoms: C_2  and  C_8 
REMARK    4  A    between atoms: C_3  and  C_4 
REMARK    5  A    between atoms: C_4  and  C_5 
REMARK    6  A    between atoms: C_5  and  O_6 
REMARK       I    between atoms: C_8  and  N_9 
ROOT
HETATM    1  C   UNK N   1      20.021  17.091   2.113  0.00  0.00     0.167 C 
ENDROOT
BRANCH   1   2
HETATM    2  N   UNK N   1      19.449  16.190   3.098  0.00  0.00    -0.418 N 
HETATM    3  H   UNK N   1      18.684  15.569   2.837  0.00  0.00     0.150 HD
HETATM    4  H   UNK N   1      19.813  16.179   4.051  0.00  0.00     0.150 HD
ENDBRANCH   1   2
BRANCH   1   5
HETATM    5  C   UNK N   1      20.789  18.286   2.675  0.00  0.00     0.044 C 
BRANCH   5   6
HETATM    6  C   UNK N   1      20.092  19.613   2.427  0.00  0.00     0.112 C 
BRANCH   6   7
HETATM    7  C   UNK N   1      20.814  20.462   1.435  0.00  0.00     0.139 C 
HETATM    8  O   UNK N   1      21.652  21.254   1.828  0.00  0.00    -0.650 OA
BRANCH   7   9
HETATM    9  O   UNK N   1      20.553  20.364   0.115  0.00  0.00    -0.776 OA
HETATM   10  H   UNK N   1      21.039  19.764  -0.415  0.00  0.00     0.167 HD
ENDBRANCH   7   9
ENDBRANCH   6   7
ENDBRANCH   5   6
ENDBRANCH   1   5
BRANCH   1  11
HETATM   11  C   UNK N   1      19.798  16.752   0.658  0.00  0.00     0.237 C 
HETATM   12  N   UNK N   1      18.958  15.752   0.325  0.00  0.00    -0.368 N 
HETATM   13  H   UNK N   1      18.809  15.528  -0.622  0.00  0.00     0.159 HD
HETATM   14  H   UNK N   1      18.493  15.245   1.030  0.00  0.00     0.159 HD
HETATM   15  O   UNK N   1      20.367  17.372  -0.225  0.00  0.00    -0.271 OA
ENDBRANCH   1  11
TORSDOF 6
ENDMDL
MODEL 4
REMARK VINA RESULT:      -4.5      1.637      1.719
REMARK  6 active torsions:
REMARK  status: ('A' for Active; 'I' for Inactive)
REMARK    1  A    between atoms: C_2  and  N_1 
REMARK    2  A    between atoms: C_2  and  C_3 
REMARK    3  A    between atoms: C_2  and  C_8 
REMARK    4  A    between atoms: C_3  and  C_4 
REMARK    5  A    between atoms: C_4  and  C_5 
REMARK    6  A    between atoms: C_5  and  O_6 
REMARK       I    between atoms: C_8  and  N_9 
ROOT
HETATM    1  C   UNK N   1      34.516  15.492  10.837  0.00  0.00     0.167 C 
ENDROOT
BRANCH   1   2
HETATM    2  N   UNK N   1      33.136  15.108  10.598  0.00  0.00    -0.418 N 
HETATM    3  H   UNK N   1      32.539  14.841  11.379  0.00  0.00     0.150 HD
HETATM    4  H   UNK N   1      32.765  15.107   9.647  0.00  0.00     0.150 HD
ENDBRANCH   1   2
BRANCH   1   5
HETATM    5  C   UNK N   1      35.007  16.717  10.068  0.00  0.00     0.044 C 
BRANCH   5   6
HETATM    6  C   UNK N   1      34.018  17.200   9.022  0.00  0.00     0.112 C 
BRANCH   6   7
HETATM    7  C   UNK N   1      34.606  18.225   8.109  0.00  0.00     0.139 C 
HETATM    8  O   UNK N   1      34.413  18.135   6.910  0.00  0.00    -0.650 OA
BRANCH   7   9
HETATM    9  O   UNK N   1      35.344  19.245   8.593  0.00  0.00    -0.776 OA
HETATM   10  H   UNK N   1      36.228  19.360   8.308  0.00  0.00     0.167 HD
ENDBRANCH   7   9
ENDBRANCH   6   7
ENDBRANCH   5   6
ENDBRANCH   1   5
BRANCH   1  11
HETATM   11  C   UNK N   1      35.307  14.648  11.809  0.00  0.00     0.237 C 
HETATM   12  N   UNK N   1      36.654  14.700  11.799  0.00  0.00    -0.368 N 
HETATM   13  H   UNK N   1      37.173  14.151  12.431  0.00  0.00     0.159 HD
HETATM   14  H   UNK N   1      37.118  15.287  11.159  0.00  0.00     0.159 HD
HETATM   15  O   UNK N   1      34.744  13.917  12.607  0.00  0.00    -0.271 OA
ENDBRANCH   1  11
TORSDOF 6
ENDMDL
MODEL 5
REMARK VINA RESULT:      -4.4      6.295      8.356
REMARK  6 active torsions:
REMARK  status: ('A' for Active; 'I' for Inactive)
REMARK    1  A    between atoms: C_2  and  N_1 
REMARK    2  A    between atoms: C_2  and  C_3 
REMARK    3  A    between atoms: C_2  and  C_8 
REMARK    4  A    between atoms: C_3  and  C_4 
REMARK    5  A    between atoms: C_4  and  C_5 
REMARK    6  A    between atoms: C_5  and  O_6 
REMARK       I    between atoms: C_8  and  N_9 
ROOT
HETATM    1  C   UNK N   1      36.396  13.780  15.024  0.00  0.00     0.167 C 
ENDROOT
BRANCH   1   2
HETATM    2  N   UNK N   1      37.316  14.824  15.440  0.00  0.00    -0.418 N 
HETATM    3  H   UNK N   1      37.101  15.398  16.254  0.00  0.00     0.150 HD
HETATM    4  H   UNK N   1      38.178  14.982  14.917  0.00  0.00     0.150 HD
ENDBRANCH   1   2
BRANCH   1   5
HETATM    5  C   UNK N   1      35.955  12.810  16.119  0.00  0.00     0.044 C 
BRANCH   5   6
HETATM    6  C   UNK N   1      34.827  13.354  16.978  0.00  0.00     0.112 C 
BRANCH   6   7
HETATM    7  C   UNK N   1      35.320  13.965  18.248  0.00  0.00     0.139 C 
HETATM    8  O   UNK N   1      35.139  13.378  19.300  0.00  0.00    -0.650 OA
BRANCH   7   9
HETATM    9  O   UNK N   1      35.959  15.153  18.246  0.00  0.00    -0.776 OA
HETATM   10  H   UNK N   1      36.708  15.281  17.698  0.00  0.00     0.167 HD
ENDBRANCH   7   9
ENDBRANCH   6   7
ENDBRANCH   5   6
ENDBRANCH   1   5
BRANCH   1  11
HETATM   11  C   UNK N   1      35.981  13.767  13.571  0.00  0.00     0.237 C 
HETATM   12  N   UNK N   1      36.909  13.934  12.608  0.00  0.00    -0.368 N 
HETATM   13  H   UNK N   1      36.642  13.926  11.661  0.00  0.00     0.159 HD
HETATM   14  H   UNK N   1      37.854  14.064  12.853  0.00  0.00     0.159 HD
HETATM   15  O   UNK N   1      34.814  13.607  13.254  0.00  0.00    -0.271 OA
ENDBRANCH   1  11
TORSDOF 6
ENDMDL
MODEL 6
REMARK VINA RESULT:      -4.3     12.825     13.428
REMARK  6 active torsions:
REMARK  status: ('A' for Active; 'I' for Inactive)
REMARK    1  A    between atoms: C_2  and  N_1 
REMARK    2  A    between atoms: C_2  and  C_3 
REMARK    3  A    between atoms: C_2  and  C_8 
REMARK    4  A    between atoms: C_3  and  C_4 
REMARK    5  A    between atoms: C_4  and  C_5 
REMARK    6  A    between atoms: C_5  and  O_6 
REMARK       I    between atoms: C_8  and  N_9 
ROOT
HETATM    1  C   UNK N   1      22.329  12.121  11.194  0.00  0.00     0.167 C 
ENDROOT
BRANCH   1   2
HETATM    2  N   UNK N   1      21.150  11.752  11.957  0.00  0.00    -0.418 N 
HETATM    3  H   UNK N   1      20.764  10.812  11.877  0.00  0.00     0.150 HD
HETATM    4  H   UNK N   1      20.707  12.434  12.572  0.00  0.00     0.150 HD
ENDBRANCH   1   2
BRANCH   1   5
HETATM    5  C   UNK N   1      22.085  12.480   9.729  0.00  0.00     0.044 C 
BRANCH   5   6
HETATM    6  C   UNK N   1      21.960  13.975   9.494  0.00  0.00     0.112 C 
BRANCH   6   7
HETATM    7  C   UNK N   1      20.539  14.435   9.484  0.00  0.00     0.139 C 
HETATM    8  O   UNK N   1      20.273  15.533   9.030  0.00  0.00    -0.650 OA
BRANCH   7   9
HETATM    9  O   UNK N   1      19.553  13.654   9.969  0.00  0.00    -0.776 OA
HETATM   10  H   UNK N   1      19.324  13.697  10.876  0.00  0.00     0.167 HD
ENDBRANCH   7   9
ENDBRANCH   6   7
ENDBRANCH   5   6
ENDBRANCH   1   5
BRANCH   1  11
HETATM   11  C   UNK N   1      23.652  12.110  11.923  0.00  0.00     0.237 C 
HETATM   12  N   UNK N   1      24.800  12.241  11.228  0.00  0.00    -0.368 N 
HETATM   13  H   UNK N   1      25.664  12.235  11.699  0.00  0.00     0.159 HD
HETATM   14  H   UNK N   1      24.773  12.344  10.249  0.00  0.00     0.159 HD
HETATM   15  O   UNK N   1      23.699  11.983  13.135  0.00  0.00    -0.271 OA
ENDBRANCH   1  11
TORSDOF 6
ENDMDL
MODEL 7
REMARK VINA RESULT:      -4.3     12.899     13.866
REMARK  6 active torsions:
REMARK  status: ('A' for Active; 'I' for Inactive)
REMARK    1  A    between atoms: C_2  and  N_1 
REMARK    2  A    between atoms: C_2  and  C_3 
REMARK    3  A    between atoms: C_2  and  C_8 
REMARK    4  A    between atoms: C_3  and  C_4 
REMARK    5  A    between atoms: C_4  and  C_5 
REMARK    6  A    between atoms: C_5  and  O_6 
REMARK       I    between atoms: C_8  and  N_9 
ROOT
HETATM    1  C   UNK N   1      21.526  13.548   9.680  0.00  0.00     0.167 C 
ENDROOT
BRANCH   1   2
HETATM    2  N   UNK N   1      22.705  13.640   8.836  0.00  0.00    -0.418 N 
HETATM    3  H   UNK N   1      23.623  13.780   9.257  0.00  0.00     0.150 HD
HETATM    4  H   UNK N   1      22.614  13.564   7.823  0.00  0.00     0.150 HD
ENDBRANCH   1   2
BRANCH   1   5
HETATM    5  C   UNK N   1      21.541  12.429  10.719  0.00  0.00     0.044 C 
BRANCH   5   6
HETATM    6  C   UNK N   1      22.841  11.644  10.733  0.00  0.00     0.112 C 
BRANCH   6   7
HETATM    7  C   UNK N   1      23.689  11.965  11.919  0.00  0.00     0.139 C 
HETATM    8  O   UNK N   1      23.198  11.917  13.033  0.00  0.00    -0.650 OA
BRANCH   7   9
HETATM    9  O   UNK N   1      24.987  12.304  11.774  0.00  0.00    -0.776 OA
HETATM   10  H   UNK N   1      25.346  13.007  12.278  0.00  0.00     0.167 HD
ENDBRANCH   7   9
ENDBRANCH   6   7
ENDBRANCH   5   6
ENDBRANCH   1   5
BRANCH   1  11
HETATM   11  C   UNK N   1      20.428  14.557   9.440  0.00  0.00     0.237 C 
HETATM   12  N   UNK N   1      20.722  15.745   8.876  0.00  0.00    -0.368 N 
HETATM   13  H   UNK N   1      20.009  16.406   8.718  0.00  0.00     0.159 HD
HETATM   14  H   UNK N   1      21.651  15.953   8.622  0.00  0.00     0.159 HD
HETATM   15  O   UNK N   1      19.274  14.313   9.750  0.00  0.00    -0.271 OA
ENDBRANCH   1  11
TORSDOF 6
ENDMDL
MODEL 8
REMARK VINA RESULT:      -4.2     15.642     16.375
REMARK  6 active torsions:
REMARK  status: ('A' for Active; 'I' for Inactive)
REMARK    1  A    between atoms: C_2  and  N_1 
REMARK    2  A    between atoms: C_2  and  C_3 
REMARK    3  A    between atoms: C_2  and  C_8 
REMARK    4  A    between atoms: C_3  and  C_4 
REMARK    5  A    between atoms: C_4  and  C_5 
REMARK    6  A    between atoms: C_5  and  O_6 
REMARK       I    between atoms: C_8  and  N_9 
ROOT
HETATM    1  C   UNK N   1      20.023  17.980   2.059  0.00  0.00     0.167 C 
ENDROOT
BRANCH   1   2
HETATM    2  N   UNK N   1      19.970  17.742   0.627  0.00  0.00    -0.418 N 
HETATM    3  H   UNK N   1      20.076  18.519  -0.023  0.00  0.00     0.150 HD
HETATM    4  H   UNK N   1      19.826  16.796   0.273  0.00  0.00     0.150 HD
ENDBRANCH   1   2
BRANCH   1   5
HETATM    5  C   UNK N   1      19.731  19.412   2.504  0.00  0.00     0.044 C 
BRANCH   5   6
HETATM    6  C   UNK N   1      20.904  20.353   2.295  0.00  0.00     0.112 C 
BRANCH   6   7
HETATM    7  C   UNK N   1      20.807  21.114   1.014  0.00  0.00     0.139 C 
HETATM    8  O   UNK N   1      21.103  20.561  -0.030  0.00  0.00    -0.650 OA
BRANCH   7   9
HETATM    9  O   UNK N   1      20.397  22.398   0.999  0.00  0.00    -0.776 OA
HETATM   10  H   UNK N   1      19.592  22.629   0.578  0.00  0.00     0.167 HD
ENDBRANCH   7   9
ENDBRANCH   6   7
ENDBRANCH   5   6
ENDBRANCH   1   5
BRANCH   1  11
HETATM   11  C   UNK N   1      20.357  16.800   2.942  0.00  0.00     0.237 C 
HETATM   12  N   UNK N   1      19.527  15.739   2.982  0.00  0.00    -0.368 N 
HETATM   13  H   UNK N   1      19.742  14.968   3.556  0.00  0.00     0.159 HD
HETATM   14  H   UNK N   1      18.707  15.735   2.437  0.00  0.00     0.159 HD
HETATM   15  O   UNK N   1      21.370  16.793   3.621  0.00  0.00    -0.271 OA
ENDBRANCH   1  11
TORSDOF 6
ENDMDL
MODEL 9
REMARK VINA RESULT:      -4.1      7.035      8.490
REMARK  6 active torsions:
REMARK  status: ('A' for Active; 'I' for Inactive)
REMARK    1  A    between atoms: C_2  and  N_1 
REMARK    2  A    between atoms: C_2  and  C_3 
REMARK    3  A    between atoms: C_2  and  C_8 
REMARK    4  A    between atoms: C_3  and  C_4 
REMARK    5  A    between atoms: C_4  and  C_5 
REMARK    6  A    between atoms: C_5  and  O_6 
REMARK       I    between atoms: C_8  and  N_9 
ROOT
HETATM    1  C   UNK N   1      35.143  12.685  17.493  0.00  0.00     0.167 C 
ENDROOT
BRANCH   1   2
HETATM    2  N   UNK N   1      35.173  11.277  17.847  0.00  0.00    -0.418 N 
HETATM    3  H   UNK N   1      34.327  10.714  17.771  0.00  0.00     0.150 HD
HETATM    4  H   UNK N   1      36.041  10.851  18.172  0.00  0.00     0.150 HD
ENDBRANCH   1   2
BRANCH   1   5
HETATM    5  C   UNK N   1      35.026  12.992  16.001  0.00  0.00     0.044 C 
BRANCH   5   6
HETATM    6  C   UNK N   1      36.360  12.951  15.278  0.00  0.00     0.112 C 
BRANCH   6   7
HETATM    7  C   UNK N   1      36.904  14.315  15.004  0.00  0.00     0.139 C 
HETATM    8  O   UNK N   1      37.472  14.919  15.896  0.00  0.00    -0.650 OA
BRANCH   7   9
HETATM    9  O   UNK N   1      36.774  14.883  13.788  0.00  0.00    -0.776 OA
HETATM   10  H   UNK N   1      36.945  14.382  13.015  0.00  0.00     0.167 HD
ENDBRANCH   7   9
ENDBRANCH   6   7
ENDBRANCH   5   6
ENDBRANCH   1   5
BRANCH   1  11
HETATM   11  C   UNK N   1      35.229  13.682  18.626  0.00  0.00     0.237 C 
HETATM   12  N   UNK N   1      35.659  14.936  18.382  0.00  0.00    -0.368 N 
HETATM   13  H   UNK N   1      35.716  15.588  19.117  0.00  0.00     0.159 HD
HETATM   14  H   UNK N   1      35.915  15.199  17.468  0.00  0.00     0.159 HD
HETATM   15  O   UNK N   1      34.914  13.369  19.762  0.00  0.00    -0.271 OA
ENDBRANCH   1  11
TORSDOF 6
ENDMDL
