MODEL 1
REMARK VINA RESULT:      -5.1      0.000      0.000
REMARK  10 active torsions:
REMARK  status: ('A' for Active; 'I' for Inactive)
REMARK    1  A    between atoms: C_2  and  C_1 
REMARK    2  A    between atoms: O_12  and  C_1 
REMARK    3  A    between atoms: C_3  and  C_2 
REMARK    4  A    between atoms: C_2  and  O_5 
REMARK    5  A    between atoms: C_4  and  C_3 
REMARK    6  A    between atoms: C_3  and  O_6 
REMARK    7  A    between atoms: O_8  and  C_4 
REMARK    8  A    between atoms: P_13  and  O_9 
REMARK    9  A    between atoms: P_13  and  O_10 
REMARK   10  A    between atoms: P_13  and  O_12 
ROOT
HETATM    1  C   UNK N   1      34.549  15.745  11.034  0.00  0.00     0.181 C 
ENDROOT
BRANCH   1   2
HETATM    2  C   UNK N   1      34.768  16.054   9.553  0.00  0.00     0.215 C 
BRANCH   2   3
HETATM    3  O   UNK N   1      34.837  17.443   9.366  0.00  0.00    -0.294 OA
BRANCH   3   4
HETATM    4  P   UNK N   1      33.744  17.798   8.054  0.00  0.00     0.390 P 
HETATM    5  O   UNK N   1      34.248  16.394   7.620  0.00  0.00    -0.632 OA
BRANCH   4   6
HETATM    6  O   UNK N   1      34.312  18.073   6.437  0.00  0.00    -0.307 OA
HETATM    7  H   UNK N   1      34.659  17.369   5.867  0.00  0.00     0.222 HD
ENDBRANCH   4   6
BRANCH   4   8
HETATM    8  O   UNK N   1      35.091  18.894   8.029  0.00  0.00    -0.307 OA
HETATM    9  H   UNK N   1      34.994  19.825   7.772  0.00  0.00     0.222 HD
ENDBRANCH   4   8
ENDBRANCH   3   4
ENDBRANCH   2   3
ENDBRANCH   1   2
BRANCH   1  10
HETATM   10  C   UNK N   1      35.860  15.702  11.842  0.00  0.00     0.246 C 
BRANCH  10  11
HETATM   11  C   UNK N   1      36.125  14.404  12.563  0.00  0.00     0.172 C 
HETATM   12  O   UNK N   1      35.326  14.009  13.399  0.00  0.00    -0.648 OA
BRANCH  11  13
HETATM   13  O   UNK N   1      37.214  13.660  12.287  0.00  0.00    -0.774 OA
HETATM   14  H   UNK N   1      38.068  13.989  12.485  0.00  0.00     0.167 HD
ENDBRANCH  11  13
ENDBRANCH  10  11
BRANCH  10  15
HETATM   15  O   UNK N   1      36.935  15.986  10.994  0.00  0.00    -0.382 OA
HETATM   16  H   UNK N   1      37.157  15.953  10.051  0.00  0.00     0.210 HD
ENDBRANCH  10  15
ENDBRANCH   1  10
BRANCH   1  17
HETATM   17  O   UNK N   1      33.850  14.542  11.170  0.00  0.00    -0.390 OA
HETATM   18  H   UNK N   1      33.137  14.048  10.735  0.00  0.00     0.210 HD
ENDBRANCH   1  17
TORSDOF 10
ENDMDL
MODEL 2
REMARK VINA RESULT:      -5.1      1.161      1.986
REMARK  10 active torsions:
REMARK  status: ('A' for Active; 'I' for Inactive)
REMARK    1  A    between atoms: C_2  and  C_1 
REMARK    2  A    between atoms: O_12  and  C_1 
REMARK    3  A    between atoms: C_3  and  C_2 
REMARK    4  A    between atoms: C_2  and  O_5 
REMARK    5  A    between atoms: C_4  and  C_3 
REMARK    6  A    between atoms: C_3  and  O_6 
REMARK    7  A    between atoms: O_8  and  C_4 
REMARK    8  A    between atoms: P_13  and  O_9 
REMARK    9  A    between atoms: P_13  and  O_10 
REMARK   10  A    between atoms: P_13  and  O_12 
ROOT
HETATM    1  C   UNK N   1      36.035  15.074  10.348  0.00  0.00     0.181 C 
ENDROOT
BRANCH   1   2
HETATM    2  C   UNK N   1      35.334  15.689   9.137  0.00  0.00     0.215 C 
BRANCH   2   3
HETATM    3  O   UNK N   1      35.225  17.077   9.311  0.00  0.00    -0.294 OA
BRANCH   3   4
HETATM    4  P   UNK N   1      34.236  17.642   7.989  0.00  0.00     0.390 P 
HETATM    5  O   UNK N   1      34.920  18.972   8.409  0.00  0.00    -0.632 OA
BRANCH   4   6
HETATM    6  O   UNK N   1      32.889  18.707   8.242  0.00  0.00    -0.307 OA
HETATM    7  H   UNK N   1      32.908  19.452   8.862  0.00  0.00     0.222 HD
ENDBRANCH   4   6
BRANCH   4   8
HETATM    8  O   UNK N   1      33.235  17.103   9.301  0.00  0.00    -0.307 OA
HETATM    9  H   UNK N   1      33.253  17.527  10.173  0.00  0.00     0.222 HD
ENDBRANCH   4   8
ENDBRANCH   3   4
ENDBRANCH   2   3
ENDBRANCH   1   2
BRANCH   1  10
HETATM   10  C   UNK N   1      35.076  14.298  11.271  0.00  0.00     0.246 C 
BRANCH  10  11
HETATM   11  C   UNK N   1      35.617  13.993  12.646  0.00  0.00     0.172 C 
HETATM   12  O   UNK N   1      34.844  13.671  13.536  0.00  0.00    -0.648 OA
BRANCH  11  13
HETATM   13  O   UNK N   1      36.938  14.047  12.904  0.00  0.00    -0.774 OA
HETATM   14  H   UNK N   1      37.513  14.493  12.315  0.00  0.00     0.167 HD
ENDBRANCH  11  13
ENDBRANCH  10  11
BRANCH  10  15
HETATM   15  O   UNK N   1      33.877  15.007  11.394  0.00  0.00    -0.382 OA
HETATM   16  H   UNK N   1      33.012  14.922  11.824  0.00  0.00     0.210 HD
ENDBRANCH  10  15
ENDBRANCH   1  10
BRANCH   1  17
HETATM   17  O   UNK N   1      36.706  16.069  11.064  0.00  0.00    -0.390 OA
HETATM   18  H   UNK N   1      36.723  17.035  11.150  0.00  0.00     0.210 HD
ENDBRANCH   1  17
TORSDOF 10
ENDMDL
MODEL 3
REMARK VINA RESULT:      -5.0      2.727      5.477
REMARK  10 active torsions:
REMARK  status: ('A' for Active; 'I' for Inactive)
REMARK    1  A    between atoms: C_2  and  C_1 
REMARK    2  A    between atoms: O_12  and  C_1 
REMARK    3  A    between atoms: C_3  and  C_2 
REMARK    4  A    between atoms: C_2  and  O_5 
REMARK    5  A    between atoms: C_4  and  C_3 
REMARK    6  A    between atoms: C_3  and  O_6 
REMARK    7  A    between atoms: O_8  and  C_4 
REMARK    8  A    between atoms: P_13  and  O_9 
REMARK    9  A    between atoms: P_13  and  O_10 
REMARK   10  A    between atoms: P_13  and  O_12 
ROOT
HETATM    1  C   UNK N   1      34.507  14.349  10.604  0.00  0.00     0.181 C 
ENDROOT
BRANCH   1   2
HETATM    2  C   UNK N   1      35.190  13.426  11.614  0.00  0.00     0.215 C 
BRANCH   2   3
HETATM    3  O   UNK N   1      34.995  13.921  12.912  0.00  0.00    -0.294 OA
BRANCH   3   4
HETATM    4  P   UNK N   1      36.159  13.093  13.913  0.00  0.00     0.390 P 
HETATM    5  O   UNK N   1      35.067  13.414  14.970  0.00  0.00    -0.632 OA
BRANCH   4   6
HETATM    6  O   UNK N   1      37.051  13.917  15.154  0.00  0.00    -0.307 OA
HETATM    7  H   UNK N   1      37.627  13.461  15.788  0.00  0.00     0.222 HD
ENDBRANCH   4   6
BRANCH   4   8
HETATM    8  O   UNK N   1      36.819  14.592  13.336  0.00  0.00    -0.307 OA
HETATM    9  H   UNK N   1      37.713  14.889  13.573  0.00  0.00     0.222 HD
ENDBRANCH   4   8
ENDBRANCH   3   4
ENDBRANCH   2   3
ENDBRANCH   1   2
BRANCH   1  10
HETATM   10  C   UNK N   1      35.462  15.393   9.998  0.00  0.00     0.246 C 
BRANCH  10  11
HETATM   11  C   UNK N   1      34.898  16.787   9.884  0.00  0.00     0.172 C 
HETATM   12  O   UNK N   1      35.586  17.742  10.210  0.00  0.00    -0.648 OA
BRANCH  11  13
HETATM   13  O   UNK N   1      33.656  17.001   9.406  0.00  0.00    -0.774 OA
HETATM   14  H   UNK N   1      32.921  16.979   9.986  0.00  0.00     0.167 HD
ENDBRANCH  11  13
ENDBRANCH  10  11
BRANCH  10  15
HETATM   15  O   UNK N   1      36.641  15.434  10.750  0.00  0.00    -0.382 OA
HETATM   16  H   UNK N   1      37.438  14.902  10.898  0.00  0.00     0.210 HD
ENDBRANCH  10  15
ENDBRANCH   1  10
BRANCH   1  17
HETATM   17  O   UNK N   1      33.410  14.976  11.202  0.00  0.00    -0.390 OA
HETATM   18  H   UNK N   1      32.760  14.819  11.904  0.00  0.00     0.210 HD
ENDBRANCH   1  17
TORSDOF 10
ENDMDL
MODEL 4
REMARK VINA RESULT:      -4.9      1.671      2.531
REMARK  10 active torsions:
REMARK  status: ('A' for Active; 'I' for Inactive)
REMARK    1  A    between atoms: C_2  and  C_1 
REMARK    2  A    between atoms: O_12  and  C_1 
REMARK    3  A    between atoms: C_3  and  C_2 
REMARK    4  A    between atoms: C_2  and  O_5 
REMARK    5  A    between atoms: C_4  and  C_3 
REMARK    6  A    between atoms: C_3  and  O_6 
REMARK    7  A    between atoms: O_8  and  C_4 
REMARK    8  A    between atoms: P_13  and  O_9 
REMARK    9  A    between atoms: P_13  and  O_10 
REMARK   10  A    between atoms: P_13  and  O_12 
ROOT
HETATM    1  C   UNK N   1      34.763  14.227   9.271  0.00  0.00     0.181 C 
ENDROOT
BRANCH   1   2
HETATM    2  C   UNK N   1      34.584  15.212   8.116  0.00  0.00     0.215 C 
BRANCH   2   3
HETATM    3  O   UNK N   1      33.286  15.744   8.147  0.00  0.00    -0.294 OA
BRANCH   3   4
HETATM    4  P   UNK N   1      33.388  17.287   7.338  0.00  0.00     0.390 P 
HETATM    5  O   UNK N   1      34.856  16.803   7.194  0.00  0.00    -0.632 OA
BRANCH   4   6
HETATM    6  O   UNK N   1      34.297  18.609   7.999  0.00  0.00    -0.307 OA
HETATM    7  H   UNK N   1      34.954  19.111   7.491  0.00  0.00     0.222 HD
ENDBRANCH   4   6
BRANCH   4   8
HETATM    8  O   UNK N   1      33.049  17.514   9.026  0.00  0.00    -0.307 OA
HETATM    9  H   UNK N   1      32.583  18.298   9.359  0.00  0.00     0.222 HD
ENDBRANCH   4   8
ENDBRANCH   3   4
ENDBRANCH   2   3
ENDBRANCH   1   2
BRANCH   1  10
HETATM   10  C   UNK N   1      34.781  14.911  10.651  0.00  0.00     0.246 C 
BRANCH  10  11
HETATM   11  C   UNK N   1      35.674  16.123  10.753  0.00  0.00     0.172 C 
HETATM   12  O   UNK N   1      35.173  17.236  10.778  0.00  0.00    -0.648 OA
BRANCH  11  13
HETATM   13  O   UNK N   1      37.012  15.998  10.842  0.00  0.00    -0.774 OA
HETATM   14  H   UNK N   1      37.422  15.184  10.625  0.00  0.00     0.167 HD
ENDBRANCH  11  13
ENDBRANCH  10  11
BRANCH  10  15
HETATM   15  O   UNK N   1      33.477  15.269  11.007  0.00  0.00    -0.382 OA
HETATM   16  H   UNK N   1      33.013  15.957  11.509  0.00  0.00     0.210 HD
ENDBRANCH  10  15
ENDBRANCH   1  10
BRANCH   1  17
HETATM   17  O   UNK N   1      35.928  13.479   9.080  0.00  0.00    -0.390 OA
HETATM   18  H   UNK N   1      36.225  12.674   8.628  0.00  0.00     0.210 HD
ENDBRANCH   1  17
TORSDOF 10
ENDMDL
MODEL 5
REMARK VINA RESULT:      -4.7     15.221     16.961
REMARK  10 active torsions:
REMARK  status: ('A' for Active; 'I' for Inactive)
REMARK    1  A    between atoms: C_2  and  C_1 
REMARK    2  A    between atoms: O_12  and  C_1 
REMARK    3  A    between atoms: C_3  and  C_2 
REMARK    4  A    between atoms: C_2  and  O_5 
REMARK    5  A    between atoms: C_4  and  C_3 
REMARK    6  A    between atoms: C_3  and  O_6 
REMARK    7  A    between atoms: O_8  and  C_4 
REMARK    8  A    between atoms: P_13  and  O_9 
REMARK    9  A    between atoms: P_13  and  O_10 
REMARK   10  A    between atoms: P_13  and  O_12 
ROOT
HETATM    1  C   UNK N   1      20.091  18.500   2.639  0.00  0.00     0.181 C 
ENDROOT
BRANCH   1   2
HETATM    2  C   UNK N   1      20.275  17.676   3.914  0.00  0.00     0.215 C 
BRANCH   2   3
HETATM    3  O   UNK N   1      21.116  18.363   4.802  0.00  0.00    -0.294 OA
BRANCH   3   4
HETATM    4  P   UNK N   1      21.626  17.180   5.979  0.00  0.00     0.390 P 
HETATM    5  O   UNK N   1      20.197  16.660   5.667  0.00  0.00    -0.632 OA
BRANCH   4   6
HETATM    6  O   UNK N   1      20.900  17.081   7.552  0.00  0.00    -0.307 OA
HETATM    7  H   UNK N   1      20.338  16.341   7.834  0.00  0.00     0.222 HD
ENDBRANCH   4   6
BRANCH   4   8
HETATM    8  O   UNK N   1      21.490  18.745   6.719  0.00  0.00    -0.307 OA
HETATM    9  H   UNK N   1      21.712  18.897   7.651  0.00  0.00     0.222 HD
ENDBRANCH   4   8
ENDBRANCH   3   4
ENDBRANCH   2   3
ENDBRANCH   1   2
BRANCH   1  10
HETATM   10  C   UNK N   1      20.810  19.862   2.691  0.00  0.00     0.246 C 
BRANCH  10  11
HETATM   11  C   UNK N   1      20.824  20.628   1.392  0.00  0.00     0.172 C 
HETATM   12  O   UNK N   1      20.835  20.016   0.335  0.00  0.00    -0.648 OA
BRANCH  11  13
HETATM   13  O   UNK N   1      20.803  21.975   1.376  0.00  0.00    -0.774 OA
HETATM   14  H   UNK N   1      19.994  22.429   1.246  0.00  0.00     0.167 HD
ENDBRANCH  11  13
ENDBRANCH  10  11
BRANCH  10  15
HETATM   15  O   UNK N   1      20.230  20.653   3.688  0.00  0.00    -0.382 OA
HETATM   16  H   UNK N   1      19.392  20.735   4.167  0.00  0.00     0.210 HD
ENDBRANCH  10  15
ENDBRANCH   1  10
BRANCH   1  17
HETATM   17  O   UNK N   1      18.729  18.675   2.380  0.00  0.00    -0.390 OA
HETATM   18  H   UNK N   1      18.127  18.785   1.627  0.00  0.00     0.210 HD
ENDBRANCH   1  17
TORSDOF 10
ENDMDL
MODEL 6
REMARK VINA RESULT:      -4.6      3.034      3.782
REMARK  10 active torsions:
REMARK  status: ('A' for Active; 'I' for Inactive)
REMARK    1  A    between atoms: C_2  and  C_1 
REMARK    2  A    between atoms: O_12  and  C_1 
REMARK    3  A    between atoms: C_3  and  C_2 
REMARK    4  A    between atoms: C_2  and  O_5 
REMARK    5  A    between atoms: C_4  and  C_3 
REMARK    6  A    between atoms: C_3  and  O_6 
REMARK    7  A    between atoms: O_8  and  C_4 
REMARK    8  A    between atoms: P_13  and  O_9 
REMARK    9  A    between atoms: P_13  and  O_10 
REMARK   10  A    between atoms: P_13  and  O_12 
ROOT
HETATM    1  C   UNK N   1      36.430  12.747  11.801  0.00  0.00     0.181 C 
ENDROOT
BRANCH   1   2
HETATM    2  C   UNK N   1      35.422  13.027  10.685  0.00  0.00     0.215 C 
BRANCH   2   3
HETATM    3  O   UNK N   1      35.800  14.185   9.989  0.00  0.00    -0.294 OA
BRANCH   3   4
HETATM    4  P   UNK N   1      34.397  15.222  10.002  0.00  0.00     0.390 P 
HETATM    5  O   UNK N   1      35.061  15.642  11.341  0.00  0.00    -0.632 OA
BRANCH   4   6
HETATM    6  O   UNK N   1      33.114  15.014  11.152  0.00  0.00    -0.307 OA
HETATM    7  H   UNK N   1      32.187  14.885  10.898  0.00  0.00     0.222 HD
ENDBRANCH   4   6
BRANCH   4   8
HETATM    8  O   UNK N   1      33.916  13.558  10.126  0.00  0.00    -0.307 OA
HETATM    9  H   UNK N   1      32.997  13.275   9.995  0.00  0.00     0.222 HD
ENDBRANCH   4   8
ENDBRANCH   3   4
ENDBRANCH   2   3
ENDBRANCH   1   2
BRANCH   1  10
HETATM   10  C   UNK N   1      35.812  12.840  13.209  0.00  0.00     0.246 C 
BRANCH  10  11
HETATM   11  C   UNK N   1      36.513  13.784  14.154  0.00  0.00     0.172 C 
HETATM   12  O   UNK N   1      36.916  13.367  15.229  0.00  0.00    -0.648 OA
BRANCH  11  13
HETATM   13  O   UNK N   1      36.724  15.074  13.825  0.00  0.00    -0.774 OA
HETATM   14  H   UNK N   1      36.921  15.701  14.492  0.00  0.00     0.167 HD
ENDBRANCH  11  13
ENDBRANCH  10  11
BRANCH  10  15
HETATM   15  O   UNK N   1      34.468  13.209  13.101  0.00  0.00    -0.382 OA
HETATM   16  H   UNK N   1      33.649  13.166  13.619  0.00  0.00     0.210 HD
ENDBRANCH  10  15
ENDBRANCH   1  10
BRANCH   1  17
HETATM   17  O   UNK N   1      37.519  13.615  11.685  0.00  0.00    -0.390 OA
HETATM   18  H   UNK N   1      38.488  13.596  11.724  0.00  0.00     0.210 HD
ENDBRANCH   1  17
TORSDOF 10
ENDMDL
MODEL 7
REMARK VINA RESULT:      -4.6      2.696      3.519
REMARK  10 active torsions:
REMARK  status: ('A' for Active; 'I' for Inactive)
REMARK    1  A    between atoms: C_2  and  C_1 
REMARK    2  A    between atoms: O_12  and  C_1 
REMARK    3  A    between atoms: C_3  and  C_2 
REMARK    4  A    between atoms: C_2  and  O_5 
REMARK    5  A    between atoms: C_4  and  C_3 
REMARK    6  A    between atoms: C_3  and  O_6 
REMARK    7  A    between atoms: O_8  and  C_4 
REMARK    8  A    between atoms: P_13  and  O_9 
REMARK    9  A    between atoms: P_13  and  O_10 
REMARK   10  A    between atoms: P_13  and  O_12 
ROOT
HETATM    1  C   UNK N   1      34.575  15.305  10.559  0.00  0.00     0.181 C 
ENDROOT
BRANCH   1   2
HETATM    2  C   UNK N   1      34.984  14.175   9.613  0.00  0.00     0.215 C 
BRANCH   2   3
HETATM    3  O   UNK N   1      36.140  14.544   8.910  0.00  0.00    -0.294 OA
BRANCH   3   4
HETATM    4  P   UNK N   1      37.018  13.061   8.634  0.00  0.00     0.390 P 
HETATM    5  O   UNK N   1      35.949  12.564   9.645  0.00  0.00    -0.632 OA
BRANCH   4   6
HETATM    6  O   UNK N   1      37.976  12.319   9.876  0.00  0.00    -0.307 OA
HETATM    7  H   UNK N   1      38.889  12.581  10.072  0.00  0.00     0.222 HD
ENDBRANCH   4   6
BRANCH   4   8
HETATM    8  O   UNK N   1      38.033  14.220   9.435  0.00  0.00    -0.307 OA
HETATM    9  H   UNK N   1      38.685  13.960  10.105  0.00  0.00     0.222 HD
ENDBRANCH   4   8
ENDBRANCH   3   4
ENDBRANCH   2   3
ENDBRANCH   1   2
BRANCH   1  10
HETATM   10  C   UNK N   1      35.634  15.601  11.637  0.00  0.00     0.246 C 
BRANCH  10  11
HETATM   11  C   UNK N   1      36.027  14.421  12.491  0.00  0.00     0.172 C 
HETATM   12  O   UNK N   1      35.258  14.023  13.353  0.00  0.00    -0.648 OA
BRANCH  11  13
HETATM   13  O   UNK N   1      37.199  13.783  12.305  0.00  0.00    -0.774 OA
HETATM   14  H   UNK N   1      37.296  12.893  12.579  0.00  0.00     0.167 HD
ENDBRANCH  11  13
ENDBRANCH  10  11
BRANCH  10  15
HETATM   15  O   UNK N   1      36.777  16.132  11.031  0.00  0.00    -0.382 OA
HETATM   16  H   UNK N   1      37.519  15.841  10.478  0.00  0.00     0.210 HD
ENDBRANCH  10  15
ENDBRANCH   1  10
BRANCH   1  17
HETATM   17  O   UNK N   1      33.344  15.008  11.149  0.00  0.00    -0.390 OA
HETATM   18  H   UNK N   1      32.427  14.820  10.894  0.00  0.00     0.210 HD
ENDBRANCH   1  17
TORSDOF 10
ENDMDL
MODEL 8
REMARK VINA RESULT:      -4.5     15.849     17.298
REMARK  10 active torsions:
REMARK  status: ('A' for Active; 'I' for Inactive)
REMARK    1  A    between atoms: C_2  and  C_1 
REMARK    2  A    between atoms: O_12  and  C_1 
REMARK    3  A    between atoms: C_3  and  C_2 
REMARK    4  A    between atoms: C_2  and  O_5 
REMARK    5  A    between atoms: C_4  and  C_3 
REMARK    6  A    between atoms: C_3  and  O_6 
REMARK    7  A    between atoms: O_8  and  C_4 
REMARK    8  A    between atoms: P_13  and  O_9 
REMARK    9  A    between atoms: P_13  and  O_10 
REMARK   10  A    between atoms: P_13  and  O_12 
ROOT
HETATM    1  C   UNK N   1      19.965  18.065   2.328  0.00  0.00     0.181 C 
ENDROOT
BRANCH   1   2
HETATM    2  C   UNK N   1      19.950  16.761   3.127  0.00  0.00     0.215 C 
BRANCH   2   3
HETATM    3  O   UNK N   1      19.099  16.897   4.234  0.00  0.00    -0.294 OA
BRANCH   3   4
HETATM    4  P   UNK N   1      19.228  15.396   5.114  0.00  0.00     0.390 P 
HETATM    5  O   UNK N   1      17.867  15.915   5.654  0.00  0.00    -0.632 OA
BRANCH   4   6
HETATM    6  O   UNK N   1      19.454  15.360   6.835  0.00  0.00    -0.307 OA
HETATM    7  H   UNK N   1      19.616  16.154   7.368  0.00  0.00     0.222 HD
ENDBRANCH   4   6
BRANCH   4   8
HETATM    8  O   UNK N   1      20.472  16.498   5.617  0.00  0.00    -0.307 OA
HETATM    9  H   UNK N   1      21.415  16.302   5.498  0.00  0.00     0.222 HD
ENDBRANCH   4   8
ENDBRANCH   3   4
ENDBRANCH   2   3
ENDBRANCH   1   2
BRANCH   1  10
HETATM   10  C   UNK N   1      21.095  19.021   2.754  0.00  0.00     0.246 C 
BRANCH  10  11
HETATM   11  C   UNK N   1      20.740  20.487   2.723  0.00  0.00     0.172 C 
HETATM   12  O   UNK N   1      20.910  21.123   1.694  0.00  0.00    -0.648 OA
BRANCH  11  13
HETATM   13  O   UNK N   1      20.217  21.102   3.802  0.00  0.00    -0.774 OA
HETATM   14  H   UNK N   1      19.971  22.005   3.753  0.00  0.00     0.167 HD
ENDBRANCH  11  13
ENDBRANCH  10  11
BRANCH  10  15
HETATM   15  O   UNK N   1      21.530  18.680   4.039  0.00  0.00    -0.382 OA
HETATM   16  H   UNK N   1      21.801  17.895   4.539  0.00  0.00     0.210 HD
ENDBRANCH  10  15
ENDBRANCH   1  10
BRANCH   1  17
HETATM   17  O   UNK N   1      18.723  18.698   2.430  0.00  0.00    -0.390 OA
HETATM   18  H   UNK N   1      17.864  18.718   1.981  0.00  0.00     0.210 HD
ENDBRANCH   1  17
TORSDOF 10
ENDMDL
MODEL 9
REMARK VINA RESULT:      -4.5      2.154      5.399
REMARK  10 active torsions:
REMARK  status: ('A' for Active; 'I' for Inactive)
REMARK    1  A    between atoms: C_2  and  C_1 
REMARK    2  A    between atoms: O_12  and  C_1 
REMARK    3  A    between atoms: C_3  and  C_2 
REMARK    4  A    between atoms: C_2  and  O_5 
REMARK    5  A    between atoms: C_4  and  C_3 
REMARK    6  A    between atoms: C_3  and  O_6 
REMARK    7  A    between atoms: O_8  and  C_4 
REMARK    8  A    between atoms: P_13  and  O_9 
REMARK    9  A    between atoms: P_13  and  O_10 
REMARK   10  A    between atoms: P_13  and  O_12 
ROOT
HETATM    1  C   UNK N   1      34.542  16.034   9.338  0.00  0.00     0.181 C 
ENDROOT
BRANCH   1   2
HETATM    2  C   UNK N   1      35.333  15.911  10.641  0.00  0.00     0.215 C 
BRANCH   2   3
HETATM    3  O   UNK N   1      34.681  15.020  11.506  0.00  0.00    -0.294 OA
BRANCH   3   4
HETATM    4  P   UNK N   1      35.891  13.858  11.987  0.00  0.00     0.390 P 
HETATM    5  O   UNK N   1      34.873  13.692  13.148  0.00  0.00    -0.632 OA
BRANCH   4   6
HETATM    6  O   UNK N   1      36.874  14.089  13.399  0.00  0.00    -0.307 OA
HETATM    7  H   UNK N   1      37.635  13.529  13.615  0.00  0.00     0.222 HD
ENDBRANCH   4   6
BRANCH   4   8
HETATM    8  O   UNK N   1      36.541  15.467  12.055  0.00  0.00    -0.307 OA
HETATM    9  H   UNK N   1      36.183  16.192  11.519  0.00  0.00     0.222 HD
ENDBRANCH   4   8
ENDBRANCH   3   4
ENDBRANCH   2   3
ENDBRANCH   1   2
BRANCH   1  10
HETATM   10  C   UNK N   1      33.911  17.425   9.144  0.00  0.00     0.246 C 
BRANCH  10  11
HETATM   11  C   UNK N   1      34.591  18.299   8.119  0.00  0.00     0.172 C 
HETATM   12  O   UNK N   1      35.292  19.227   8.492  0.00  0.00    -0.648 OA
BRANCH  11  13
HETATM   13  O   UNK N   1      34.457  18.061   6.800  0.00  0.00    -0.774 OA
HETATM   14  H   UNK N   1      34.748  18.697   6.177  0.00  0.00     0.167 HD
ENDBRANCH  11  13
ENDBRANCH  10  11
BRANCH  10  15
HETATM   15  O   UNK N   1      32.563  17.279   8.804  0.00  0.00    -0.382 OA
HETATM   16  H   UNK N   1      31.979  16.638   8.370  0.00  0.00     0.210 HD
ENDBRANCH  10  15
ENDBRANCH   1  10
BRANCH   1  17
HETATM   17  O   UNK N   1      33.562  15.039   9.284  0.00  0.00    -0.390 OA
HETATM   18  H   UNK N   1      32.603  14.951   9.166  0.00  0.00     0.210 HD
ENDBRANCH   1  17
TORSDOF 10
ENDMDL
