MODEL 1
REMARK VINA RESULT:      -7.5      0.000      0.000
REMARK  12 active torsions:
REMARK  status: ('A' for Active; 'I' for Inactive)
REMARK    1  A    between atoms: C_4  and  C_1 
REMARK    2  A    between atoms: O_25  and  C_1 
REMARK    3  A    between atoms: C_6  and  O_17 
REMARK    4  A    between atoms: C_7  and  O_18 
REMARK    5  A    between atoms: S_29  and  C_9 
REMARK    6  A    between atoms: C_10  and  N_16 
REMARK    7  A    between atoms: P_27  and  O_19 
REMARK    8  A    between atoms: P_27  and  O_20 
REMARK    9  A    between atoms: P_28  and  O_22 
REMARK   10  A    between atoms: P_28  and  O_23 
REMARK   11  A    between atoms: P_27  and  O_25 
REMARK   12  A    between atoms: S_29  and  P_28 
ROOT
HETATM    1  C   UNK N   1      38.190  13.990  10.007  0.00  0.00     0.183 A 
HETATM    2  C   UNK N   1      33.793  14.303  10.465  0.00  0.00     0.188 A 
HETATM    3  C   UNK N   1      35.708  13.532  11.040  0.00  0.00     0.112 A 
HETATM    4  C   UNK N   1      35.877  14.319   9.965  0.00  0.00     0.141 A 
HETATM    5  C   UNK N   1      36.812  12.964  11.663  0.00  0.00     0.112 A 
HETATM    6  N   UNK N   1      37.097  14.566   9.426  0.00  0.00    -0.336 N 
HETATM    7  N   UNK N   1      38.047  13.213  11.129  0.00  0.00    -0.344 N 
ATOM      8  HN  UNK N   1      38.874  12.816  11.573  1.00  0.00     0.167 HD
HETATM    9  N   UNK N   1      34.405  13.488  11.374  0.00  0.00    -0.347 N 
ATOM     10  HN  UNK N   1      33.972  12.965  12.135  1.00  0.00     0.167 HD
HETATM   11  N   UNK N   1      34.692  14.833   9.597  0.00  0.00    -0.297 N 
HETATM   12  H   UNK N   1      37.191  15.146   8.636  0.00  0.00     0.168 HD
ENDROOT
BRANCH  11  13
HETATM   13  C   UNK N   1      34.455  15.830   8.547  0.00  0.00     0.262 C 
HETATM   14  C   UNK N   1      34.978  17.239   8.887  0.00  0.00     0.198 C 
HETATM   15  C   UNK N   1      33.946  18.075   8.160  0.00  0.00     0.182 C 
HETATM   16  C   UNK N   1      32.715  17.261   8.529  0.00  0.00     0.180 C 
HETATM   17  O   UNK N   1      33.063  15.926   8.284  0.00  0.00    -0.353 OA
BRANCH  14  18
HETATM   18  O   UNK N   1      34.876  17.482  10.263  0.00  0.00    -0.388 OA
HETATM   19  H   UNK N   1      35.330  17.685  11.097  0.00  0.00     0.210 HD
ENDBRANCH  14  18
BRANCH  15  20
HETATM   20  O   UNK N   1      34.170  18.017   6.778  0.00  0.00    -0.390 OA
HETATM   21  H   UNK N   1      33.943  18.427   5.929  0.00  0.00     0.210 HD
ENDBRANCH  15  20
BRANCH  16  22
HETATM   22  C   UNK N   1      31.427  17.636   7.812  0.00  0.00     0.215 C 
BRANCH  22  23
HETATM   23  O   UNK N   1      30.629  18.475   8.590  0.00  0.00    -0.294 OA
BRANCH  23  24
HETATM   24  P   UNK N   1      29.201  17.537   8.892  0.00  0.00     0.390 P 
HETATM   25  O   UNK N   1      28.762  18.376   7.660  0.00  0.00    -0.632 OA
BRANCH  24  26
HETATM   26  O   UNK N   1      27.752  18.291   9.472  0.00  0.00    -0.307 OA
HETATM   27  H   UNK N   1      27.493  19.150   9.840  0.00  0.00     0.222 HD
ENDBRANCH  24  26
BRANCH  24  28
HETATM   28  O   UNK N   1      29.543  18.603  10.219  0.00  0.00    -0.307 OA
HETATM   29  H   UNK N   1      29.064  18.874  11.018  0.00  0.00     0.222 HD
ENDBRANCH  24  28
ENDBRANCH  23  24
ENDBRANCH  22  23
ENDBRANCH  16  22
ENDBRANCH  11  13
BRANCH   5  30
HETATM   30  S   UNK N   1      36.626  12.068  13.206  0.00  0.00     0.009 SA
BRANCH  30  31
HETATM   31  P   UNK N   1      36.371  13.799  14.467  0.00  0.00     0.307 P 
HETATM   32  O   UNK N   1      34.998  13.075  14.428  0.00  0.00    -0.645 OA
BRANCH  31  33
HETATM   33  O   UNK N   1      36.096  13.628  16.172  0.00  0.00    -0.321 OA
HETATM   34  H   UNK N   1      35.317  13.147  16.493  0.00  0.00     0.221 HD
ENDBRANCH  31  33
BRANCH  31  35
HETATM   35  O   UNK N   1      37.558  12.646  14.990  0.00  0.00    -0.321 OA
HETATM   36  H   UNK N   1      37.311  11.864  15.507  0.00  0.00     0.221 HD
ENDBRANCH  31  35
ENDBRANCH  30  31
ENDBRANCH   5  30
TORSDOF 12
ENDMDL
MODEL 2
REMARK VINA RESULT:      -7.2     12.388     15.403
REMARK  12 active torsions:
REMARK  status: ('A' for Active; 'I' for Inactive)
REMARK    1  A    between atoms: C_4  and  C_1 
REMARK    2  A    between atoms: O_25  and  C_1 
REMARK    3  A    between atoms: C_6  and  O_17 
REMARK    4  A    between atoms: C_7  and  O_18 
REMARK    5  A    between atoms: S_29  and  C_9 
REMARK    6  A    between atoms: C_10  and  N_16 
REMARK    7  A    between atoms: P_27  and  O_19 
REMARK    8  A    between atoms: P_27  and  O_20 
REMARK    9  A    between atoms: P_28  and  O_22 
REMARK   10  A    between atoms: P_28  and  O_23 
REMARK   11  A    between atoms: P_27  and  O_25 
REMARK   12  A    between atoms: S_29  and  P_28 
ROOT
HETATM    1  C   UNK N   1      20.688  15.174   2.056  0.00  0.00     0.183 A 
HETATM    2  C   UNK N   1      21.693  16.749   6.075  0.00  0.00     0.188 A 
HETATM    3  C   UNK N   1      20.969  16.989   4.072  0.00  0.00     0.112 A 
HETATM    4  C   UNK N   1      21.355  15.713   4.230  0.00  0.00     0.141 A 
HETATM    5  C   UNK N   1      20.385  17.394   2.879  0.00  0.00     0.112 A 
HETATM    6  N   UNK N   1      21.231  14.786   3.248  0.00  0.00    -0.336 N 
HETATM    7  N   UNK N   1      20.250  16.463   1.884  0.00  0.00    -0.344 N 
ATOM      8  HN  UNK N   1      19.816  16.732   1.002  1.00  0.00     0.167 HD
HETATM    9  N   UNK N   1      21.180  17.675   5.212  0.00  0.00    -0.347 N 
ATOM     10  HN  UNK N   1      20.999  18.662   5.389  1.00  0.00     0.167 HD
HETATM   11  N   UNK N   1      21.794  15.531   5.486  0.00  0.00    -0.297 N 
HETATM   12  H   UNK N   1      21.524  13.857   3.390  0.00  0.00     0.168 HD
ENDROOT
BRANCH  11  13
HETATM   13  C   UNK N   1      22.195  14.260   6.102  0.00  0.00     0.262 C 
HETATM   14  C   UNK N   1      21.087  13.189   6.113  0.00  0.00     0.198 C 
HETATM   15  C   UNK N   1      21.439  12.474   7.399  0.00  0.00     0.182 C 
HETATM   16  C   UNK N   1      21.766  13.699   8.241  0.00  0.00     0.180 C 
HETATM   17  O   UNK N   1      22.606  14.486   7.441  0.00  0.00    -0.353 OA
BRANCH  14  18
HETATM   18  O   UNK N   1      19.827  13.787   6.252  0.00  0.00    -0.388 OA
HETATM   19  H   UNK N   1      18.904  13.698   6.537  0.00  0.00     0.210 HD
ENDBRANCH  14  18
BRANCH  15  20
HETATM   20  O   UNK N   1      22.586  11.691   7.214  0.00  0.00    -0.390 OA
HETATM   21  H   UNK N   1      23.043  10.888   7.508  0.00  0.00     0.210 HD
ENDBRANCH  15  20
BRANCH  16  22
HETATM   22  C   UNK N   1      22.394  13.427   9.599  0.00  0.00     0.215 C 
BRANCH  22  23
HETATM   23  O   UNK N   1      23.788  13.437   9.535  0.00  0.00    -0.294 OA
BRANCH  23  24
HETATM   24  P   UNK N   1      24.262  12.062  10.480  0.00  0.00     0.390 P 
HETATM   25  O   UNK N   1      22.984  12.524  11.232  0.00  0.00    -0.632 OA
BRANCH  24  26
HETATM   26  O   UNK N   1      24.853  12.259  12.098  0.00  0.00    -0.307 OA
HETATM   27  H   UNK N   1      25.018  12.991  12.712  0.00  0.00     0.222 HD
ENDBRANCH  24  26
BRANCH  24  28
HETATM   28  O   UNK N   1      25.458  13.317  10.556  0.00  0.00    -0.307 OA
HETATM   29  H   UNK N   1      25.927  13.771  11.274  0.00  0.00     0.222 HD
ENDBRANCH  24  28
ENDBRANCH  23  24
ENDBRANCH  22  23
ENDBRANCH  16  22
ENDBRANCH  11  13
BRANCH   5  30
HETATM   30  S   UNK N   1      19.692  19.040   2.716  0.00  0.00     0.009 SA
BRANCH  30  31
HETATM   31  P   UNK N   1      21.573  20.089   2.594  0.00  0.00     0.307 P 
HETATM   32  O   UNK N   1      20.814  20.387   1.273  0.00  0.00    -0.645 OA
BRANCH  31  33
HETATM   33  O   UNK N   1      21.632  21.823   2.623  0.00  0.00    -0.321 OA
HETATM   34  H   UNK N   1      20.943  22.340   2.176  0.00  0.00     0.221 HD
ENDBRANCH  31  33
BRANCH  31  35
HETATM   35  O   UNK N   1      20.536  20.541   3.909  0.00  0.00    -0.321 OA
HETATM   36  H   UNK N   1      20.789  21.234   4.539  0.00  0.00     0.221 HD
ENDBRANCH  31  35
ENDBRANCH  30  31
ENDBRANCH   5  30
TORSDOF 12
ENDMDL
MODEL 3
REMARK VINA RESULT:      -7.2      2.137      2.515
REMARK  12 active torsions:
REMARK  status: ('A' for Active; 'I' for Inactive)
REMARK    1  A    between atoms: C_4  and  C_1 
REMARK    2  A    between atoms: O_25  and  C_1 
REMARK    3  A    between atoms: C_6  and  O_17 
REMARK    4  A    between atoms: C_7  and  O_18 
REMARK    5  A    between atoms: S_29  and  C_9 
REMARK    6  A    between atoms: C_10  and  N_16 
REMARK    7  A    between atoms: P_27  and  O_19 
REMARK    8  A    between atoms: P_27  and  O_20 
REMARK    9  A    between atoms: P_28  and  O_22 
REMARK   10  A    between atoms: P_28  and  O_23 
REMARK   11  A    between atoms: P_27  and  O_25 
REMARK   12  A    between atoms: S_29  and  P_28 
ROOT
HETATM    1  C   UNK N   1      38.268  14.098   9.900  0.00  0.00     0.183 A 
HETATM    2  C   UNK N   1      33.838  14.220   9.972  0.00  0.00     0.188 A 
HETATM    3  C   UNK N   1      35.727  13.544  10.724  0.00  0.00     0.112 A 
HETATM    4  C   UNK N   1      35.955  14.322   9.654  0.00  0.00     0.141 A 
HETATM    5  C   UNK N   1      36.796  13.036  11.451  0.00  0.00     0.112 A 
HETATM    6  N   UNK N   1      37.205  14.615   9.217  0.00  0.00    -0.336 N 
HETATM    7  N   UNK N   1      38.062  13.332  11.021  0.00  0.00    -0.344 N 
ATOM      8  HN  UNK N   1      38.864  12.979  11.542  1.00  0.00     0.167 HD
HETATM    9  N   UNK N   1      34.403  13.448  10.946  0.00  0.00    -0.347 N 
ATOM     10  HN  UNK N   1      33.929  12.918  11.677  1.00  0.00     0.167 HD
HETATM   11  N   UNK N   1      34.786  14.777   9.175  0.00  0.00    -0.297 N 
HETATM   12  H   UNK N   1      37.342  15.187   8.427  0.00  0.00     0.168 HD
ENDROOT
BRANCH  11  13
HETATM   13  C   UNK N   1      34.597  15.746   8.089  0.00  0.00     0.262 C 
HETATM   14  C   UNK N   1      34.738  17.216   8.528  0.00  0.00     0.198 C 
HETATM   15  C   UNK N   1      33.752  17.860   7.577  0.00  0.00     0.182 C 
HETATM   16  C   UNK N   1      32.656  16.808   7.662  0.00  0.00     0.180 C 
HETATM   17  O   UNK N   1      33.310  15.577   7.515  0.00  0.00    -0.353 OA
BRANCH  14  18
HETATM   18  O   UNK N   1      34.282  17.384   9.842  0.00  0.00    -0.388 OA
HETATM   19  H   UNK N   1      33.585  17.218  10.496  0.00  0.00     0.210 HD
ENDBRANCH  14  18
BRANCH  15  20
HETATM   20  O   UNK N   1      34.289  17.899   6.283  0.00  0.00    -0.390 OA
HETATM   21  H   UNK N   1      34.064  17.976   5.343  0.00  0.00     0.210 HD
ENDBRANCH  15  20
BRANCH  16  22
HETATM   22  C   UNK N   1      31.515  16.949   6.667  0.00  0.00     0.215 C 
BRANCH  22  23
HETATM   23  O   UNK N   1      31.934  16.688   5.361  0.00  0.00    -0.294 OA
BRANCH  23  24
HETATM   24  P   UNK N   1      30.487  16.842   4.417  0.00  0.00     0.390 P 
HETATM   25  O   UNK N   1      30.976  15.428   4.000  0.00  0.00    -0.632 OA
BRANCH  24  26
HETATM   26  O   UNK N   1      30.566  16.988   2.691  0.00  0.00    -0.307 OA
HETATM   27  H   UNK N   1      30.624  17.703   2.038  0.00  0.00     0.222 HD
ENDBRANCH  24  26
BRANCH  24  28
HETATM   28  O   UNK N   1      31.671  18.021   3.946  0.00  0.00    -0.307 OA
HETATM   29  H   UNK N   1      32.604  17.985   3.684  0.00  0.00     0.222 HD
ENDBRANCH  24  28
ENDBRANCH  23  24
ENDBRANCH  22  23
ENDBRANCH  16  22
ENDBRANCH  11  13
BRANCH   5  30
HETATM   30  S   UNK N   1      36.516  12.156  12.989  0.00  0.00     0.009 SA
BRANCH  30  31
HETATM   31  P   UNK N   1      36.315  13.902  14.239  0.00  0.00     0.307 P 
HETATM   32  O   UNK N   1      34.919  13.225  14.199  0.00  0.00    -0.645 OA
BRANCH  31  33
HETATM   33  O   UNK N   1      36.029  13.752  15.944  0.00  0.00    -0.321 OA
HETATM   34  H   UNK N   1      35.325  13.167  16.269  0.00  0.00     0.221 HD
ENDBRANCH  31  33
BRANCH  31  35
HETATM   35  O   UNK N   1      37.461  12.714  14.773  0.00  0.00    -0.321 OA
HETATM   36  H   UNK N   1      37.757  11.998  14.190  0.00  0.00     0.221 HD
ENDBRANCH  31  35
ENDBRANCH  30  31
ENDBRANCH   5  30
TORSDOF 12
ENDMDL
MODEL 4
REMARK VINA RESULT:      -7.1      4.409      9.003
REMARK  12 active torsions:
REMARK  status: ('A' for Active; 'I' for Inactive)
REMARK    1  A    between atoms: C_4  and  C_1 
REMARK    2  A    between atoms: O_25  and  C_1 
REMARK    3  A    between atoms: C_6  and  O_17 
REMARK    4  A    between atoms: C_7  and  O_18 
REMARK    5  A    between atoms: S_29  and  C_9 
REMARK    6  A    between atoms: C_10  and  N_16 
REMARK    7  A    between atoms: P_27  and  O_19 
REMARK    8  A    between atoms: P_27  and  O_20 
REMARK    9  A    between atoms: P_28  and  O_22 
REMARK   10  A    between atoms: P_28  and  O_23 
REMARK   11  A    between atoms: P_27  and  O_25 
REMARK   12  A    between atoms: S_29  and  P_28 
ROOT
HETATM    1  C   UNK N   1      28.175  17.563   9.190  0.00  0.00     0.183 A 
HETATM    2  C   UNK N   1      31.484  16.948   6.307  0.00  0.00     0.188 A 
HETATM    3  C   UNK N   1      29.413  17.222   6.784  0.00  0.00     0.112 A 
HETATM    4  C   UNK N   1      30.108  17.188   7.933  0.00  0.00     0.141 A 
HETATM    5  C   UNK N   1      28.046  17.468   6.809  0.00  0.00     0.112 A 
HETATM    6  N   UNK N   1      29.523  17.353   9.145  0.00  0.00    -0.336 N 
HETATM    7  N   UNK N   1      27.449  17.641   8.029  0.00  0.00    -0.344 N 
ATOM      8  HN  UNK N   1      26.448  17.832   8.074  1.00  0.00     0.167 HD
HETATM    9  N   UNK N   1      30.247  17.061   5.740  0.00  0.00    -0.347 N 
ATOM     10  HN  UNK N   1      30.009  17.030   4.749  1.00  0.00     0.167 HD
HETATM   11  N   UNK N   1      31.414  17.039   7.659  0.00  0.00    -0.297 N 
HETATM   12  H   UNK N   1      30.057  17.321   9.971  0.00  0.00     0.168 HD
ENDROOT
BRANCH  11  13
HETATM   13  C   UNK N   1      32.523  17.071   8.621  0.00  0.00     0.262 C 
HETATM   14  C   UNK N   1      33.665  18.029   8.232  0.00  0.00     0.198 C 
HETATM   15  C   UNK N   1      34.839  17.277   8.819  0.00  0.00     0.182 C 
HETATM   16  C   UNK N   1      34.419  15.873   8.409  0.00  0.00     0.180 C 
HETATM   17  O   UNK N   1      33.068  15.769   8.767  0.00  0.00    -0.353 OA
BRANCH  14  18
HETATM   18  O   UNK N   1      33.808  18.084   6.839  0.00  0.00    -0.388 OA
HETATM   19  H   UNK N   1      33.638  17.667   5.979  0.00  0.00     0.210 HD
ENDBRANCH  14  18
BRANCH  15  20
HETATM   20  O   UNK N   1      34.834  17.396  10.216  0.00  0.00    -0.390 OA
HETATM   21  H   UNK N   1      35.241  17.859  10.964  0.00  0.00     0.210 HD
ENDBRANCH  15  20
BRANCH  16  22
HETATM   22  C   UNK N   1      35.235  14.733   8.996  0.00  0.00     0.215 C 
BRANCH  22  23
HETATM   23  O   UNK N   1      34.459  13.912   9.816  0.00  0.00    -0.294 OA
BRANCH  23  24
HETATM   24  P   UNK N   1      35.277  13.951  11.345  0.00  0.00     0.390 P 
HETATM   25  O   UNK N   1      35.066  12.424  11.149  0.00  0.00    -0.632 OA
BRANCH  24  26
HETATM   26  O   UNK N   1      34.449  13.516  12.805  0.00  0.00    -0.307 OA
HETATM   27  H   UNK N   1      34.668  13.407  13.743  0.00  0.00     0.222 HD
ENDBRANCH  24  26
BRANCH  24  28
HETATM   28  O   UNK N   1      33.732  14.736  11.441  0.00  0.00    -0.307 OA
HETATM   29  H   UNK N   1      33.437  15.656  11.524  0.00  0.00     0.222 HD
ENDBRANCH  24  28
ENDBRANCH  23  24
ENDBRANCH  22  23
ENDBRANCH  16  22
ENDBRANCH  11  13
BRANCH   5  30
HETATM   30  S   UNK N   1      27.136  17.705   5.282  0.00  0.00     0.009 SA
BRANCH  30  31
HETATM   31  P   UNK N   1      27.063  19.859   5.371  0.00  0.00     0.307 P 
HETATM   32  O   UNK N   1      27.511  19.491   3.931  0.00  0.00    -0.645 OA
BRANCH  31  33
HETATM   33  O   UNK N   1      25.876  20.750   4.472  0.00  0.00    -0.321 OA
HETATM   34  H   UNK N   1      25.705  21.682   4.682  0.00  0.00     0.221 HD
ENDBRANCH  31  33
BRANCH  31  35
HETATM   35  O   UNK N   1      25.568  19.035   5.682  0.00  0.00    -0.321 OA
HETATM   36  H   UNK N   1      25.508  18.068   5.658  0.00  0.00     0.221 HD
ENDBRANCH  31  35
ENDBRANCH  30  31
ENDBRANCH   5  30
TORSDOF 12
ENDMDL
MODEL 5
REMARK VINA RESULT:      -6.9      2.082      2.698
REMARK  12 active torsions:
REMARK  status: ('A' for Active; 'I' for Inactive)
REMARK    1  A    between atoms: C_4  and  C_1 
REMARK    2  A    between atoms: O_25  and  C_1 
REMARK    3  A    between atoms: C_6  and  O_17 
REMARK    4  A    between atoms: C_7  and  O_18 
REMARK    5  A    between atoms: S_29  and  C_9 
REMARK    6  A    between atoms: C_10  and  N_16 
REMARK    7  A    between atoms: P_27  and  O_19 
REMARK    8  A    between atoms: P_27  and  O_20 
REMARK    9  A    between atoms: P_28  and  O_22 
REMARK   10  A    between atoms: P_28  and  O_23 
REMARK   11  A    between atoms: P_27  and  O_25 
REMARK   12  A    between atoms: S_29  and  P_28 
ROOT
HETATM    1  C   UNK N   1      35.679  16.403  10.730  0.00  0.00     0.183 A 
HETATM    2  C   UNK N   1      34.986  13.497   7.456  0.00  0.00     0.188 A 
HETATM    3  C   UNK N   1      36.039  14.178   9.195  0.00  0.00     0.112 A 
HETATM    4  C   UNK N   1      35.107  15.093   8.882  0.00  0.00     0.141 A 
HETATM    5  C   UNK N   1      36.814  14.342  10.335  0.00  0.00     0.112 A 
HETATM    6  N   UNK N   1      34.902  16.210   9.623  0.00  0.00    -0.336 N 
HETATM    7  N   UNK N   1      36.611  15.464  11.092  0.00  0.00    -0.344 N 
ATOM      8  HN  UNK N   1      37.161  15.603  11.939  1.00  0.00     0.167 HD
HETATM    9  N   UNK N   1      36.000  13.165   8.309  0.00  0.00    -0.347 N 
ATOM     10  HN  UNK N   1      36.594  12.337   8.282  1.00  0.00     0.167 HD
HETATM   11  N   UNK N   1      34.417  14.678   7.807  0.00  0.00    -0.297 N 
HETATM   12  H   UNK N   1      34.213  16.865   9.370  0.00  0.00     0.168 HD
ENDROOT
BRANCH  11  13
HETATM   13  C   UNK N   1      33.240  15.325   7.214  0.00  0.00     0.262 C 
HETATM   14  C   UNK N   1      33.576  16.396   6.158  0.00  0.00     0.198 C 
HETATM   15  C   UNK N   1      32.419  17.345   6.382  0.00  0.00     0.182 C 
HETATM   16  C   UNK N   1      32.397  17.297   7.903  0.00  0.00     0.180 C 
HETATM   17  O   UNK N   1      32.466  15.937   8.234  0.00  0.00    -0.353 OA
BRANCH  14  18
HETATM   18  O   UNK N   1      34.773  17.048   6.482  0.00  0.00    -0.388 OA
HETATM   19  H   UNK N   1      35.302  17.507   7.154  0.00  0.00     0.210 HD
ENDBRANCH  14  18
BRANCH  15  20
HETATM   20  O   UNK N   1      31.240  16.795   5.862  0.00  0.00    -0.390 OA
HETATM   21  H   UNK N   1      30.485  16.223   6.067  0.00  0.00     0.210 HD
ENDBRANCH  15  20
BRANCH  16  22
HETATM   22  C   UNK N   1      31.210  17.969   8.575  0.00  0.00     0.215 C 
BRANCH  22  23
HETATM   23  O   UNK N   1      30.014  17.312   8.287  0.00  0.00    -0.294 OA
BRANCH  23  24
HETATM   24  P   UNK N   1      28.806  18.545   8.453  0.00  0.00     0.390 P 
HETATM   25  O   UNK N   1      29.369  18.472   9.899  0.00  0.00    -0.632 OA
BRANCH  24  26
HETATM   26  O   UNK N   1      27.369  18.260   9.381  0.00  0.00    -0.307 OA
HETATM   27  H   UNK N   1      26.855  18.725  10.060  0.00  0.00     0.222 HD
ENDBRANCH  24  26
BRANCH  24  28
HETATM   28  O   UNK N   1      28.090  17.019   8.039  0.00  0.00    -0.307 OA
HETATM   29  H   UNK N   1      27.268  16.745   7.602  0.00  0.00     0.222 HD
ENDBRANCH  24  28
ENDBRANCH  23  24
ENDBRANCH  22  23
ENDBRANCH  16  22
ENDBRANCH  11  13
BRANCH   5  30
HETATM   30  S   UNK N   1      37.929  13.043  10.872  0.00  0.00     0.009 SA
BRANCH  30  31
HETATM   31  P   UNK N   1      36.457  11.877  11.933  0.00  0.00     0.307 P 
HETATM   32  O   UNK N   1      36.856  11.051  10.680  0.00  0.00    -0.645 OA
BRANCH  31  33
HETATM   33  O   UNK N   1      36.888  10.386  12.707  0.00  0.00    -0.321 OA
HETATM   34  H   UNK N   1      37.148   9.618  12.173  0.00  0.00     0.221 HD
ENDBRANCH  31  33
BRANCH  31  35
HETATM   35  O   UNK N   1      37.910  12.242  12.807  0.00  0.00    -0.321 OA
HETATM   36  H   UNK N   1      37.934  12.233  13.776  0.00  0.00     0.221 HD
ENDBRANCH  31  35
ENDBRANCH  30  31
ENDBRANCH   5  30
TORSDOF 12
ENDMDL
MODEL 6
REMARK VINA RESULT:      -6.8      4.316      8.598
REMARK  12 active torsions:
REMARK  status: ('A' for Active; 'I' for Inactive)
REMARK    1  A    between atoms: C_4  and  C_1 
REMARK    2  A    between atoms: O_25  and  C_1 
REMARK    3  A    between atoms: C_6  and  O_17 
REMARK    4  A    between atoms: C_7  and  O_18 
REMARK    5  A    between atoms: S_29  and  C_9 
REMARK    6  A    between atoms: C_10  and  N_16 
REMARK    7  A    between atoms: P_27  and  O_19 
REMARK    8  A    between atoms: P_27  and  O_20 
REMARK    9  A    between atoms: P_28  and  O_22 
REMARK   10  A    between atoms: P_28  and  O_23 
REMARK   11  A    between atoms: P_27  and  O_25 
REMARK   12  A    between atoms: S_29  and  P_28 
ROOT
HETATM    1  C   UNK N   1      30.869  14.702   5.626  0.00  0.00     0.183 A 
HETATM    2  C   UNK N   1      30.177  18.167   8.302  0.00  0.00     0.188 A 
HETATM    3  C   UNK N   1      29.549  16.788   6.787  0.00  0.00     0.112 A 
HETATM    4  C   UNK N   1      30.823  16.510   7.106  0.00  0.00     0.141 A 
HETATM    5  C   UNK N   1      28.873  15.986   5.877  0.00  0.00     0.112 A 
HETATM    6  N   UNK N   1      31.509  15.482   6.548  0.00  0.00    -0.336 N 
HETATM    7  N   UNK N   1      29.555  14.942   5.312  0.00  0.00    -0.344 N 
ATOM      8  HN  UNK N   1      29.079  14.333   4.648  1.00  0.00     0.167 HD
HETATM    9  N   UNK N   1      29.114  17.835   7.512  0.00  0.00    -0.347 N 
ATOM     10  HN  UNK N   1      28.197  18.280   7.479  1.00  0.00     0.167 HD
HETATM   11  N   UNK N   1      31.235  17.348   8.071  0.00  0.00    -0.297 N 
HETATM   12  H   UNK N   1      32.443  15.302   6.799  0.00  0.00     0.168 HD
ENDROOT
BRANCH  11  13
HETATM   13  C   UNK N   1      32.518  17.308   8.783  0.00  0.00     0.262 C 
HETATM   14  C   UNK N   1      33.650  18.083   8.083  0.00  0.00     0.198 C 
HETATM   15  C   UNK N   1      34.832  17.231   8.492  0.00  0.00     0.182 C 
HETATM   16  C   UNK N   1      34.184  15.867   8.310  0.00  0.00     0.180 C 
HETATM   17  O   UNK N   1      32.936  15.960   8.940  0.00  0.00    -0.353 OA
BRANCH  14  18
HETATM   18  O   UNK N   1      33.502  18.021   6.691  0.00  0.00    -0.388 OA
HETATM   19  H   UNK N   1      33.745  17.586   5.858  0.00  0.00     0.210 HD
ENDBRANCH  14  18
BRANCH  15  20
HETATM   20  O   UNK N   1      35.135  17.448   9.843  0.00  0.00    -0.390 OA
HETATM   21  H   UNK N   1      34.750  17.648  10.710  0.00  0.00     0.210 HD
ENDBRANCH  15  20
BRANCH  16  22
HETATM   22  C   UNK N   1      34.976  14.676   8.827  0.00  0.00     0.215 C 
BRANCH  22  23
HETATM   23  O   UNK N   1      34.234  13.918   9.735  0.00  0.00    -0.294 OA
BRANCH  23  24
HETATM   24  P   UNK N   1      35.180  13.959  11.188  0.00  0.00     0.390 P 
HETATM   25  O   UNK N   1      34.859  12.444  11.074  0.00  0.00    -0.632 OA
BRANCH  24  26
HETATM   26  O   UNK N   1      34.454  13.632  12.728  0.00  0.00    -0.307 OA
HETATM   27  H   UNK N   1      34.594  13.019  13.467  0.00  0.00     0.222 HD
ENDBRANCH  24  26
BRANCH  24  28
HETATM   28  O   UNK N   1      33.700  14.846  11.379  0.00  0.00    -0.307 OA
HETATM   29  H   UNK N   1      33.347  15.672  11.013  0.00  0.00     0.222 HD
ENDBRANCH  24  28
ENDBRANCH  23  24
ENDBRANCH  22  23
ENDBRANCH  16  22
ENDBRANCH  11  13
BRANCH   5  30
HETATM   30  S   UNK N   1      27.120  16.224   5.580  0.00  0.00     0.009 SA
BRANCH  30  31
HETATM   31  P   UNK N   1      27.324  17.871   4.202  0.00  0.00     0.307 P 
HETATM   32  O   UNK N   1      26.547  16.759   3.449  0.00  0.00    -0.645 OA
BRANCH  31  33
HETATM   33  O   UNK N   1      25.941  18.790   3.698  0.00  0.00    -0.321 OA
HETATM   34  H   UNK N   1      25.049  18.505   3.953  0.00  0.00     0.221 HD
ENDBRANCH  31  33
BRANCH  31  35
HETATM   35  O   UNK N   1      26.464  18.211   5.670  0.00  0.00    -0.321 OA
HETATM   36  H   UNK N   1      26.920  18.263   6.524  0.00  0.00     0.221 HD
ENDBRANCH  31  35
ENDBRANCH  30  31
ENDBRANCH   5  30
TORSDOF 12
ENDMDL
MODEL 7
REMARK VINA RESULT:      -6.5      2.748      7.879
REMARK  12 active torsions:
REMARK  status: ('A' for Active; 'I' for Inactive)
REMARK    1  A    between atoms: C_4  and  C_1 
REMARK    2  A    between atoms: O_25  and  C_1 
REMARK    3  A    between atoms: C_6  and  O_17 
REMARK    4  A    between atoms: C_7  and  O_18 
REMARK    5  A    between atoms: S_29  and  C_9 
REMARK    6  A    between atoms: C_10  and  N_16 
REMARK    7  A    between atoms: P_27  and  O_19 
REMARK    8  A    between atoms: P_27  and  O_20 
REMARK    9  A    between atoms: P_28  and  O_22 
REMARK   10  A    between atoms: P_28  and  O_23 
REMARK   11  A    between atoms: P_27  and  O_25 
REMARK   12  A    between atoms: S_29  and  P_28 
ROOT
HETATM    1  C   UNK N   1      32.825  13.346   8.871  0.00  0.00     0.183 A 
HETATM    2  C   UNK N   1      35.043  16.795  10.555  0.00  0.00     0.188 A 
HETATM    3  C   UNK N   1      33.692  15.918   9.140  0.00  0.00     0.112 A 
HETATM    4  C   UNK N   1      34.152  14.944   9.942  0.00  0.00     0.141 A 
HETATM    5  C   UNK N   1      32.735  15.628   8.177  0.00  0.00     0.112 A 
HETATM    6  N   UNK N   1      33.743  13.656   9.834  0.00  0.00    -0.336 N 
HETATM    7  N   UNK N   1      32.312  14.331   8.065  0.00  0.00    -0.344 N 
ATOM      8  HN  UNK N   1      31.602  14.093   7.372  1.00  0.00     0.167 HD
HETATM    9  N   UNK N   1      34.243  17.096   9.490  0.00  0.00    -0.347 N 
ATOM     10  HN  UNK N   1      34.096  18.007   9.057  1.00  0.00     0.167 HD
HETATM   11  N   UNK N   1      34.986  15.472  10.853  0.00  0.00    -0.297 N 
HETATM   12  H   UNK N   1      34.098  12.961  10.434  0.00  0.00     0.168 HD
ENDROOT
BRANCH  11  13
HETATM   13  C   UNK N   1      35.610  14.772  11.982  0.00  0.00     0.262 C 
HETATM   14  C   UNK N   1      36.839  13.927  11.596  0.00  0.00     0.198 C 
HETATM   15  C   UNK N   1      36.707  12.811  12.610  0.00  0.00     0.182 C 
HETATM   16  C   UNK N   1      35.199  12.625  12.527  0.00  0.00     0.180 C 
HETATM   17  O   UNK N   1      34.661  13.917  12.600  0.00  0.00    -0.353 OA
BRANCH  14  18
HETATM   18  O   UNK N   1      36.687  13.396  10.309  0.00  0.00    -0.388 OA
HETATM   19  H   UNK N   1      36.624  13.563   9.355  0.00  0.00     0.210 HD
ENDBRANCH  14  18
BRANCH  15  20
HETATM   20  O   UNK N   1      37.070  13.272  13.882  0.00  0.00    -0.390 OA
HETATM   21  H   UNK N   1      37.036  13.068  14.829  0.00  0.00     0.210 HD
ENDBRANCH  15  20
BRANCH  16  22
HETATM   22  C   UNK N   1      34.580  11.710  13.571  0.00  0.00     0.215 C 
BRANCH  22  23
HETATM   23  O   UNK N   1      35.554  11.086  14.353  0.00  0.00    -0.294 OA
BRANCH  23  24
HETATM   24  P   UNK N   1      34.869  11.075  15.946  0.00  0.00     0.390 P 
HETATM   25  O   UNK N   1      34.315  12.413  15.384  0.00  0.00    -0.632 OA
BRANCH  24  26
HETATM   26  O   UNK N   1      35.397  12.212  17.145  0.00  0.00    -0.307 OA
HETATM   27  H   UNK N   1      35.886  12.189  17.983  0.00  0.00     0.222 HD
ENDBRANCH  24  26
BRANCH  24  28
HETATM   28  O   UNK N   1      36.602  11.154  16.009  0.00  0.00    -0.307 OA
HETATM   29  H   UNK N   1      37.322  10.526  15.841  0.00  0.00     0.222 HD
ENDBRANCH  24  28
ENDBRANCH  23  24
ENDBRANCH  22  23
ENDBRANCH  16  22
ENDBRANCH  11  13
BRANCH   5  30
HETATM   30  S   UNK N   1      31.970  16.944   7.227  0.00  0.00     0.009 SA
BRANCH  30  31
HETATM   31  P   UNK N   1      30.357  17.337   8.603  0.00  0.00     0.307 P 
HETATM   32  O   UNK N   1      31.372  18.500   8.769  0.00  0.00    -0.645 OA
BRANCH  31  33
HETATM   33  O   UNK N   1      29.285  18.680   8.362  0.00  0.00    -0.321 OA
HETATM   34  H   UNK N   1      29.406  19.267   7.599  0.00  0.00     0.221 HD
ENDBRANCH  31  33
BRANCH  31  35
HETATM   35  O   UNK N   1      29.921  17.254   6.926  0.00  0.00    -0.321 OA
HETATM   36  H   UNK N   1      29.826  16.404   6.469  0.00  0.00     0.221 HD
ENDBRANCH  31  35
ENDBRANCH  30  31
ENDBRANCH   5  30
TORSDOF 12
ENDMDL
MODEL 8
REMARK VINA RESULT:      -6.5      2.989      3.887
REMARK  12 active torsions:
REMARK  status: ('A' for Active; 'I' for Inactive)
REMARK    1  A    between atoms: C_4  and  C_1 
REMARK    2  A    between atoms: O_25  and  C_1 
REMARK    3  A    between atoms: C_6  and  O_17 
REMARK    4  A    between atoms: C_7  and  O_18 
REMARK    5  A    between atoms: S_29  and  C_9 
REMARK    6  A    between atoms: C_10  and  N_16 
REMARK    7  A    between atoms: P_27  and  O_19 
REMARK    8  A    between atoms: P_27  and  O_20 
REMARK    9  A    between atoms: P_28  and  O_22 
REMARK   10  A    between atoms: P_28  and  O_23 
REMARK   11  A    between atoms: P_27  and  O_25 
REMARK   12  A    between atoms: S_29  and  P_28 
ROOT
HETATM    1  C   UNK N   1      32.298  15.413   9.706  0.00  0.00     0.183 A 
HETATM    2  C   UNK N   1      35.455  14.595   6.705  0.00  0.00     0.188 A 
HETATM    3  C   UNK N   1      34.667  14.515   8.696  0.00  0.00     0.112 A 
HETATM    4  C   UNK N   1      33.787  15.170   7.922  0.00  0.00     0.141 A 
HETATM    5  C   UNK N   1      34.360  14.255  10.026  0.00  0.00     0.112 A 
HETATM    6  N   UNK N   1      32.601  15.630   8.393  0.00  0.00    -0.336 N 
HETATM    7  N   UNK N   1      33.163  14.712  10.508  0.00  0.00    -0.344 N 
ATOM      8  HN  UNK N   1      32.911  14.526  11.478  1.00  0.00     0.167 HD
HETATM    9  N   UNK N   1      35.736  14.149   7.965  0.00  0.00    -0.347 N 
ATOM     10  HN  UNK N   1      36.568  13.652   8.280  1.00  0.00     0.167 HD
HETATM   11  N   UNK N   1      34.248  15.215   6.662  0.00  0.00    -0.297 N 
HETATM   12  H   UNK N   1      31.976  16.109   7.803  0.00  0.00     0.168 HD
ENDROOT
BRANCH  11  13
HETATM   13  C   UNK N   1      33.542  15.736   5.485  0.00  0.00     0.262 C 
HETATM   14  C   UNK N   1      33.818  17.223   5.192  0.00  0.00     0.198 C 
HETATM   15  C   UNK N   1      32.481  17.619   4.605  0.00  0.00     0.182 C 
HETATM   16  C   UNK N   1      31.589  16.856   5.573  0.00  0.00     0.180 C 
HETATM   17  O   UNK N   1      32.142  15.571   5.655  0.00  0.00    -0.353 OA
BRANCH  14  18
HETATM   18  O   UNK N   1      34.020  17.930   6.385  0.00  0.00    -0.388 OA
HETATM   19  H   UNK N   1      33.633  18.455   7.104  0.00  0.00     0.210 HD
ENDBRANCH  14  18
BRANCH  15  20
HETATM   20  O   UNK N   1      32.352  17.096   3.311  0.00  0.00    -0.390 OA
HETATM   21  H   UNK N   1      31.840  16.484   2.760  0.00  0.00     0.210 HD
ENDBRANCH  15  20
BRANCH  16  22
HETATM   22  C   UNK N   1      30.112  16.798   5.217  0.00  0.00     0.215 C 
BRANCH  22  23
HETATM   23  O   UNK N   1      29.699  17.946   4.539  0.00  0.00    -0.294 OA
BRANCH  23  24
HETATM   24  P   UNK N   1      28.006  18.061   4.899  0.00  0.00     0.390 P 
HETATM   25  O   UNK N   1      28.007  16.999   3.767  0.00  0.00    -0.632 OA
BRANCH  24  26
HETATM   26  O   UNK N   1      26.902  18.757   3.757  0.00  0.00    -0.307 OA
HETATM   27  H   UNK N   1      26.800  18.790   2.793  0.00  0.00     0.222 HD
ENDBRANCH  24  26
BRANCH  24  28
HETATM   28  O   UNK N   1      28.618  19.562   4.277  0.00  0.00    -0.307 OA
HETATM   29  H   UNK N   1      28.514  20.051   3.446  0.00  0.00     0.222 HD
ENDBRANCH  24  28
ENDBRANCH  23  24
ENDBRANCH  22  23
ENDBRANCH  16  22
ENDBRANCH  11  13
BRANCH   5  30
HETATM   30  S   UNK N   1      35.434  13.220  11.022  0.00  0.00     0.009 SA
BRANCH  30  31
HETATM   31  P   UNK N   1      35.979  14.738  12.455  0.00  0.00     0.307 P 
HETATM   32  O   UNK N   1      34.955  13.809  13.163  0.00  0.00    -0.645 OA
BRANCH  31  33
HETATM   33  O   UNK N   1      36.897  14.338  13.873  0.00  0.00    -0.321 OA
HETATM   34  H   UNK N   1      37.026  15.001  14.571  0.00  0.00     0.221 HD
ENDBRANCH  31  33
BRANCH  31  35
HETATM   35  O   UNK N   1      37.276  13.743  11.873  0.00  0.00    -0.321 OA
HETATM   36  H   UNK N   1      37.118  12.842  11.549  0.00  0.00     0.221 HD
ENDBRANCH  31  35
ENDBRANCH  30  31
ENDBRANCH   5  30
TORSDOF 12
ENDMDL
MODEL 9
REMARK VINA RESULT:      -6.3      4.294      8.493
REMARK  12 active torsions:
REMARK  status: ('A' for Active; 'I' for Inactive)
REMARK    1  A    between atoms: C_4  and  C_1 
REMARK    2  A    between atoms: O_25  and  C_1 
REMARK    3  A    between atoms: C_6  and  O_17 
REMARK    4  A    between atoms: C_7  and  O_18 
REMARK    5  A    between atoms: S_29  and  C_9 
REMARK    6  A    between atoms: C_10  and  N_16 
REMARK    7  A    between atoms: P_27  and  O_19 
REMARK    8  A    between atoms: P_27  and  O_20 
REMARK    9  A    between atoms: P_28  and  O_22 
REMARK   10  A    between atoms: P_28  and  O_23 
REMARK   11  A    between atoms: P_27  and  O_25 
REMARK   12  A    between atoms: S_29  and  P_28 
ROOT
HETATM    1  C   UNK N   1      32.016  13.617   6.015  0.00  0.00     0.183 A 
HETATM    2  C   UNK N   1      30.550  17.389   7.823  0.00  0.00     0.188 A 
HETATM    3  C   UNK N   1      30.385  15.761   6.438  0.00  0.00     0.112 A 
HETATM    4  C   UNK N   1      31.532  15.617   7.120  0.00  0.00     0.141 A 
HETATM    5  C   UNK N   1      29.997  14.791   5.524  0.00  0.00     0.112 A 
HETATM    6  N   UNK N   1      32.366  14.565   6.934  0.00  0.00    -0.336 N 
HETATM    7  N   UNK N   1      30.830  13.721   5.333  0.00  0.00    -0.344 N 
ATOM      8  HN  UNK N   1      30.564  12.990   4.674  1.00  0.00     0.167 HD
HETATM    9  N   UNK N   1      29.747  16.874   6.846  0.00  0.00    -0.347 N 
ATOM     10  HN  UNK N   1      28.863  17.248   6.502  1.00  0.00     0.167 HD
HETATM   11  N   UNK N   1      31.649  16.615   8.012  0.00  0.00    -0.297 N 
HETATM   12  H   UNK N   1      33.202  14.486   7.447  0.00  0.00     0.168 HD
ENDROOT
BRANCH  11  13
HETATM   13  C   UNK N   1      32.694  16.765   9.032  0.00  0.00     0.262 C 
HETATM   14  C   UNK N   1      33.983  17.436   8.519  0.00  0.00     0.198 C 
HETATM   15  C   UNK N   1      35.001  16.727   9.386  0.00  0.00     0.182 C 
HETATM   16  C   UNK N   1      34.407  15.328   9.310  0.00  0.00     0.180 C 
HETATM   17  O   UNK N   1      33.037  15.491   9.556  0.00  0.00    -0.353 OA
BRANCH  14  18
HETATM   18  O   UNK N   1      34.212  17.100   7.177  0.00  0.00    -0.388 OA
HETATM   19  H   UNK N   1      34.311  16.401   6.512  0.00  0.00     0.210 HD
ENDBRANCH  14  18
BRANCH  15  20
HETATM   20  O   UNK N   1      34.933  17.213  10.698  0.00  0.00    -0.390 OA
HETATM   21  H   UNK N   1      34.371  17.687  11.331  0.00  0.00     0.210 HD
ENDBRANCH  15  20
BRANCH  16  22
HETATM   22  C   UNK N   1      35.016  14.293  10.243  0.00  0.00     0.215 C 
BRANCH  22  23
HETATM   23  O   UNK N   1      34.872  14.658  11.583  0.00  0.00    -0.294 OA
BRANCH  23  24
HETATM   24  P   UNK N   1      36.104  13.751  12.400  0.00  0.00     0.390 P 
HETATM   25  O   UNK N   1      34.933  13.660  13.416  0.00  0.00    -0.632 OA
BRANCH  24  26
HETATM   26  O   UNK N   1      36.840  14.360  13.847  0.00  0.00    -0.307 OA
HETATM   27  H   UNK N   1      37.333  15.150  14.118  0.00  0.00     0.222 HD
ENDBRANCH  24  26
BRANCH  24  28
HETATM   28  O   UNK N   1      36.570  15.412  12.209  0.00  0.00    -0.307 OA
HETATM   29  H   UNK N   1      36.574  16.041  11.470  0.00  0.00     0.222 HD
ENDBRANCH  24  28
ENDBRANCH  23  24
ENDBRANCH  22  23
ENDBRANCH  16  22
ENDBRANCH  11  13
BRANCH   5  30
HETATM   30  S   UNK N   1      28.384  14.867   4.743  0.00  0.00     0.009 SA
BRANCH  30  31
HETATM   31  P   UNK N   1      29.098  15.027   2.715  0.00  0.00     0.307 P 
HETATM   32  O   UNK N   1      28.703  13.541   2.928  0.00  0.00    -0.645 OA
BRANCH  31  33
HETATM   33  O   UNK N   1      28.019  14.828   1.370  0.00  0.00    -0.321 OA
HETATM   34  H   UNK N   1      27.898  13.953   0.969  0.00  0.00     0.221 HD
ENDBRANCH  31  33
BRANCH  31  35
HETATM   35  O   UNK N   1      27.717  16.000   3.113  0.00  0.00    -0.321 OA
HETATM   36  H   UNK N   1      27.749  16.968   3.067  0.00  0.00     0.221 HD
ENDBRANCH  31  35
ENDBRANCH  30  31
ENDBRANCH   5  30
TORSDOF 12
ENDMDL
