MODEL 1
REMARK VINA RESULT:      -3.7      0.000      0.000
REMARK  4 active torsions:
REMARK  status: ('A' for Active; 'I' for Inactive)
REMARK    1  A    between atoms: C_2  and  C_3 
REMARK    2  A    between atoms: C_3  and  C_4 
REMARK    3  A    between atoms: C_4  and  C_5 
REMARK    4  A    between atoms: C_5  and  C_6 
ROOT
HETATM    1  C   UNK N   1      21.614  12.371  11.144  0.00  0.00     0.013 C 
ENDROOT
BRANCH   1   2
HETATM    2  C   UNK N   1      23.005  11.998  11.616  0.00  0.00     0.070 C 
BRANCH   2   3
HETATM    3  C   UNK N   1      22.986  11.723  13.079  0.00  0.00     0.231 C 
HETATM    4  O   UNK N   1      23.792  12.272  13.813  0.00  0.00    -0.307 OA
ENDBRANCH   2   3
ENDBRANCH   1   2
BRANCH   1   5
HETATM    5  C   UNK N   1      21.717  13.096   9.817  0.00  0.00     0.070 C 
BRANCH   5   6
HETATM    6  C   UNK N   1      20.654  14.135   9.723  0.00  0.00     0.231 C 
HETATM    7  O   UNK N   1      19.487  13.833   9.909  0.00  0.00    -0.307 OA
ENDBRANCH   5   6
ENDBRANCH   1   5
TORSDOF 4
ENDMDL
MODEL 2
REMARK VINA RESULT:      -3.6      0.289      4.296
REMARK  4 active torsions:
REMARK  status: ('A' for Active; 'I' for Inactive)
REMARK    1  A    between atoms: C_2  and  C_3 
REMARK    2  A    between atoms: C_3  and  C_4 
REMARK    3  A    between atoms: C_4  and  C_5 
REMARK    4  A    between atoms: C_5  and  C_6 
ROOT
HETATM    1  C   UNK N   1      21.518  12.487  10.863  0.00  0.00     0.013 C 
ENDROOT
BRANCH   1   2
HETATM    2  C   UNK N   1      21.642  13.359   9.630  0.00  0.00     0.070 C 
BRANCH   2   3
HETATM    3  C   UNK N   1      20.525  14.342   9.591  0.00  0.00     0.231 C 
HETATM    4  O   UNK N   1      19.403  14.005   9.936  0.00  0.00    -0.307 OA
ENDBRANCH   2   3
ENDBRANCH   1   2
BRANCH   1   5
HETATM    5  C   UNK N   1      22.902  12.171  11.391  0.00  0.00     0.070 C 
BRANCH   5   6
HETATM    6  C   UNK N   1      22.833  11.861  12.846  0.00  0.00     0.231 C 
HETATM    7  O   UNK N   1      23.768  12.147  13.576  0.00  0.00    -0.307 OA
ENDBRANCH   5   6
ENDBRANCH   1   5
TORSDOF 4
ENDMDL
MODEL 3
REMARK VINA RESULT:      -3.3     13.180     14.022
REMARK  4 active torsions:
REMARK  status: ('A' for Active; 'I' for Inactive)
REMARK    1  A    between atoms: C_2  and  C_3 
REMARK    2  A    between atoms: C_3  and  C_4 
REMARK    3  A    between atoms: C_4  and  C_5 
REMARK    4  A    between atoms: C_5  and  C_6 
ROOT
HETATM    1  C   UNK N   1      32.789  17.228   6.958  0.00  0.00     0.013 C 
ENDROOT
BRANCH   1   2
HETATM    2  C   UNK N   1      33.663  17.460   5.742  0.00  0.00     0.070 C 
BRANCH   2   3
HETATM    3  C   UNK N   1      32.829  17.435   4.508  0.00  0.00     0.231 C 
HETATM    4  O   UNK N   1      31.640  17.703   4.571  0.00  0.00    -0.307 OA
ENDBRANCH   2   3
ENDBRANCH   1   2
BRANCH   1   5
HETATM    5  C   UNK N   1      33.153  18.234   8.031  0.00  0.00     0.070 C 
BRANCH   5   6
HETATM    6  C   UNK N   1      34.616  18.178   8.305  0.00  0.00     0.231 C 
HETATM    7  O   UNK N   1      35.243  19.209   8.482  0.00  0.00    -0.307 OA
ENDBRANCH   5   6
ENDBRANCH   1   5
TORSDOF 4
ENDMDL
MODEL 4
REMARK VINA RESULT:      -3.3     11.597     12.408
REMARK  4 active torsions:
REMARK  status: ('A' for Active; 'I' for Inactive)
REMARK    1  A    between atoms: C_2  and  C_3 
REMARK    2  A    between atoms: C_3  and  C_4 
REMARK    3  A    between atoms: C_4  and  C_5 
REMARK    4  A    between atoms: C_5  and  C_6 
ROOT
HETATM    1  C   UNK N   1      32.138  17.102   8.518  0.00  0.00     0.013 C 
ENDROOT
BRANCH   1   2
HETATM    2  C   UNK N   1      30.643  17.341   8.559  0.00  0.00     0.070 C 
BRANCH   2   3
HETATM    3  C   UNK N   1      30.360  18.677   9.153  0.00  0.00     0.231 C 
HETATM    4  O   UNK N   1      29.645  18.767  10.138  0.00  0.00    -0.307 OA
ENDBRANCH   2   3
ENDBRANCH   1   2
BRANCH   1   5
HETATM    5  C   UNK N   1      32.842  18.406   8.199  0.00  0.00     0.070 C 
BRANCH   5   6
HETATM    6  C   UNK N   1      34.317  18.195   8.180  0.00  0.00     0.231 C 
HETATM    7  O   UNK N   1      35.069  19.134   8.383  0.00  0.00    -0.307 OA
ENDBRANCH   5   6
ENDBRANCH   1   5
TORSDOF 4
ENDMDL
MODEL 5
REMARK VINA RESULT:      -3.2     21.410     21.994
REMARK  4 active torsions:
REMARK  status: ('A' for Active; 'I' for Inactive)
REMARK    1  A    between atoms: C_2  and  C_3 
REMARK    2  A    between atoms: C_3  and  C_4 
REMARK    3  A    between atoms: C_4  and  C_5 
REMARK    4  A    between atoms: C_5  and  C_6 
ROOT
HETATM    1  C   UNK N   1      25.000  27.296  -5.602  0.00  0.00     0.013 C 
ENDROOT
BRANCH   1   2
HETATM    2  C   UNK N   1      26.163  28.136  -5.114  0.00  0.00     0.070 C 
BRANCH   2   3
HETATM    3  C   UNK N   1      25.951  28.517  -3.690  0.00  0.00     0.231 C 
HETATM    4  O   UNK N   1      25.668  27.662  -2.867  0.00  0.00    -0.307 OA
ENDBRANCH   2   3
ENDBRANCH   1   2
BRANCH   1   5
HETATM    5  C   UNK N   1      25.498  26.312  -6.641  0.00  0.00     0.070 C 
BRANCH   5   6
HETATM    6  C   UNK N   1      25.917  25.045  -5.980  0.00  0.00     0.231 C 
HETATM    7  O   UNK N   1      25.082  24.326  -5.455  0.00  0.00    -0.307 OA
ENDBRANCH   5   6
ENDBRANCH   1   5
TORSDOF 4
ENDMDL
MODEL 6
REMARK VINA RESULT:      -3.2     14.629     15.293
REMARK  4 active torsions:
REMARK  status: ('A' for Active; 'I' for Inactive)
REMARK    1  A    between atoms: C_2  and  C_3 
REMARK    2  A    between atoms: C_3  and  C_4 
REMARK    3  A    between atoms: C_4  and  C_5 
REMARK    4  A    between atoms: C_5  and  C_6 
ROOT
HETATM    1  C   UNK N   1      35.065  13.037  16.104  0.00  0.00     0.013 C 
ENDROOT
BRANCH   1   2
HETATM    2  C   UNK N   1      35.176  12.498  17.516  0.00  0.00     0.070 C 
BRANCH   2   3
HETATM    3  C   UNK N   1      35.170  13.625  18.489  0.00  0.00     0.231 C 
HETATM    4  O   UNK N   1      35.065  13.397  19.684  0.00  0.00    -0.307 OA
ENDBRANCH   2   3
ENDBRANCH   1   2
BRANCH   1   5
HETATM    5  C   UNK N   1      36.428  12.984  15.442  0.00  0.00     0.070 C 
BRANCH   5   6
HETATM    6  C   UNK N   1      36.876  14.361  15.092  0.00  0.00     0.231 C 
HETATM    7  O   UNK N   1      37.561  14.997  15.876  0.00  0.00    -0.307 OA
ENDBRANCH   5   6
ENDBRANCH   1   5
TORSDOF 4
ENDMDL
MODEL 7
REMARK VINA RESULT:      -3.1     11.089     11.427
REMARK  4 active torsions:
REMARK  status: ('A' for Active; 'I' for Inactive)
REMARK    1  A    between atoms: C_2  and  C_3 
REMARK    2  A    between atoms: C_3  and  C_4 
REMARK    3  A    between atoms: C_4  and  C_5 
REMARK    4  A    between atoms: C_5  and  C_6 
ROOT
HETATM    1  C   UNK N   1      25.424  20.444   2.733  0.00  0.00     0.013 C 
ENDROOT
BRANCH   1   2
HETATM    2  C   UNK N   1      26.669  20.318   3.588  0.00  0.00     0.070 C 
BRANCH   2   3
HETATM    3  C   UNK N   1      26.336  20.598   5.012  0.00  0.00     0.231 C 
HETATM    4  O   UNK N   1      27.070  21.307   5.681  0.00  0.00    -0.307 OA
ENDBRANCH   2   3
ENDBRANCH   1   2
BRANCH   1   5
HETATM    5  C   UNK N   1      24.244  19.860   3.483  0.00  0.00     0.070 C 
BRANCH   5   6
HETATM    6  C   UNK N   1      22.971  20.375   2.906  0.00  0.00     0.231 C 
HETATM    7  O   UNK N   1      22.754  21.575   2.881  0.00  0.00    -0.307 OA
ENDBRANCH   5   6
ENDBRANCH   1   5
TORSDOF 4
ENDMDL
MODEL 8
REMARK VINA RESULT:      -3.1     21.449     22.137
REMARK  4 active torsions:
REMARK  status: ('A' for Active; 'I' for Inactive)
REMARK    1  A    between atoms: C_2  and  C_3 
REMARK    2  A    between atoms: C_3  and  C_4 
REMARK    3  A    between atoms: C_4  and  C_5 
REMARK    4  A    between atoms: C_5  and  C_6 
ROOT
HETATM    1  C   UNK N   1      26.421  27.814  -5.839  0.00  0.00     0.013 C 
ENDROOT
BRANCH   1   2
HETATM    2  C   UNK N   1      25.194  26.930  -5.951  0.00  0.00     0.070 C 
BRANCH   2   3
HETATM    3  C   UNK N   1      25.607  25.507  -6.095  0.00  0.00     0.231 C 
HETATM    4  O   UNK N   1      25.039  24.640  -5.451  0.00  0.00    -0.307 OA
ENDBRANCH   2   3
ENDBRANCH   1   2
BRANCH   1   5
HETATM    5  C   UNK N   1      26.297  28.682  -4.604  0.00  0.00     0.070 C 
BRANCH   5   6
HETATM    6  C   UNK N   1      26.646  27.892  -3.390  0.00  0.00     0.231 C 
HETATM    7  O   UNK N   1      25.778  27.592  -2.587  0.00  0.00    -0.307 OA
ENDBRANCH   5   6
ENDBRANCH   1   5
TORSDOF 4
ENDMDL
MODEL 9
REMARK VINA RESULT:      -3.0     11.469     11.974
REMARK  4 active torsions:
REMARK  status: ('A' for Active; 'I' for Inactive)
REMARK    1  A    between atoms: C_2  and  C_3 
REMARK    2  A    between atoms: C_3  and  C_4 
REMARK    3  A    between atoms: C_4  and  C_5 
REMARK    4  A    between atoms: C_5  and  C_6 
ROOT
HETATM    1  C   UNK N   1      31.889  16.913   8.260  0.00  0.00     0.013 C 
ENDROOT
BRANCH   1   2
HETATM    2  C   UNK N   1      32.907  18.032   8.170  0.00  0.00     0.070 C 
BRANCH   2   3
HETATM    3  C   UNK N   1      34.093  17.576   7.393  0.00  0.00     0.231 C 
HETATM    4  O   UNK N   1      34.246  17.950   6.241  0.00  0.00    -0.307 OA
ENDBRANCH   2   3
ENDBRANCH   1   2
BRANCH   1   5
HETATM    5  C   UNK N   1      30.495  17.499   8.163  0.00  0.00     0.070 C 
BRANCH   5   6
HETATM    6  C   UNK N   1      30.341  18.608   9.146  0.00  0.00     0.231 C 
HETATM    7  O   UNK N   1      29.342  18.670   9.843  0.00  0.00    -0.307 OA
ENDBRANCH   5   6
ENDBRANCH   1   5
TORSDOF 4
ENDMDL
