MODEL 1
REMARK VINA RESULT:      -4.7      0.000      0.000
REMARK  5 active torsions:
REMARK  status: ('A' for Active; 'I' for Inactive)
REMARK    1  A    between atoms: O_1  and  C_2 
REMARK    2  A    between atoms: C_3  and  C_2 
REMARK    3  A    between atoms: C_5  and  O_6 
REMARK    4  A    between atoms: C_7  and  O_8 
REMARK    5  A    between atoms: C_9  and  O_10 
ROOT
HETATM    1  C   UNK N   1      20.047  18.717   2.009  0.00  0.00     0.179 C 
HETATM    2  O   UNK N   1      20.528  18.326   3.277  0.00  0.00    -0.349 OA
HETATM    3  C   UNK N   1      21.314  19.401   3.740  0.00  0.00     0.288 C 
HETATM    4  C   UNK N   1      21.016  20.593   2.868  0.00  0.00     0.204 C 
HETATM    5  C   UNK N   1      20.870  19.905   1.562  0.00  0.00     0.182 C 
ENDROOT
BRANCH   1   6
HETATM    6  C   UNK N   1      20.153  17.567   1.022  0.00  0.00     0.198 C 
BRANCH   6   7
HETATM    7  O   UNK N   1      20.383  18.051  -0.266  0.00  0.00    -0.398 OA
HETATM    8  H   UNK N   1      19.707  18.048  -0.961  0.00  0.00     0.209 HD
ENDBRANCH   6   7
ENDBRANCH   1   6
BRANCH   5   9
HETATM    9  O   UNK N   1      20.175  20.697   0.649  0.00  0.00    -0.390 OA
HETATM   10  H   UNK N   1      20.494  21.078  -0.184  0.00  0.00     0.210 HD
ENDBRANCH   5   9
BRANCH   3  11
HETATM   11  O   UNK N   1      20.999  19.697   5.066  0.00  0.00    -0.369 OA
HETATM   12  H   UNK N   1      21.203  20.502   5.568  0.00  0.00     0.212 HD
ENDBRANCH   3  11
BRANCH   4  13
HETATM   13  O   UNK N   1      22.079  21.496   2.857  0.00  0.00    -0.388 OA
HETATM   14  H   UNK N   1      22.853  21.524   3.440  0.00  0.00     0.210 HD
ENDBRANCH   4  13
TORSDOF 5
ENDMDL
MODEL 2
REMARK VINA RESULT:      -4.7      1.300      2.759
REMARK  5 active torsions:
REMARK  status: ('A' for Active; 'I' for Inactive)
REMARK    1  A    between atoms: O_1  and  C_2 
REMARK    2  A    between atoms: C_3  and  C_2 
REMARK    3  A    between atoms: C_5  and  O_6 
REMARK    4  A    between atoms: C_7  and  O_8 
REMARK    5  A    between atoms: C_9  and  O_10 
ROOT
HETATM    1  C   UNK N   1      20.532  18.954   3.625  0.00  0.00     0.179 C 
HETATM    2  O   UNK N   1      21.634  19.829   3.739  0.00  0.00    -0.349 OA
HETATM    3  C   UNK N   1      21.782  20.430   2.472  0.00  0.00     0.288 C 
HETATM    4  C   UNK N   1      20.528  20.150   1.685  0.00  0.00     0.204 C 
HETATM    5  C   UNK N   1      20.256  18.768   2.150  0.00  0.00     0.182 C 
ENDROOT
BRANCH   1   6
HETATM    6  C   UNK N   1      20.834  17.628   4.304  0.00  0.00     0.198 C 
BRANCH   6   7
HETATM    7  O   UNK N   1      19.750  16.760   4.177  0.00  0.00    -0.398 OA
HETATM    8  H   UNK N   1      19.740  16.012   3.559  0.00  0.00     0.209 HD
ENDBRANCH   6   7
ENDBRANCH   1   6
BRANCH   5   9
HETATM    9  O   UNK N   1      18.928  18.410   1.917  0.00  0.00    -0.390 OA
HETATM   10  H   UNK N   1      18.529  18.071   1.101  0.00  0.00     0.210 HD
ENDBRANCH   5   9
BRANCH   3  11
HETATM   11  O   UNK N   1      21.957  21.807   2.605  0.00  0.00    -0.369 OA
HETATM   12  H   UNK N   1      21.370  22.449   3.034  0.00  0.00     0.212 HD
ENDBRANCH   3  11
BRANCH   4  13
HETATM   13  O   UNK N   1      20.768  20.192   0.312  0.00  0.00    -0.388 OA
HETATM   14  H   UNK N   1      20.686  20.946  -0.293  0.00  0.00     0.210 HD
ENDBRANCH   4  13
TORSDOF 5
ENDMDL
MODEL 3
REMARK VINA RESULT:      -4.6     14.952     16.292
REMARK  5 active torsions:
REMARK  status: ('A' for Active; 'I' for Inactive)
REMARK    1  A    between atoms: O_1  and  C_2 
REMARK    2  A    between atoms: C_3  and  C_2 
REMARK    3  A    between atoms: C_5  and  O_6 
REMARK    4  A    between atoms: C_7  and  O_8 
REMARK    5  A    between atoms: C_9  and  O_10 
ROOT
HETATM    1  C   UNK N   1      34.874  17.029   8.904  0.00  0.00     0.179 C 
HETATM    2  O   UNK N   1      35.666  17.298  10.042  0.00  0.00    -0.349 OA
HETATM    3  C   UNK N   1      35.214  16.414  11.044  0.00  0.00     0.288 C 
HETATM    4  C   UNK N   1      34.359  15.368  10.377  0.00  0.00     0.204 C 
HETATM    5  C   UNK N   1      33.685  16.217   9.366  0.00  0.00     0.182 C 
ENDROOT
BRANCH   1   6
HETATM    6  C   UNK N   1      34.438  18.325   8.243  0.00  0.00     0.198 C 
BRANCH   6   7
HETATM    7  O   UNK N   1      35.340  19.348   8.536  0.00  0.00    -0.398 OA
HETATM    8  H   UNK N   1      35.710  19.490   9.421  0.00  0.00     0.209 HD
ENDBRANCH   6   7
ENDBRANCH   1   6
BRANCH   5   9
HETATM    9  O   UNK N   1      33.157  15.446   8.330  0.00  0.00    -0.390 OA
HETATM   10  H   UNK N   1      33.426  15.422   7.398  0.00  0.00     0.210 HD
ENDBRANCH   5   9
BRANCH   3  11
HETATM   11  O   UNK N   1      36.297  15.805  11.677  0.00  0.00    -0.369 OA
HETATM   12  H   UNK N   1      36.803  16.122  12.442  0.00  0.00     0.212 HD
ENDBRANCH   3  11
BRANCH   4  13
HETATM   13  O   UNK N   1      33.446  14.810  11.272  0.00  0.00    -0.388 OA
HETATM   14  H   UNK N   1      33.622  14.267  12.055  0.00  0.00     0.210 HD
ENDBRANCH   4  13
TORSDOF 5
ENDMDL
MODEL 4
REMARK VINA RESULT:      -4.5      1.377      2.880
REMARK  5 active torsions:
REMARK  status: ('A' for Active; 'I' for Inactive)
REMARK    1  A    between atoms: O_1  and  C_2 
REMARK    2  A    between atoms: C_3  and  C_2 
REMARK    3  A    between atoms: C_5  and  O_6 
REMARK    4  A    between atoms: C_7  and  O_8 
REMARK    5  A    between atoms: C_9  and  O_10 
ROOT
HETATM    1  C   UNK N   1      21.043  18.305   2.580  0.00  0.00     0.179 C 
HETATM    2  O   UNK N   1      20.241  18.812   1.534  0.00  0.00    -0.349 OA
HETATM    3  C   UNK N   1      20.540  20.187   1.451  0.00  0.00     0.288 C 
HETATM    4  C   UNK N   1      21.797  20.430   2.247  0.00  0.00     0.204 C 
HETATM    5  C   UNK N   1      21.556  19.489   3.368  0.00  0.00     0.182 C 
ENDROOT
BRANCH   1   6
HETATM    6  C   UNK N   1      20.237  17.362   3.458  0.00  0.00     0.198 C 
BRANCH   6   7
HETATM    7  O   UNK N   1      18.870  17.572   3.269  0.00  0.00    -0.398 OA
HETATM    8  H   UNK N   1      18.223  17.523   3.990  0.00  0.00     0.209 HD
ENDBRANCH   6   7
ENDBRANCH   1   6
BRANCH   5   9
HETATM    9  O   UNK N   1      22.743  19.186   4.035  0.00  0.00    -0.390 OA
HETATM   10  H   UNK N   1      23.205  19.708   4.711  0.00  0.00     0.210 HD
ENDBRANCH   5   9
BRANCH   3  11
HETATM   11  O   UNK N   1      20.745  20.560   0.122  0.00  0.00    -0.369 OA
HETATM   12  H   UNK N   1      20.697  20.004  -0.672  0.00  0.00     0.212 HD
ENDBRANCH   3  11
BRANCH   4  13
HETATM   13  O   UNK N   1      21.872  21.750   2.690  0.00  0.00    -0.388 OA
HETATM   14  H   UNK N   1      21.853  22.083   3.600  0.00  0.00     0.210 HD
ENDBRANCH   4  13
TORSDOF 5
ENDMDL
MODEL 5
REMARK VINA RESULT:      -4.5     13.929     14.961
REMARK  5 active torsions:
REMARK  status: ('A' for Active; 'I' for Inactive)
REMARK    1  A    between atoms: O_1  and  C_2 
REMARK    2  A    between atoms: C_3  and  C_2 
REMARK    3  A    between atoms: C_5  and  O_6 
REMARK    4  A    between atoms: C_7  and  O_8 
REMARK    5  A    between atoms: C_9  and  O_10 
ROOT
HETATM    1  C   UNK N   1      33.471  15.971   8.634  0.00  0.00     0.179 C 
HETATM    2  O   UNK N   1      33.082  16.321   7.322  0.00  0.00    -0.349 OA
HETATM    3  C   UNK N   1      33.624  17.602   7.088  0.00  0.00     0.288 C 
HETATM    4  C   UNK N   1      34.639  17.872   8.168  0.00  0.00     0.204 C 
HETATM    5  C   UNK N   1      33.946  17.235   9.314  0.00  0.00     0.182 C 
ENDROOT
BRANCH   1   6
HETATM    6  C   UNK N   1      32.308  15.342   9.383  0.00  0.00     0.198 C 
BRANCH   6   7
HETATM    7  O   UNK N   1      32.654  15.116  10.715  0.00  0.00    -0.398 OA
HETATM    8  H   UNK N   1      32.133  14.553  11.309  0.00  0.00     0.209 HD
ENDBRANCH   6   7
ENDBRANCH   1   6
BRANCH   5   9
HETATM    9  O   UNK N   1      34.837  16.956  10.350  0.00  0.00    -0.390 OA
HETATM   10  H   UNK N   1      35.561  16.310  10.366  0.00  0.00     0.210 HD
ENDBRANCH   5   9
BRANCH   3  11
HETATM   11  O   UNK N   1      34.241  17.645   5.838  0.00  0.00    -0.369 OA
HETATM   12  H   UNK N   1      34.200  18.350   5.171  0.00  0.00     0.212 HD
ENDBRANCH   3  11
BRANCH   4  13
HETATM   13  O   UNK N   1      34.817  19.240   8.370  0.00  0.00    -0.388 OA
HETATM   14  H   UNK N   1      35.081  19.702   9.180  0.00  0.00     0.210 HD
ENDBRANCH   4  13
TORSDOF 5
ENDMDL
MODEL 6
REMARK VINA RESULT:      -4.5     14.216     15.386
REMARK  5 active torsions:
REMARK  status: ('A' for Active; 'I' for Inactive)
REMARK    1  A    between atoms: O_1  and  C_2 
REMARK    2  A    between atoms: C_3  and  C_2 
REMARK    3  A    between atoms: C_5  and  O_6 
REMARK    4  A    between atoms: C_7  and  O_8 
REMARK    5  A    between atoms: C_9  and  O_10 
ROOT
HETATM    1  C   UNK N   1      33.381  17.421   8.505  0.00  0.00     0.179 C 
HETATM    2  O   UNK N   1      32.933  16.166   8.973  0.00  0.00    -0.349 OA
HETATM    3  C   UNK N   1      33.958  15.679   9.810  0.00  0.00     0.288 C 
HETATM    4  C   UNK N   1      34.888  16.827  10.109  0.00  0.00     0.204 C 
HETATM    5  C   UNK N   1      34.863  17.505   8.790  0.00  0.00     0.182 C 
ENDROOT
BRANCH   1   6
HETATM    6  C   UNK N   1      33.092  17.569   7.021  0.00  0.00     0.198 C 
BRANCH   6   7
HETATM    7  O   UNK N   1      34.257  17.905   6.331  0.00  0.00    -0.398 OA
HETATM    8  H   UNK N   1      34.477  18.814   6.076  0.00  0.00     0.209 HD
ENDBRANCH   6   7
ENDBRANCH   1   6
BRANCH   5   9
HETATM    9  O   UNK N   1      35.292  18.828   8.895  0.00  0.00    -0.390 OA
HETATM   10  H   UNK N   1      34.894  19.624   8.508  0.00  0.00     0.210 HD
ENDBRANCH   5   9
BRANCH   3  11
HETATM   11  O   UNK N   1      33.420  15.186  10.999  0.00  0.00    -0.369 OA
HETATM   12  H   UNK N   1      33.569  14.322  11.414  0.00  0.00     0.212 HD
ENDBRANCH   3  11
BRANCH   4  13
HETATM   13  O   UNK N   1      36.167  16.376  10.432  0.00  0.00    -0.388 OA
HETATM   14  H   UNK N   1      36.888  16.860  10.864  0.00  0.00     0.210 HD
ENDBRANCH   4  13
TORSDOF 5
ENDMDL
MODEL 7
REMARK VINA RESULT:      -4.4      1.230      2.683
REMARK  5 active torsions:
REMARK  status: ('A' for Active; 'I' for Inactive)
REMARK    1  A    between atoms: O_1  and  C_2 
REMARK    2  A    between atoms: C_3  and  C_2 
REMARK    3  A    between atoms: C_5  and  O_6 
REMARK    4  A    between atoms: C_7  and  O_8 
REMARK    5  A    between atoms: C_9  and  O_10 
ROOT
HETATM    1  C   UNK N   1      21.079  19.703   2.069  0.00  0.00     0.179 C 
HETATM    2  O   UNK N   1      21.348  20.036   3.414  0.00  0.00    -0.349 OA
HETATM    3  C   UNK N   1      20.679  19.069   4.193  0.00  0.00     0.288 C 
HETATM    4  C   UNK N   1      20.280  17.942   3.275  0.00  0.00     0.204 C 
HETATM    5  C   UNK N   1      19.923  18.729   2.070  0.00  0.00     0.182 C 
ENDROOT
BRANCH   1   6
HETATM    6  C   UNK N   1      20.750  20.953   1.269  0.00  0.00     0.198 C 
BRANCH   6   7
HETATM    7  O   UNK N   1      20.608  20.639  -0.084  0.00  0.00    -0.398 OA
HETATM    8  H   UNK N   1      21.278  20.150  -0.587  0.00  0.00     0.209 HD
ENDBRANCH   6   7
ENDBRANCH   1   6
BRANCH   5   9
HETATM    9  O   UNK N   1      19.924  17.929   0.927  0.00  0.00    -0.390 OA
HETATM   10  H   UNK N   1      20.678  17.498   0.494  0.00  0.00     0.210 HD
ENDBRANCH   5   9
BRANCH   3  11
HETATM   11  O   UNK N   1      21.520  18.586   5.195  0.00  0.00    -0.369 OA
HETATM   12  H   UNK N   1      21.976  19.086   5.891  0.00  0.00     0.212 HD
ENDBRANCH   3  11
BRANCH   4  13
HETATM   13  O   UNK N   1      19.183  17.242   3.776  0.00  0.00    -0.388 OA
HETATM   14  H   UNK N   1      18.277  17.212   3.432  0.00  0.00     0.210 HD
ENDBRANCH   4  13
TORSDOF 5
ENDMDL
MODEL 8
REMARK VINA RESULT:      -4.3     22.094     23.151
REMARK  5 active torsions:
REMARK  status: ('A' for Active; 'I' for Inactive)
REMARK    1  A    between atoms: O_1  and  C_2 
REMARK    2  A    between atoms: C_3  and  C_2 
REMARK    3  A    between atoms: C_5  and  O_6 
REMARK    4  A    between atoms: C_7  and  O_8 
REMARK    5  A    between atoms: C_9  and  O_10 
ROOT
HETATM    1  C   UNK N   1      42.620  22.128   2.794  0.00  0.00     0.179 C 
HETATM    2  O   UNK N   1      43.158  20.907   2.332  0.00  0.00    -0.349 OA
HETATM    3  C   UNK N   1      44.459  20.831   2.872  0.00  0.00     0.288 C 
HETATM    4  C   UNK N   1      44.567  21.877   3.952  0.00  0.00     0.204 C 
HETATM    5  C   UNK N   1      43.770  22.957   3.321  0.00  0.00     0.182 C 
ENDROOT
BRANCH   1   6
HETATM    6  C   UNK N   1      41.889  22.845   1.671  0.00  0.00     0.198 C 
BRANCH   6   7
HETATM    7  O   UNK N   1      41.578  24.151   2.050  0.00  0.00    -0.398 OA
HETATM    8  H   UNK N   1      40.736  24.579   1.832  0.00  0.00     0.209 HD
ENDBRANCH   6   7
ENDBRANCH   1   6
BRANCH   5   9
HETATM    9  O   UNK N   1      43.341  23.886   4.268  0.00  0.00    -0.390 OA
HETATM   10  H   UNK N   1      42.492  24.354   4.314  0.00  0.00     0.210 HD
ENDBRANCH   5   9
BRANCH   3  11
HETATM   11  O   UNK N   1      44.686  19.567   3.416  0.00  0.00    -0.369 OA
HETATM   12  H   UNK N   1      44.804  19.326   4.348  0.00  0.00     0.212 HD
ENDBRANCH   3  11
BRANCH   4  13
HETATM   13  O   UNK N   1      45.891  22.266   4.154  0.00  0.00    -0.388 OA
HETATM   14  H   UNK N   1      46.702  21.834   3.843  0.00  0.00     0.210 HD
ENDBRANCH   4  13
TORSDOF 5
ENDMDL
MODEL 9
REMARK VINA RESULT:      -4.2     16.579     17.912
REMARK  5 active torsions:
REMARK  status: ('A' for Active; 'I' for Inactive)
REMARK    1  A    between atoms: O_1  and  C_2 
REMARK    2  A    between atoms: C_3  and  C_2 
REMARK    3  A    between atoms: C_5  and  O_6 
REMARK    4  A    between atoms: C_7  and  O_8 
REMARK    5  A    between atoms: C_9  and  O_10 
ROOT
HETATM    1  C   UNK N   1      34.796  15.594  10.940  0.00  0.00     0.179 C 
HETATM    2  O   UNK N   1      34.029  14.533  11.468  0.00  0.00    -0.349 OA
HETATM    3  C   UNK N   1      34.956  13.622  12.016  0.00  0.00     0.288 C 
HETATM    4  C   UNK N   1      36.286  14.326  12.110  0.00  0.00     0.204 C 
HETATM    5  C   UNK N   1      36.228  15.116  10.856  0.00  0.00     0.182 C 
ENDROOT
BRANCH   1   6
HETATM    6  C   UNK N   1      34.267  16.004   9.576  0.00  0.00     0.198 C 
BRANCH   6   7
HETATM    7  O   UNK N   1      34.009  17.375   9.547  0.00  0.00    -0.398 OA
HETATM    8  H   UNK N   1      34.245  17.973  10.273  0.00  0.00     0.209 HD
ENDBRANCH   6   7
ENDBRANCH   1   6
BRANCH   5   9
HETATM    9  O   UNK N   1      37.128  16.181  10.889  0.00  0.00    -0.390 OA
HETATM   10  H   UNK N   1      37.293  16.853  10.208  0.00  0.00     0.210 HD
ENDBRANCH   5   9
BRANCH   3  11
HETATM   11  O   UNK N   1      34.547  13.218  13.286  0.00  0.00    -0.369 OA
HETATM   12  H   UNK N   1      34.274  12.333  13.577  0.00  0.00     0.212 HD
ENDBRANCH   3  11
BRANCH   4  13
HETATM   13  O   UNK N   1      37.344  13.419  12.097  0.00  0.00    -0.388 OA
HETATM   14  H   UNK N   1      38.075  13.334  12.730  0.00  0.00     0.210 HD
ENDBRANCH   4  13
TORSDOF 5
ENDMDL
