MODEL 1
REMARK VINA RESULT:      -7.4      0.000      0.000
REMARK  15 active torsions:
REMARK  status: ('A' for Active; 'I' for Inactive)
REMARK    1  A    between atoms: C_9  and  C_5 
REMARK    2  A    between atoms: O_30  and  C_5 
REMARK    3  A    between atoms: C_7  and  O_19 
REMARK    4  A    between atoms: C_8  and  O_20 
REMARK    5  A    between atoms: C_10  and  N_18 
REMARK    6  A    between atoms: C_11  and  O_21 
REMARK    7  A    between atoms: C_12  and  O_22 
REMARK    8  A    between atoms: O_23  and  C_13 
REMARK    9  A    between atoms: C_14  and  O_32 
REMARK   10  A    between atoms: P_34  and  O_25 
REMARK   11  A    between atoms: P_35  and  O_27 
REMARK   12  A    between atoms: P_34  and  O_30 
REMARK   13  A    between atoms: P_35  and  O_32 
REMARK   14  A    between atoms: P_34  and  O_33 
REMARK   15  A    between atoms: P_35  and  O_33 
ROOT
HETATM    1  O   UNK N   1      34.479  16.986   7.599  0.00  0.00    -0.631 OA
HETATM    2  P   UNK N   1      34.400  15.600   8.295  0.00  0.00     0.401 P 
ENDROOT
BRANCH   2   3
HETATM    3  O   UNK N   1      35.531  14.571   7.473  0.00  0.00    -0.307 OA
HETATM    4  H   UNK N   1      35.294  14.166   6.624  0.00  0.00     0.222 HD
ENDBRANCH   2   3
BRANCH   2   5
HETATM    5  O   UNK N   1      34.833  15.828   9.956  0.00  0.00    -0.294 OA
BRANCH   5   6
HETATM    6  C   UNK N   1      34.235  14.758  10.631  0.00  0.00     0.215 C 
BRANCH   6   7
HETATM    7  C   UNK N   1      35.097  14.376  11.821  0.00  0.00     0.177 C 
HETATM    8  C   UNK N   1      36.549  14.097  11.435  0.00  0.00     0.153 C 
HETATM    9  C   UNK N   1      36.941  12.990  12.365  0.00  0.00     0.088 C 
HETATM   10  C   UNK N   1      35.662  12.649  13.123  0.00  0.00     0.235 C 
HETATM   11  O   UNK N   1      34.583  13.217  12.418  0.00  0.00    -0.356 OA
BRANCH   8  12
HETATM   12  O   UNK N   1      36.679  13.613  10.130  0.00  0.00    -0.393 OA
HETATM   13  H   UNK N   1      36.225  12.826   9.790  0.00  0.00     0.210 HD
ENDBRANCH   8  12
BRANCH  10  14
HETATM   14  N   UNK N   1      35.636  13.102  14.536  0.00  0.00    -0.282 N 
HETATM   15  C   UNK N   1      36.494  14.111  14.867  0.00  0.00     0.109 A 
HETATM   16  C   UNK N   1      36.546  14.616  16.162  0.00  0.00     0.005 A 
HETATM   17  C   UNK N   1      37.501  15.711  16.493  0.00  0.00     0.054 C 
HETATM   18  C   UNK N   1      35.696  14.084  17.128  0.00  0.00     0.151 A 
HETATM   19  N   UNK N   1      34.846  13.086  16.795  0.00  0.00    -0.288 N 
HETATM   20  C   UNK N   1      34.799  12.583  15.523  0.00  0.00     0.330 A 
ATOM     21  HN  UNK N   1      34.226  12.700  17.507  1.00  0.00     0.172 HD
HETATM   22  O   UNK N   1      34.009  11.688  15.281  0.00  0.00    -0.246 OA
BRANCH  18  23
HETATM   23  O   UNK N   1      35.711  14.551  18.388  0.00  0.00    -0.346 OA
HETATM   24  H   UNK N   1      36.428  15.040  18.740  0.00  0.00     0.219 HD
ENDBRANCH  18  23
ENDBRANCH  10  14
ENDBRANCH   6   7
ENDBRANCH   5   6
ENDBRANCH   2   5
BRANCH   2  25
HETATM   25  O   UNK N   1      32.769  15.004   8.166  0.00  0.00    -0.195 OA
BRANCH  25  26
HETATM   26  P   UNK N   1      32.291  15.230   6.501  0.00  0.00     0.404 P 
HETATM   27  O   UNK N   1      31.303  14.088   6.138  0.00  0.00    -0.631 OA
BRANCH  26  28
HETATM   28  O   UNK N   1      33.659  15.012   5.454  0.00  0.00    -0.307 OA
HETATM   29  H   UNK N   1      34.312  15.596   5.039  0.00  0.00     0.222 HD
ENDBRANCH  26  28
BRANCH  26  30
HETATM   30  O   UNK N   1      31.440  16.754   6.263  0.00  0.00    -0.263 OA
BRANCH  30  31
HETATM   31  C   UNK N   1      30.377  16.910   7.179  0.00  0.00     0.302 C 
HETATM   32  C   UNK N   1      30.785  17.521   8.560  0.00  0.00     0.205 C 
HETATM   33  C   UNK N   1      29.618  18.349   9.114  0.00  0.00     0.182 C 
HETATM   34  C   UNK N   1      28.299  17.616   8.890  0.00  0.00     0.173 C 
HETATM   35  C   UNK N   1      28.108  17.344   7.381  0.00  0.00     0.205 C 
HETATM   36  O   UNK N   1      29.274  17.588   6.602  0.00  0.00    -0.355 OA
BRANCH  32  37
HETATM   37  O   UNK N   1      31.897  18.358   8.494  0.00  0.00    -0.388 OA
HETATM   38  H   UNK N   1      31.945  19.261   8.844  0.00  0.00     0.210 HD
ENDBRANCH  32  37
BRANCH  33  39
HETATM   39  O   UNK N   1      29.824  18.633  10.467  0.00  0.00    -0.390 OA
HETATM   40  H   UNK N   1      30.379  19.346  10.817  0.00  0.00     0.210 HD
ENDBRANCH  33  39
BRANCH  34  41
HETATM   41  O   UNK N   1      27.234  18.387   9.357  0.00  0.00    -0.391 OA
HETATM   42  H   UNK N   1      27.192  18.785  10.241  0.00  0.00     0.210 HD
ENDBRANCH  34  41
ENDBRANCH  30  31
ENDBRANCH  26  30
ENDBRANCH  25  26
ENDBRANCH   2  25
TORSDOF 15
ENDMDL
MODEL 2
REMARK VINA RESULT:      -7.3      3.883     10.157
REMARK  15 active torsions:
REMARK  status: ('A' for Active; 'I' for Inactive)
REMARK    1  A    between atoms: C_9  and  C_5 
REMARK    2  A    between atoms: O_30  and  C_5 
REMARK    3  A    between atoms: C_7  and  O_19 
REMARK    4  A    between atoms: C_8  and  O_20 
REMARK    5  A    between atoms: C_10  and  N_18 
REMARK    6  A    between atoms: C_11  and  O_21 
REMARK    7  A    between atoms: C_12  and  O_22 
REMARK    8  A    between atoms: O_23  and  C_13 
REMARK    9  A    between atoms: C_14  and  O_32 
REMARK   10  A    between atoms: P_34  and  O_25 
REMARK   11  A    between atoms: P_35  and  O_27 
REMARK   12  A    between atoms: P_34  and  O_30 
REMARK   13  A    between atoms: P_35  and  O_32 
REMARK   14  A    between atoms: P_34  and  O_33 
REMARK   15  A    between atoms: P_35  and  O_33 
ROOT
HETATM    1  O   UNK N   1      34.239  16.751   9.533  0.00  0.00    -0.631 OA
HETATM    2  P   UNK N   1      33.399  15.453   9.383  0.00  0.00     0.401 P 
ENDROOT
BRANCH   2   3
HETATM    3  O   UNK N   1      32.974  14.953  10.989  0.00  0.00    -0.307 OA
HETATM    4  H   UNK N   1      33.643  14.554  11.569  0.00  0.00     0.222 HD
ENDBRANCH   2   3
BRANCH   2   5
HETATM    5  O   UNK N   1      31.998  15.848   8.444  0.00  0.00    -0.294 OA
BRANCH   5   6
HETATM    6  C   UNK N   1      32.031  17.242   8.325  0.00  0.00     0.215 C 
BRANCH   6   7
HETATM    7  C   UNK N   1      30.649  17.741   7.939  0.00  0.00     0.177 C 
HETATM    8  C   UNK N   1      29.739  17.959   9.146  0.00  0.00     0.153 C 
HETATM    9  C   UNK N   1      28.389  17.565   8.629  0.00  0.00     0.088 C 
HETATM   10  C   UNK N   1      28.649  17.050   7.218  0.00  0.00     0.235 C 
HETATM   11  O   UNK N   1      30.031  16.803   7.101  0.00  0.00    -0.356 OA
BRANCH   8  12
HETATM   12  O   UNK N   1      30.043  17.108  10.213  0.00  0.00    -0.393 OA
HETATM   13  H   UNK N   1      29.988  17.360  11.148  0.00  0.00     0.210 HD
ENDBRANCH   8  12
BRANCH  10  14
HETATM   14  N   UNK N   1      28.205  17.959   6.131  0.00  0.00    -0.282 N 
HETATM   15  C   UNK N   1      27.774  19.196   6.513  0.00  0.00     0.109 A 
HETATM   16  C   UNK N   1      27.342  20.130   5.576  0.00  0.00     0.005 A 
HETATM   17  C   UNK N   1      26.870  21.468   6.026  0.00  0.00     0.054 C 
HETATM   18  C   UNK N   1      27.364  19.788   4.225  0.00  0.00     0.151 A 
HETATM   19  N   UNK N   1      27.794  18.560   3.852  0.00  0.00    -0.288 N 
HETATM   20  C   UNK N   1      28.212  17.639   4.774  0.00  0.00     0.330 A 
ATOM     21  HN  UNK N   1      27.807  18.317   2.862  1.00  0.00     0.172 HD
HETATM   22  O   UNK N   1      28.594  16.554   4.378  0.00  0.00    -0.246 OA
BRANCH  18  23
HETATM   23  O   UNK N   1      26.963  20.664   3.290  0.00  0.00    -0.346 OA
HETATM   24  H   UNK N   1      27.458  20.842   2.515  0.00  0.00     0.219 HD
ENDBRANCH  18  23
ENDBRANCH  10  14
ENDBRANCH   6   7
ENDBRANCH   5   6
ENDBRANCH   2   5
BRANCH   2  25
HETATM   25  O   UNK N   1      34.364  14.257   8.563  0.00  0.00    -0.195 OA
BRANCH  25  26
HETATM   26  P   UNK N   1      34.991  13.197   9.802  0.00  0.00     0.404 P 
HETATM   27  O   UNK N   1      36.141  12.366   9.170  0.00  0.00    -0.631 OA
BRANCH  26  28
HETATM   28  O   UNK N   1      33.782  12.041  10.266  0.00  0.00    -0.307 OA
HETATM   29  H   UNK N   1      33.194  11.922  11.027  0.00  0.00     0.222 HD
ENDBRANCH  26  28
BRANCH  26  30
HETATM   30  O   UNK N   1      35.677  14.097  11.152  0.00  0.00    -0.263 OA
BRANCH  30  31
HETATM   31  C   UNK N   1      35.716  13.323  12.333  0.00  0.00     0.302 C 
HETATM   32  C   UNK N   1      36.538  13.954  13.505  0.00  0.00     0.205 C 
HETATM   33  C   UNK N   1      35.914  13.540  14.844  0.00  0.00     0.182 C 
HETATM   34  C   UNK N   1      35.520  12.067  14.808  0.00  0.00     0.173 C 
HETATM   35  C   UNK N   1      34.531  11.823  13.646  0.00  0.00     0.205 C 
HETATM   36  O   UNK N   1      34.422  12.922  12.747  0.00  0.00    -0.355 OA
BRANCH  32  37
HETATM   37  O   UNK N   1      36.576  15.347  13.474  0.00  0.00    -0.388 OA
HETATM   38  H   UNK N   1      37.188  15.906  13.978  0.00  0.00     0.210 HD
ENDBRANCH  32  37
BRANCH  33  39
HETATM   39  O   UNK N   1      36.795  13.811  15.894  0.00  0.00    -0.390 OA
HETATM   40  H   UNK N   1      37.357  14.597  15.974  0.00  0.00     0.210 HD
ENDBRANCH  33  39
BRANCH  34  41
HETATM   41  O   UNK N   1      34.915  11.700  16.011  0.00  0.00    -0.391 OA
HETATM   42  H   UNK N   1      35.296  11.865  16.888  0.00  0.00     0.210 HD
ENDBRANCH  34  41
ENDBRANCH  30  31
ENDBRANCH  26  30
ENDBRANCH  25  26
ENDBRANCH   2  25
TORSDOF 15
ENDMDL
MODEL 3
REMARK VINA RESULT:      -7.2      2.527      4.593
REMARK  15 active torsions:
REMARK  status: ('A' for Active; 'I' for Inactive)
REMARK    1  A    between atoms: C_9  and  C_5 
REMARK    2  A    between atoms: O_30  and  C_5 
REMARK    3  A    between atoms: C_7  and  O_19 
REMARK    4  A    between atoms: C_8  and  O_20 
REMARK    5  A    between atoms: C_10  and  N_18 
REMARK    6  A    between atoms: C_11  and  O_21 
REMARK    7  A    between atoms: C_12  and  O_22 
REMARK    8  A    between atoms: O_23  and  C_13 
REMARK    9  A    between atoms: C_14  and  O_32 
REMARK   10  A    between atoms: P_34  and  O_25 
REMARK   11  A    between atoms: P_35  and  O_27 
REMARK   12  A    between atoms: P_34  and  O_30 
REMARK   13  A    between atoms: P_35  and  O_32 
REMARK   14  A    between atoms: P_34  and  O_33 
REMARK   15  A    between atoms: P_35  and  O_33 
ROOT
HETATM    1  O   UNK N   1      38.046  13.073  10.153  0.00  0.00    -0.631 OA
HETATM    2  P   UNK N   1      36.843  13.428  11.068  0.00  0.00     0.401 P 
ENDROOT
BRANCH   2   3
HETATM    3  O   UNK N   1      35.422  12.837  10.266  0.00  0.00    -0.307 OA
HETATM    4  H   UNK N   1      34.551  12.931  10.684  0.00  0.00     0.222 HD
ENDBRANCH   2   3
BRANCH   2   5
HETATM    5  O   UNK N   1      37.096  12.635  12.587  0.00  0.00    -0.294 OA
BRANCH   5   6
HETATM    6  C   UNK N   1      36.688  13.567  13.548  0.00  0.00     0.215 C 
BRANCH   6   7
HETATM    7  C   UNK N   1      36.012  12.836  14.694  0.00  0.00     0.177 C 
HETATM    8  C   UNK N   1      34.910  11.887  14.224  0.00  0.00     0.153 C 
HETATM    9  C   UNK N   1      33.888  11.987  15.314  0.00  0.00     0.088 C 
HETATM   10  C   UNK N   1      34.427  13.059  16.255  0.00  0.00     0.235 C 
HETATM   11  O   UNK N   1      35.430  13.767  15.565  0.00  0.00    -0.356 OA
BRANCH   8  12
HETATM   12  O   UNK N   1      34.301  12.310  13.039  0.00  0.00    -0.393 OA
HETATM   13  H   UNK N   1      34.132  13.237  12.811  0.00  0.00     0.210 HD
ENDBRANCH   8  12
BRANCH  10  14
HETATM   14  N   UNK N   1      34.963  12.548  17.541  0.00  0.00    -0.282 N 
HETATM   15  C   UNK N   1      35.210  11.207  17.606  0.00  0.00     0.109 A 
HETATM   16  C   UNK N   1      35.720  10.623  18.761  0.00  0.00     0.005 A 
HETATM   17  C   UNK N   1      35.970   9.156  18.802  0.00  0.00     0.054 C 
HETATM   18  C   UNK N   1      35.989  11.433  19.862  0.00  0.00     0.151 A 
HETATM   19  N   UNK N   1      35.745  12.762  19.792  0.00  0.00    -0.288 N 
HETATM   20  C   UNK N   1      35.236  13.335  18.658  0.00  0.00     0.330 A 
ATOM     21  HN  UNK N   1      35.944  13.349  20.603  1.00  0.00     0.172 HD
HETATM   22  O   UNK N   1      35.042  14.537  18.653  0.00  0.00    -0.246 OA
BRANCH  18  23
HETATM   23  O   UNK N   1      36.490  10.908  20.993  0.00  0.00    -0.346 OA
HETATM   24  H   UNK N   1      37.078  10.180  20.998  0.00  0.00     0.219 HD
ENDBRANCH  18  23
ENDBRANCH  10  14
ENDBRANCH   6   7
ENDBRANCH   5   6
ENDBRANCH   2   5
BRANCH   2  25
HETATM   25  O   UNK N   1      36.797  15.156  11.283  0.00  0.00    -0.195 OA
BRANCH  25  26
HETATM   26  P   UNK N   1      35.269  15.693  10.628  0.00  0.00     0.404 P 
HETATM   27  O   UNK N   1      35.137  17.210  10.931  0.00  0.00    -0.631 OA
BRANCH  26  28
HETATM   28  O   UNK N   1      33.957  14.934  11.476  0.00  0.00    -0.307 OA
HETATM   29  H   UNK N   1      33.814  14.605  12.377  0.00  0.00     0.222 HD
ENDBRANCH  26  28
BRANCH  26  30
HETATM   30  O   UNK N   1      35.199  15.500   8.879  0.00  0.00    -0.263 OA
BRANCH  30  31
HETATM   31  C   UNK N   1      34.094  16.181   8.320  0.00  0.00     0.302 C 
HETATM   32  C   UNK N   1      34.307  16.685   6.855  0.00  0.00     0.205 C 
HETATM   33  C   UNK N   1      32.967  16.657   6.108  0.00  0.00     0.182 C 
HETATM   34  C   UNK N   1      31.850  17.176   7.009  0.00  0.00     0.173 C 
HETATM   35  C   UNK N   1      31.779  16.316   8.292  0.00  0.00     0.205 C 
HETATM   36  O   UNK N   1      32.892  15.444   8.460  0.00  0.00    -0.355 OA
BRANCH  32  37
HETATM   37  O   UNK N   1      35.210  15.916   6.124  0.00  0.00    -0.388 OA
HETATM   38  H   UNK N   1      35.145  15.718   5.177  0.00  0.00     0.210 HD
ENDBRANCH  32  37
BRANCH  33  39
HETATM   39  O   UNK N   1      33.055  17.394   4.924  0.00  0.00    -0.390 OA
HETATM   40  H   UNK N   1      33.648  17.202   4.181  0.00  0.00     0.210 HD
ENDBRANCH  33  39
BRANCH  34  41
HETATM   41  O   UNK N   1      30.625  17.110   6.344  0.00  0.00    -0.391 OA
HETATM   42  H   UNK N   1      30.147  17.881   6.000  0.00  0.00     0.210 HD
ENDBRANCH  34  41
ENDBRANCH  30  31
ENDBRANCH  26  30
ENDBRANCH  25  26
ENDBRANCH   2  25
TORSDOF 15
ENDMDL
MODEL 4
REMARK VINA RESULT:      -7.2      4.030      9.674
REMARK  15 active torsions:
REMARK  status: ('A' for Active; 'I' for Inactive)
REMARK    1  A    between atoms: C_9  and  C_5 
REMARK    2  A    between atoms: O_30  and  C_5 
REMARK    3  A    between atoms: C_7  and  O_19 
REMARK    4  A    between atoms: C_8  and  O_20 
REMARK    5  A    between atoms: C_10  and  N_18 
REMARK    6  A    between atoms: C_11  and  O_21 
REMARK    7  A    between atoms: C_12  and  O_22 
REMARK    8  A    between atoms: O_23  and  C_13 
REMARK    9  A    between atoms: C_14  and  O_32 
REMARK   10  A    between atoms: P_34  and  O_25 
REMARK   11  A    between atoms: P_35  and  O_27 
REMARK   12  A    between atoms: P_34  and  O_30 
REMARK   13  A    between atoms: P_35  and  O_32 
REMARK   14  A    between atoms: P_34  and  O_33 
REMARK   15  A    between atoms: P_35  and  O_33 
ROOT
HETATM    1  O   UNK N   1      33.462  17.897   5.974  0.00  0.00    -0.631 OA
HETATM    2  P   UNK N   1      33.964  17.345   7.335  0.00  0.00     0.401 P 
ENDROOT
BRANCH   2   3
HETATM    3  O   UNK N   1      34.923  18.601   8.052  0.00  0.00    -0.307 OA
HETATM    4  H   UNK N   1      34.729  18.909   8.952  0.00  0.00     0.222 HD
ENDBRANCH   2   3
BRANCH   2   5
HETATM    5  O   UNK N   1      32.568  16.979   8.293  0.00  0.00    -0.294 OA
BRANCH   5   6
HETATM    6  C   UNK N   1      32.047  18.226   8.654  0.00  0.00     0.215 C 
BRANCH   6   7
HETATM    7  C   UNK N   1      30.624  18.339   8.136  0.00  0.00     0.177 C 
HETATM    8  C   UNK N   1      29.577  18.130   9.230  0.00  0.00     0.153 C 
HETATM    9  C   UNK N   1      28.471  17.423   8.510  0.00  0.00     0.088 C 
HETATM   10  C   UNK N   1      29.012  17.183   7.105  0.00  0.00     0.235 C 
HETATM   11  O   UNK N   1      30.408  17.370   7.148  0.00  0.00    -0.356 OA
BRANCH   8  12
HETATM   12  O   UNK N   1      30.022  17.284  10.250  0.00  0.00    -0.393 OA
HETATM   13  H   UNK N   1      29.467  16.626  10.697  0.00  0.00     0.210 HD
ENDBRANCH   8  12
BRANCH  10  14
HETATM   14  N   UNK N   1      28.420  18.046   6.053  0.00  0.00    -0.282 N 
HETATM   15  C   UNK N   1      27.772  19.169   6.482  0.00  0.00     0.109 A 
HETATM   16  C   UNK N   1      27.186  20.051   5.580  0.00  0.00     0.005 A 
HETATM   17  C   UNK N   1      26.479  21.262   6.081  0.00  0.00     0.054 C 
HETATM   18  C   UNK N   1      27.276  19.780   4.217  0.00  0.00     0.151 A 
HETATM   19  N   UNK N   1      27.921  18.667   3.797  0.00  0.00    -0.288 N 
HETATM   20  C   UNK N   1      28.492  17.795   4.684  0.00  0.00     0.330 A 
ATOM     21  HN  UNK N   1      27.983  18.475   2.797  1.00  0.00     0.172 HD
HETATM   22  O   UNK N   1      29.063  16.814   4.246  0.00  0.00    -0.246 OA
BRANCH  18  23
HETATM   23  O   UNK N   1      26.730  20.612   3.314  0.00  0.00    -0.346 OA
HETATM   24  H   UNK N   1      26.479  21.491   3.520  0.00  0.00     0.219 HD
ENDBRANCH  18  23
ENDBRANCH  10  14
ENDBRANCH   6   7
ENDBRANCH   5   6
ENDBRANCH   2   5
BRANCH   2  25
HETATM   25  O   UNK N   1      34.897  15.903   7.042  0.00  0.00    -0.195 OA
BRANCH  25  26
HETATM   26  P   UNK N   1      33.760  14.577   7.016  0.00  0.00     0.404 P 
HETATM   27  O   UNK N   1      34.326  13.492   6.061  0.00  0.00    -0.631 OA
BRANCH  26  28
HETATM   28  O   UNK N   1      32.263  15.090   6.301  0.00  0.00    -0.307 OA
HETATM   29  H   UNK N   1      31.755  14.849   5.511  0.00  0.00     0.222 HD
ENDBRANCH  26  28
BRANCH  26  30
HETATM   30  O   UNK N   1      33.579  13.835   8.604  0.00  0.00    -0.263 OA
BRANCH  30  31
HETATM   31  C   UNK N   1      34.783  13.876   9.342  0.00  0.00     0.302 C 
HETATM   32  C   UNK N   1      34.741  14.786  10.613  0.00  0.00     0.205 C 
HETATM   33  C   UNK N   1      35.661  14.196  11.691  0.00  0.00     0.182 C 
HETATM   34  C   UNK N   1      36.964  13.710  11.062  0.00  0.00     0.173 C 
HETATM   35  C   UNK N   1      36.652  12.658   9.973  0.00  0.00     0.205 C 
HETATM   36  O   UNK N   1      35.272  12.578   9.631  0.00  0.00    -0.355 OA
BRANCH  32  37
HETATM   37  O   UNK N   1      33.471  14.910  11.171  0.00  0.00    -0.388 OA
HETATM   38  H   UNK N   1      32.693  15.281  10.727  0.00  0.00     0.210 HD
ENDBRANCH  32  37
BRANCH  33  39
HETATM   39  O   UNK N   1      35.897  15.137  12.696  0.00  0.00    -0.390 OA
HETATM   40  H   UNK N   1      36.283  16.017  12.569  0.00  0.00     0.210 HD
ENDBRANCH  33  39
BRANCH  34  41
HETATM   41  O   UNK N   1      37.783  13.135  12.034  0.00  0.00    -0.391 OA
HETATM   42  H   UNK N   1      38.463  12.468  11.852  0.00  0.00     0.210 HD
ENDBRANCH  34  41
ENDBRANCH  30  31
ENDBRANCH  26  30
ENDBRANCH  25  26
ENDBRANCH   2  25
TORSDOF 15
ENDMDL
MODEL 5
REMARK VINA RESULT:      -7.2      8.939     12.436
REMARK  15 active torsions:
REMARK  status: ('A' for Active; 'I' for Inactive)
REMARK    1  A    between atoms: C_9  and  C_5 
REMARK    2  A    between atoms: O_30  and  C_5 
REMARK    3  A    between atoms: C_7  and  O_19 
REMARK    4  A    between atoms: C_8  and  O_20 
REMARK    5  A    between atoms: C_10  and  N_18 
REMARK    6  A    between atoms: C_11  and  O_21 
REMARK    7  A    between atoms: C_12  and  O_22 
REMARK    8  A    between atoms: O_23  and  C_13 
REMARK    9  A    between atoms: C_14  and  O_32 
REMARK   10  A    between atoms: P_34  and  O_25 
REMARK   11  A    between atoms: P_35  and  O_27 
REMARK   12  A    between atoms: P_34  and  O_30 
REMARK   13  A    between atoms: P_35  and  O_32 
REMARK   14  A    between atoms: P_34  and  O_33 
REMARK   15  A    between atoms: P_35  and  O_33 
ROOT
HETATM    1  O   UNK N   1      21.506  14.836   5.628  0.00  0.00    -0.631 OA
HETATM    2  P   UNK N   1      22.229  15.674   6.717  0.00  0.00     0.401 P 
ENDROOT
BRANCH   2   3
HETATM    3  O   UNK N   1      21.128  15.798   8.053  0.00  0.00    -0.307 OA
HETATM    4  H   UNK N   1      21.443  15.652   8.960  0.00  0.00     0.222 HD
ENDBRANCH   2   3
BRANCH   2   5
HETATM    5  O   UNK N   1      23.672  14.821   7.154  0.00  0.00    -0.294 OA
BRANCH   5   6
HETATM    6  C   UNK N   1      24.255  14.459   5.935  0.00  0.00     0.215 C 
BRANCH   6   7
HETATM    7  C   UNK N   1      25.376  15.432   5.611  0.00  0.00     0.177 C 
HETATM    8  C   UNK N   1      26.224  14.984   4.422  0.00  0.00     0.153 C 
HETATM    9  C   UNK N   1      27.600  15.443   4.796  0.00  0.00     0.088 C 
HETATM   10  C   UNK N   1      27.452  16.009   6.204  0.00  0.00     0.235 C 
HETATM   11  O   UNK N   1      26.223  15.554   6.720  0.00  0.00    -0.356 OA
BRANCH   8  12
HETATM   12  O   UNK N   1      26.270  13.594   4.284  0.00  0.00    -0.393 OA
HETATM   13  H   UNK N   1      25.580  13.063   3.856  0.00  0.00     0.210 HD
ENDBRANCH   8  12
BRANCH  10  14
HETATM   14  N   UNK N   1      27.518  17.490   6.290  0.00  0.00    -0.282 N 
HETATM   15  C   UNK N   1      27.269  18.177   5.138  0.00  0.00     0.109 A 
HETATM   16  C   UNK N   1      27.297  19.568   5.108  0.00  0.00     0.005 A 
HETATM   17  C   UNK N   1      27.029  20.288   3.832  0.00  0.00     0.054 C 
HETATM   18  C   UNK N   1      27.577  20.261   6.283  0.00  0.00     0.151 A 
HETATM   19  N   UNK N   1      27.821  19.575   7.423  0.00  0.00    -0.288 N 
HETATM   20  C   UNK N   1      27.800  18.207   7.452  0.00  0.00     0.330 A 
ATOM     21  HN  UNK N   1      28.026  20.089   8.280  1.00  0.00     0.172 HD
HETATM   22  O   UNK N   1      28.023  17.645   8.508  0.00  0.00    -0.246 OA
BRANCH  18  23
HETATM   23  O   UNK N   1      27.606  21.604   6.297  0.00  0.00    -0.346 OA
HETATM   24  H   UNK N   1      28.372  22.094   6.521  0.00  0.00     0.219 HD
ENDBRANCH  18  23
ENDBRANCH  10  14
ENDBRANCH   6   7
ENDBRANCH   5   6
ENDBRANCH   2   5
BRANCH   2  25
HETATM   25  O   UNK N   1      22.621  17.235   6.051  0.00  0.00    -0.195 OA
BRANCH  25  26
HETATM   26  P   UNK N   1      21.126  18.138   5.998  0.00  0.00     0.404 P 
HETATM   27  O   UNK N   1      20.865  18.696   7.424  0.00  0.00    -0.631 OA
BRANCH  26  28
HETATM   28  O   UNK N   1      19.797  17.071   5.666  0.00  0.00    -0.307 OA
HETATM   29  H   UNK N   1      18.896  17.175   5.325  0.00  0.00     0.222 HD
ENDBRANCH  26  28
BRANCH  26  30
HETATM   30  O   UNK N   1      21.230  19.517   4.907  0.00  0.00    -0.263 OA
BRANCH  30  31
HETATM   31  C   UNK N   1      20.729  19.207   3.623  0.00  0.00     0.302 C 
HETATM   32  C   UNK N   1      20.776  20.388   2.599  0.00  0.00     0.205 C 
HETATM   33  C   UNK N   1      20.993  19.829   1.186  0.00  0.00     0.182 C 
HETATM   34  C   UNK N   1      20.137  18.583   0.976  0.00  0.00     0.173 C 
HETATM   35  C   UNK N   1      20.492  17.525   2.045  0.00  0.00     0.205 C 
HETATM   36  O   UNK N   1      21.308  18.025   3.099  0.00  0.00    -0.355 OA
BRANCH  32  37
HETATM   37  O   UNK N   1      21.797  21.303   2.846  0.00  0.00    -0.388 OA
HETATM   38  H   UNK N   1      21.846  22.205   2.492  0.00  0.00     0.210 HD
ENDBRANCH  32  37
BRANCH  33  39
HETATM   39  O   UNK N   1      20.719  20.808   0.228  0.00  0.00    -0.390 OA
HETATM   40  H   UNK N   1      21.103  21.697   0.201  0.00  0.00     0.210 HD
ENDBRANCH  33  39
BRANCH  34  41
HETATM   41  O   UNK N   1      20.365  18.050  -0.293  0.00  0.00    -0.391 OA
HETATM   42  H   UNK N   1      19.780  18.182  -1.055  0.00  0.00     0.210 HD
ENDBRANCH  34  41
ENDBRANCH  30  31
ENDBRANCH  26  30
ENDBRANCH  25  26
ENDBRANCH   2  25
TORSDOF 15
ENDMDL
MODEL 6
REMARK VINA RESULT:      -7.2      7.618     12.223
REMARK  15 active torsions:
REMARK  status: ('A' for Active; 'I' for Inactive)
REMARK    1  A    between atoms: C_9  and  C_5 
REMARK    2  A    between atoms: O_30  and  C_5 
REMARK    3  A    between atoms: C_7  and  O_19 
REMARK    4  A    between atoms: C_8  and  O_20 
REMARK    5  A    between atoms: C_10  and  N_18 
REMARK    6  A    between atoms: C_11  and  O_21 
REMARK    7  A    between atoms: C_12  and  O_22 
REMARK    8  A    between atoms: O_23  and  C_13 
REMARK    9  A    between atoms: C_14  and  O_32 
REMARK   10  A    between atoms: P_34  and  O_25 
REMARK   11  A    between atoms: P_35  and  O_27 
REMARK   12  A    between atoms: P_34  and  O_30 
REMARK   13  A    between atoms: P_35  and  O_32 
REMARK   14  A    between atoms: P_34  and  O_33 
REMARK   15  A    between atoms: P_35  and  O_33 
ROOT
HETATM    1  O   UNK N   1      23.840  14.587   4.757  0.00  0.00    -0.631 OA
HETATM    2  P   UNK N   1      22.678  15.595   4.545  0.00  0.00     0.401 P 
ENDROOT
BRANCH   2   3
HETATM    3  O   UNK N   1      21.715  15.547   5.988  0.00  0.00    -0.307 OA
HETATM    4  H   UNK N   1      21.506  14.697   6.407  0.00  0.00     0.222 HD
ENDBRANCH   2   3
BRANCH   2   5
HETATM    5  O   UNK N   1      23.385  17.157   4.299  0.00  0.00    -0.294 OA
BRANCH   5   6
HETATM    6  C   UNK N   1      24.631  16.896   3.718  0.00  0.00     0.215 C 
BRANCH   6   7
HETATM    7  C   UNK N   1      25.713  17.586   4.530  0.00  0.00     0.177 C 
HETATM    8  C   UNK N   1      25.365  19.035   4.870  0.00  0.00     0.153 C 
HETATM    9  C   UNK N   1      26.693  19.725   4.815  0.00  0.00     0.088 C 
HETATM   10  C   UNK N   1      27.669  18.652   4.341  0.00  0.00     0.235 C 
HETATM   11  O   UNK N   1      26.911  17.594   3.804  0.00  0.00    -0.356 OA
BRANCH   8  12
HETATM   12  O   UNK N   1      24.543  19.633   3.911  0.00  0.00    -0.393 OA
HETATM   13  H   UNK N   1      24.448  20.591   3.790  0.00  0.00     0.210 HD
ENDBRANCH   8  12
BRANCH  10  14
HETATM   14  N   UNK N   1      28.584  18.136   5.389  0.00  0.00    -0.282 N 
HETATM   15  C   UNK N   1      28.322  18.526   6.671  0.00  0.00     0.109 A 
HETATM   16  C   UNK N   1      29.113  18.094   7.731  0.00  0.00     0.005 A 
HETATM   17  C   UNK N   1      28.805  18.545   9.117  0.00  0.00     0.054 C 
HETATM   18  C   UNK N   1      30.184  17.243   7.470  0.00  0.00     0.151 A 
HETATM   19  N   UNK N   1      30.438  16.858   6.198  0.00  0.00    -0.288 N 
HETATM   20  C   UNK N   1      29.665  17.287   5.154  0.00  0.00     0.330 A 
ATOM     21  HN  UNK N   1      31.224  16.234   6.014  1.00  0.00     0.172 HD
HETATM   22  O   UNK N   1      29.939  16.903   4.032  0.00  0.00    -0.246 OA
BRANCH  18  23
HETATM   23  O   UNK N   1      30.966  16.798   8.468  0.00  0.00    -0.346 OA
HETATM   24  H   UNK N   1      31.707  17.276   8.783  0.00  0.00     0.219 HD
ENDBRANCH  18  23
ENDBRANCH  10  14
ENDBRANCH   6   7
ENDBRANCH   5   6
ENDBRANCH   2   5
BRANCH   2  25
HETATM   25  O   UNK N   1      21.769  15.109   3.141  0.00  0.00    -0.195 OA
BRANCH  25  26
HETATM   26  P   UNK N   1      20.121  15.620   3.420  0.00  0.00     0.404 P 
HETATM   27  O   UNK N   1      19.490  14.630   4.436  0.00  0.00    -0.631 OA
BRANCH  26  28
HETATM   28  O   UNK N   1      19.190  15.449   1.965  0.00  0.00    -0.307 OA
HETATM   29  H   UNK N   1      19.380  15.478   1.015  0.00  0.00     0.222 HD
ENDBRANCH  26  28
BRANCH  26  30
HETATM   30  O   UNK N   1      20.044  17.227   4.137  0.00  0.00    -0.263 OA
BRANCH  30  31
HETATM   31  C   UNK N   1      20.102  18.242   3.156  0.00  0.00     0.302 C 
HETATM   32  C   UNK N   1      20.754  19.580   3.635  0.00  0.00     0.205 C 
HETATM   33  C   UNK N   1      21.471  20.248   2.455  0.00  0.00     0.182 C 
HETATM   34  C   UNK N   1      20.616  20.148   1.195  0.00  0.00     0.173 C 
HETATM   35  C   UNK N   1      20.321  18.662   0.886  0.00  0.00     0.205 C 
HETATM   36  O   UNK N   1      20.671  17.776   1.945  0.00  0.00    -0.355 OA
BRANCH  32  37
HETATM   37  O   UNK N   1      21.692  19.413   4.653  0.00  0.00    -0.388 OA
HETATM   38  H   UNK N   1      22.566  19.005   4.553  0.00  0.00     0.210 HD
ENDBRANCH  32  37
BRANCH  33  39
HETATM   39  O   UNK N   1      21.778  21.576   2.761  0.00  0.00    -0.390 OA
HETATM   40  H   UNK N   1      21.486  22.355   2.262  0.00  0.00     0.210 HD
ENDBRANCH  33  39
BRANCH  34  41
HETATM   41  O   UNK N   1      21.285  20.718   0.111  0.00  0.00    -0.391 OA
HETATM   42  H   UNK N   1      21.056  20.561  -0.818  0.00  0.00     0.210 HD
ENDBRANCH  34  41
ENDBRANCH  30  31
ENDBRANCH  26  30
ENDBRANCH  25  26
ENDBRANCH   2  25
TORSDOF 15
ENDMDL
MODEL 7
REMARK VINA RESULT:      -7.2      2.619      4.094
REMARK  15 active torsions:
REMARK  status: ('A' for Active; 'I' for Inactive)
REMARK    1  A    between atoms: C_9  and  C_5 
REMARK    2  A    between atoms: O_30  and  C_5 
REMARK    3  A    between atoms: C_7  and  O_19 
REMARK    4  A    between atoms: C_8  and  O_20 
REMARK    5  A    between atoms: C_10  and  N_18 
REMARK    6  A    between atoms: C_11  and  O_21 
REMARK    7  A    between atoms: C_12  and  O_22 
REMARK    8  A    between atoms: O_23  and  C_13 
REMARK    9  A    between atoms: C_14  and  O_32 
REMARK   10  A    between atoms: P_34  and  O_25 
REMARK   11  A    between atoms: P_35  and  O_27 
REMARK   12  A    between atoms: P_34  and  O_30 
REMARK   13  A    between atoms: P_35  and  O_32 
REMARK   14  A    between atoms: P_34  and  O_33 
REMARK   15  A    between atoms: P_35  and  O_33 
ROOT
HETATM    1  O   UNK N   1      36.031  14.088   9.817  0.00  0.00    -0.631 OA
HETATM    2  P   UNK N   1      34.791  14.912  10.258  0.00  0.00     0.401 P 
ENDROOT
BRANCH   2   3
HETATM    3  O   UNK N   1      33.458  14.346   9.302  0.00  0.00    -0.307 OA
HETATM    4  H   UNK N   1      32.789  14.971   8.980  0.00  0.00     0.222 HD
ENDBRANCH   2   3
BRANCH   2   5
HETATM    5  O   UNK N   1      34.542  14.610  11.946  0.00  0.00    -0.294 OA
BRANCH   5   6
HETATM    6  C   UNK N   1      35.812  14.733  12.521  0.00  0.00     0.215 C 
BRANCH   6   7
HETATM    7  C   UNK N   1      35.959  13.701  13.625  0.00  0.00     0.177 C 
HETATM    8  C   UNK N   1      36.772  12.482  13.193  0.00  0.00     0.153 C 
HETATM    9  C   UNK N   1      36.106  11.354  13.919  0.00  0.00     0.088 C 
HETATM   10  C   UNK N   1      34.907  11.993  14.612  0.00  0.00     0.235 C 
HETATM   11  O   UNK N   1      34.691  13.252  14.018  0.00  0.00    -0.356 OA
BRANCH   8  12
HETATM   12  O   UNK N   1      36.666  12.219  11.824  0.00  0.00    -0.393 OA
HETATM   13  H   UNK N   1      37.396  11.904  11.268  0.00  0.00     0.210 HD
ENDBRANCH   8  12
BRANCH  10  14
HETATM   14  N   UNK N   1      35.045  12.146  16.082  0.00  0.00    -0.282 N 
HETATM   15  C   UNK N   1      35.139  13.424  16.553  0.00  0.00     0.109 A 
HETATM   16  C   UNK N   1      35.265  13.682  17.915  0.00  0.00     0.005 A 
HETATM   17  C   UNK N   1      35.373  15.088  18.396  0.00  0.00     0.054 C 
HETATM   18  C   UNK N   1      35.285  12.611  18.805  0.00  0.00     0.151 A 
HETATM   19  N   UNK N   1      35.189  11.346  18.332  0.00  0.00    -0.288 N 
HETATM   20  C   UNK N   1      35.073  11.091  16.993  0.00  0.00     0.330 A 
ATOM     21  HN  UNK N   1      35.205  10.566  18.990  1.00  0.00     0.172 HD
HETATM   22  O   UNK N   1      34.985   9.933  16.628  0.00  0.00    -0.246 OA
BRANCH  18  23
HETATM   23  O   UNK N   1      35.397  12.820  20.127  0.00  0.00    -0.346 OA
HETATM   24  H   UNK N   1      35.736  12.175  20.716  0.00  0.00     0.219 HD
ENDBRANCH  18  23
ENDBRANCH  10  14
ENDBRANCH   6   7
ENDBRANCH   5   6
ENDBRANCH   2   5
BRANCH   2  25
HETATM   25  O   UNK N   1      35.118  16.601   9.983  0.00  0.00    -0.195 OA
BRANCH  25  26
HETATM   26  P   UNK N   1      34.223  17.048   8.551  0.00  0.00     0.404 P 
HETATM   27  O   UNK N   1      34.751  18.431   8.082  0.00  0.00    -0.631 OA
BRANCH  26  28
HETATM   28  O   UNK N   1      32.551  17.298   8.945  0.00  0.00    -0.307 OA
HETATM   29  H   UNK N   1      31.846  16.761   9.338  0.00  0.00     0.222 HD
ENDBRANCH  26  28
BRANCH  26  30
HETATM   30  O   UNK N   1      34.487  15.913   7.230  0.00  0.00    -0.263 OA
BRANCH  30  31
HETATM   31  C   UNK N   1      33.974  16.402   6.008  0.00  0.00     0.302 C 
HETATM   32  C   UNK N   1      34.323  15.533   4.755  0.00  0.00     0.205 C 
HETATM   33  C   UNK N   1      33.180  15.628   3.736  0.00  0.00     0.182 C 
HETATM   34  C   UNK N   1      32.685  17.068   3.633  0.00  0.00     0.173 C 
HETATM   35  C   UNK N   1      32.219  17.555   5.024  0.00  0.00     0.205 C 
HETATM   36  O   UNK N   1      32.589  16.686   6.090  0.00  0.00    -0.355 OA
BRANCH  32  37
HETATM   37  O   UNK N   1      34.512  14.183   5.046  0.00  0.00    -0.388 OA
HETATM   38  H   UNK N   1      34.048  13.444   4.622  0.00  0.00     0.210 HD
ENDBRANCH  32  37
BRANCH  33  39
HETATM   39  O   UNK N   1      33.594  15.138   2.495  0.00  0.00    -0.390 OA
HETATM   40  H   UNK N   1      33.012  14.805   1.795  0.00  0.00     0.210 HD
ENDBRANCH  33  39
BRANCH  34  41
HETATM   41  O   UNK N   1      31.618  17.147   2.738  0.00  0.00    -0.391 OA
HETATM   42  H   UNK N   1      30.899  17.796   2.799  0.00  0.00     0.210 HD
ENDBRANCH  34  41
ENDBRANCH  30  31
ENDBRANCH  26  30
ENDBRANCH  25  26
ENDBRANCH   2  25
TORSDOF 15
ENDMDL
MODEL 8
REMARK VINA RESULT:      -7.0      3.557      9.935
REMARK  15 active torsions:
REMARK  status: ('A' for Active; 'I' for Inactive)
REMARK    1  A    between atoms: C_9  and  C_5 
REMARK    2  A    between atoms: O_30  and  C_5 
REMARK    3  A    between atoms: C_7  and  O_19 
REMARK    4  A    between atoms: C_8  and  O_20 
REMARK    5  A    between atoms: C_10  and  N_18 
REMARK    6  A    between atoms: C_11  and  O_21 
REMARK    7  A    between atoms: C_12  and  O_22 
REMARK    8  A    between atoms: O_23  and  C_13 
REMARK    9  A    between atoms: C_14  and  O_32 
REMARK   10  A    between atoms: P_34  and  O_25 
REMARK   11  A    between atoms: P_35  and  O_27 
REMARK   12  A    between atoms: P_34  and  O_30 
REMARK   13  A    between atoms: P_35  and  O_32 
REMARK   14  A    between atoms: P_34  and  O_33 
REMARK   15  A    between atoms: P_35  and  O_33 
ROOT
HETATM    1  O   UNK N   1      37.888  14.860   9.759  0.00  0.00    -0.631 OA
HETATM    2  P   UNK N   1      36.558  14.584  10.511  0.00  0.00     0.401 P 
ENDROOT
BRANCH   2   3
HETATM    3  O   UNK N   1      36.259  15.972  11.510  0.00  0.00    -0.307 OA
HETATM    4  H   UNK N   1      35.428  16.046  12.005  0.00  0.00     0.222 HD
ENDBRANCH   2   3
BRANCH   2   5
HETATM    5  O   UNK N   1      35.320  14.377   9.317  0.00  0.00    -0.294 OA
BRANCH   5   6
HETATM    6  C   UNK N   1      34.254  15.162   9.768  0.00  0.00     0.215 C 
BRANCH   6   7
HETATM    7  C   UNK N   1      33.760  16.033   8.627  0.00  0.00     0.177 C 
HETATM    8  C   UNK N   1      34.628  17.272   8.408  0.00  0.00     0.153 C 
HETATM    9  C   UNK N   1      33.634  18.315   7.998  0.00  0.00     0.088 C 
HETATM   10  C   UNK N   1      32.277  17.629   8.124  0.00  0.00     0.235 C 
HETATM   11  O   UNK N   1      32.456  16.468   8.901  0.00  0.00    -0.356 OA
BRANCH   8  12
HETATM   12  O   UNK N   1      35.241  17.717   9.583  0.00  0.00    -0.393 OA
HETATM   13  H   UNK N   1      35.078  17.341  10.462  0.00  0.00     0.210 HD
ENDBRANCH   8  12
BRANCH  10  14
HETATM   14  N   UNK N   1      31.635  17.278   6.833  0.00  0.00    -0.282 N 
HETATM   15  C   UNK N   1      32.441  17.284   5.731  0.00  0.00     0.109 A 
HETATM   16  C   UNK N   1      31.943  16.964   4.472  0.00  0.00     0.005 A 
HETATM   17  C   UNK N   1      32.848  16.988   3.289  0.00  0.00     0.054 C 
HETATM   18  C   UNK N   1      30.599  16.623   4.346  0.00  0.00     0.151 A 
HETATM   19  N   UNK N   1      29.804  16.617   5.441  0.00  0.00    -0.288 N 
HETATM   20  C   UNK N   1      30.292  16.938   6.679  0.00  0.00     0.330 A 
ATOM     21  HN  UNK N   1      28.820  16.366   5.342  1.00  0.00     0.172 HD
HETATM   22  O   UNK N   1      29.530  16.910   7.628  0.00  0.00    -0.246 OA
BRANCH  18  23
HETATM   23  O   UNK N   1      30.082  16.300   3.149  0.00  0.00    -0.346 OA
HETATM   24  H   UNK N   1      29.432  15.635   3.039  0.00  0.00     0.219 HD
ENDBRANCH  18  23
ENDBRANCH  10  14
ENDBRANCH   6   7
ENDBRANCH   5   6
ENDBRANCH   2   5
BRANCH   2  25
HETATM   25  O   UNK N   1      36.742  13.132  11.456  0.00  0.00    -0.195 OA
BRANCH  25  26
HETATM   26  P   UNK N   1      36.055  13.474  13.025  0.00  0.00     0.404 P 
HETATM   27  O   UNK N   1      34.628  14.042  12.798  0.00  0.00    -0.631 OA
BRANCH  26  28
HETATM   28  O   UNK N   1      36.944  14.748  13.800  0.00  0.00    -0.307 OA
HETATM   29  H   UNK N   1      37.860  15.064  13.780  0.00  0.00     0.222 HD
ENDBRANCH  26  28
BRANCH  26  30
HETATM   30  O   UNK N   1      35.890  12.017  14.002  0.00  0.00    -0.263 OA
BRANCH  30  31
HETATM   31  C   UNK N   1      35.467  12.313  15.317  0.00  0.00     0.302 C 
HETATM   32  C   UNK N   1      35.168  11.063  16.207  0.00  0.00     0.205 C 
HETATM   33  C   UNK N   1      35.500  11.388  17.669  0.00  0.00     0.182 C 
HETATM   34  C   UNK N   1      35.012  12.790  18.020  0.00  0.00     0.173 C 
HETATM   35  C   UNK N   1      35.665  13.819  17.069  0.00  0.00     0.205 C 
HETATM   36  O   UNK N   1      36.336  13.229  15.960  0.00  0.00    -0.355 OA
BRANCH  32  37
HETATM   37  O   UNK N   1      35.905   9.935  15.852  0.00  0.00    -0.388 OA
HETATM   38  H   UNK N   1      36.674   9.926  15.261  0.00  0.00     0.210 HD
ENDBRANCH  32  37
BRANCH  33  39
HETATM   39  O   UNK N   1      34.949  10.425  18.518  0.00  0.00    -0.390 OA
HETATM   40  H   UNK N   1      34.108   9.963  18.380  0.00  0.00     0.210 HD
ENDBRANCH  33  39
BRANCH  34  41
HETATM   41  O   UNK N   1      35.351  13.102  19.338  0.00  0.00    -0.391 OA
HETATM   42  H   UNK N   1      35.325  13.997  19.712  0.00  0.00     0.210 HD
ENDBRANCH  34  41
ENDBRANCH  30  31
ENDBRANCH  26  30
ENDBRANCH  25  26
ENDBRANCH   2  25
TORSDOF 15
ENDMDL
MODEL 9
REMARK VINA RESULT:      -7.0      2.747      4.316
REMARK  15 active torsions:
REMARK  status: ('A' for Active; 'I' for Inactive)
REMARK    1  A    between atoms: C_9  and  C_5 
REMARK    2  A    between atoms: O_30  and  C_5 
REMARK    3  A    between atoms: C_7  and  O_19 
REMARK    4  A    between atoms: C_8  and  O_20 
REMARK    5  A    between atoms: C_10  and  N_18 
REMARK    6  A    between atoms: C_11  and  O_21 
REMARK    7  A    between atoms: C_12  and  O_22 
REMARK    8  A    between atoms: O_23  and  C_13 
REMARK    9  A    between atoms: C_14  and  O_32 
REMARK   10  A    between atoms: P_34  and  O_25 
REMARK   11  A    between atoms: P_35  and  O_27 
REMARK   12  A    between atoms: P_34  and  O_30 
REMARK   13  A    between atoms: P_35  and  O_32 
REMARK   14  A    between atoms: P_34  and  O_33 
REMARK   15  A    between atoms: P_35  and  O_33 
ROOT
HETATM    1  O   UNK N   1      35.443  12.234   8.533  0.00  0.00    -0.631 OA
HETATM    2  P   UNK N   1      35.048  13.357   9.530  0.00  0.00     0.401 P 
ENDROOT
BRANCH   2   3
HETATM    3  O   UNK N   1      33.323  13.276   9.704  0.00  0.00    -0.307 OA
HETATM    4  H   UNK N   1      32.878  12.415   9.756  0.00  0.00     0.222 HD
ENDBRANCH   2   3
BRANCH   2   5
HETATM    5  O   UNK N   1      35.858  13.031  11.026  0.00  0.00    -0.294 OA
BRANCH   5   6
HETATM    6  C   UNK N   1      34.904  12.376  11.813  0.00  0.00     0.215 C 
BRANCH   6   7
HETATM    7  C   UNK N   1      35.479  12.140  13.198  0.00  0.00     0.177 C 
HETATM    8  C   UNK N   1      35.571  13.421  14.028  0.00  0.00     0.153 C 
HETATM    9  C   UNK N   1      36.826  13.221  14.821  0.00  0.00     0.088 C 
HETATM   10  C   UNK N   1      37.407  11.909  14.306  0.00  0.00     0.235 C 
HETATM   11  O   UNK N   1      36.771  11.611  13.085  0.00  0.00    -0.356 OA
BRANCH   8  12
HETATM   12  O   UNK N   1      35.750  14.562  13.241  0.00  0.00    -0.393 OA
HETATM   13  H   UNK N   1      36.278  15.332  13.505  0.00  0.00     0.210 HD
ENDBRANCH   8  12
BRANCH  10  14
HETATM   14  N   UNK N   1      37.275  10.761  15.237  0.00  0.00    -0.282 N 
HETATM   15  C   UNK N   1      36.455  10.942  16.313  0.00  0.00     0.109 A 
HETATM   16  C   UNK N   1      36.254   9.929  17.245  0.00  0.00     0.005 A 
HETATM   17  C   UNK N   1      35.360  10.162  18.413  0.00  0.00     0.054 C 
HETATM   18  C   UNK N   1      36.898   8.708  17.061  0.00  0.00     0.151 A 
HETATM   19  N   UNK N   1      37.709   8.532  15.992  0.00  0.00    -0.288 N 
HETATM   20  C   UNK N   1      37.912   9.531  15.079  0.00  0.00     0.330 A 
ATOM     21  HN  UNK N   1      38.178   7.635  15.864  1.00  0.00     0.172 HD
HETATM   22  O   UNK N   1      38.648   9.312  14.134  0.00  0.00    -0.246 OA
BRANCH  18  23
HETATM   23  O   UNK N   1      36.724   7.702  17.935  0.00  0.00    -0.346 OA
HETATM   24  H   UNK N   1      36.188   7.780  18.699  0.00  0.00     0.219 HD
ENDBRANCH  18  23
ENDBRANCH  10  14
ENDBRANCH   6   7
ENDBRANCH   5   6
ENDBRANCH   2   5
BRANCH   2  25
HETATM   25  O   UNK N   1      35.564  14.888   8.879  0.00  0.00    -0.195 OA
BRANCH  25  26
HETATM   26  P   UNK N   1      35.153  16.095  10.073  0.00  0.00     0.404 P 
HETATM   27  O   UNK N   1      36.432  16.387  10.904  0.00  0.00    -0.631 OA
BRANCH  26  28
HETATM   28  O   UNK N   1      34.003  15.449  11.202  0.00  0.00    -0.307 OA
HETATM   29  H   UNK N   1      33.791  14.568  11.546  0.00  0.00     0.222 HD
ENDBRANCH  26  28
BRANCH  26  30
HETATM   30  O   UNK N   1      34.654  17.612   9.329  0.00  0.00    -0.263 OA
BRANCH  30  31
HETATM   31  C   UNK N   1      33.407  17.491   8.677  0.00  0.00     0.302 C 
HETATM   32  C   UNK N   1      33.425  17.850   7.155  0.00  0.00     0.205 C 
HETATM   33  C   UNK N   1      32.387  16.992   6.418  0.00  0.00     0.182 C 
HETATM   34  C   UNK N   1      31.101  16.906   7.234  0.00  0.00     0.173 C 
HETATM   35  C   UNK N   1      31.410  16.313   8.628  0.00  0.00     0.205 C 
HETATM   36  O   UNK N   1      32.801  16.233   8.921  0.00  0.00    -0.355 OA
BRANCH  32  37
HETATM   37  O   UNK N   1      34.658  17.631   6.544  0.00  0.00    -0.388 OA
HETATM   38  H   UNK N   1      34.944  18.011   5.698  0.00  0.00     0.210 HD
ENDBRANCH  32  37
BRANCH  33  39
HETATM   39  O   UNK N   1      32.151  17.506   5.141  0.00  0.00    -0.390 OA
HETATM   40  H   UNK N   1      32.511  18.334   4.788  0.00  0.00     0.210 HD
ENDBRANCH  33  39
BRANCH  34  41
HETATM   41  O   UNK N   1      30.172  16.092   6.584  0.00  0.00    -0.391 OA
HETATM   42  H   UNK N   1      29.961  16.149   5.639  0.00  0.00     0.210 HD
ENDBRANCH  34  41
ENDBRANCH  30  31
ENDBRANCH  26  30
ENDBRANCH  25  26
ENDBRANCH   2  25
TORSDOF 15
ENDMDL
