MODEL 1
REMARK VINA RESULT:      -7.7      0.000      0.000
REMARK  12 active torsions:
REMARK  status: ('A' for Active; 'I' for Inactive)
REMARK    1  A    between atoms: N_7  and  C_21 
REMARK    2  A    between atoms: C_21  and  C_22 
REMARK    3  A    between atoms: C_22  and  O_23 
REMARK    4  A    between atoms: C_22  and  C_24 
REMARK    5  A    between atoms: C_24  and  O_25 
REMARK    6  A    between atoms: C_24  and  C_26 
REMARK    7  A    between atoms: C_26  and  C_27 
REMARK    8  A    between atoms: C_26  and  O_29 
REMARK    9  A    between atoms: C_27  and  O_28 
REMARK   10  A    between atoms: O_28  and  P_30 
REMARK   11  A    between atoms: P_30  and  O_31 
REMARK   12  A    between atoms: P_30  and  O_32 
ROOT
HETATM    1  C   UNK N   1      35.629  11.438  17.387  0.00  0.00    -0.054 A 
HETATM    2  C   UNK N   1      35.280  12.722  16.932  0.00  0.00    -0.054 A 
HETATM    3  C   UNK N   1      35.199  12.976  15.560  0.00  0.00     0.039 A 
HETATM    4  C   UNK N   1      35.471  11.961  14.627  0.00  0.00     0.063 A 
HETATM    5  C   UNK N   1      35.822  10.675  15.097  0.00  0.00     0.060 A 
HETATM    6  C   UNK N   1      35.895  10.423  16.467  0.00  0.00     0.039 A 
HETATM    7  N   UNK N   1      35.410  12.202  13.277  0.00  0.00    -0.327 N 
HETATM    8  C   UNK N   1      35.696  11.188  12.390  0.00  0.00     0.145 A 
HETATM    9  C   UNK N   1      36.040   9.908  12.878  0.00  0.00     0.146 A 
HETATM   10  N   UNK N   1      36.092   9.684  14.214  0.00  0.00    -0.347 N 
ATOM     11  HN  UNK N   1      36.338   8.756  14.559  1.00  0.00     0.166 HD
HETATM   12  N   UNK N   1      35.654  11.398  11.045  0.00  0.00    -0.292 N 
ATOM     13  HN  UNK N   1      35.401  12.319  10.688  1.00  0.00     0.172 HD
HETATM   14  C   UNK N   1      35.946  10.389  10.161  0.00  0.00     0.328 A 
HETATM   15  N   UNK N   1      36.276   9.143  10.624  0.00  0.00    -0.273 N 
HETATM   16  C   UNK N   1      36.327   8.886  11.967  0.00  0.00     0.280 A 
HETATM   17  C   UNK N   1      35.727  11.137  18.844  0.00  0.00     0.049 C 
HETATM   18  C   UNK N   1      34.996  13.827  17.889  0.00  0.00     0.049 C 
HETATM   19  O   UNK N   1      35.914  10.601   8.964  0.00  0.00    -0.247 OA
HETATM   20  O   UNK N   1      36.621   7.770  12.361  0.00  0.00    -0.265 OA
HETATM   21  H   UNK N   1      36.481   8.423   9.984  0.00  0.00     0.173 HD
ENDROOT
BRANCH   7  22
HETATM   22  C   UNK N   1      35.022  13.540  12.801  0.00  0.00     0.165 C 
BRANCH  22  23
HETATM   23  C   UNK N   1      36.230  14.362  12.369  0.00  0.00     0.167 C 
BRANCH  23  24
HETATM   24  O   UNK N   1      36.570  15.313  13.335  0.00  0.00    -0.391 OA
HETATM   25  H   UNK N   1      37.225  15.902  13.739  0.00  0.00     0.210 HD
ENDBRANCH  23  24
BRANCH  23  26
HETATM   26  C   UNK N   1      36.034  15.007  10.990  0.00  0.00     0.179 C 
BRANCH  26  27
HETATM   27  O   UNK N   1      37.149  15.798  10.712  0.00  0.00    -0.390 OA
HETATM   28  H   UNK N   1      38.058  15.506  10.538  0.00  0.00     0.210 HD
ENDBRANCH  26  27
BRANCH  26  29
HETATM   29  C   UNK N   1      34.761  15.859  10.826  0.00  0.00     0.173 C 
BRANCH  29  30
HETATM   30  C   UNK N   1      34.146  15.766   9.438  0.00  0.00     0.214 C 
BRANCH  30  31
HETATM   31  O   UNK N   1      35.032  16.279   8.490  0.00  0.00    -0.294 OA
BRANCH  31  32
HETATM   32  P   UNK N   1      34.344  17.794   7.974  0.00  0.00     0.390 P 
HETATM   33  O   UNK N   1      32.934  17.908   8.612  0.00  0.00    -0.632 OA
BRANCH  32  34
HETATM   34  O   UNK N   1      34.148  17.905   6.251  0.00  0.00    -0.307 OA
HETATM   35  H   UNK N   1      33.277  18.067   5.857  0.00  0.00     0.222 HD
ENDBRANCH  32  34
BRANCH  32  36
HETATM   36  O   UNK N   1      35.273  19.135   8.569  0.00  0.00    -0.307 OA
HETATM   37  H   UNK N   1      35.329  19.671   9.375  0.00  0.00     0.222 HD
ENDBRANCH  32  36
ENDBRANCH  31  32
ENDBRANCH  30  31
ENDBRANCH  29  30
BRANCH  29  38
HETATM   38  O   UNK N   1      35.061  17.196  11.092  0.00  0.00    -0.391 OA
HETATM   39  H   UNK N   1      34.994  17.574  11.983  0.00  0.00     0.210 HD
ENDBRANCH  29  38
ENDBRANCH  26  29
ENDBRANCH  23  26
ENDBRANCH  22  23
ENDBRANCH   7  22
TORSDOF 12
ENDMDL
MODEL 2
REMARK VINA RESULT:      -7.5      1.704      2.024
REMARK  12 active torsions:
REMARK  status: ('A' for Active; 'I' for Inactive)
REMARK    1  A    between atoms: N_7  and  C_21 
REMARK    2  A    between atoms: C_21  and  C_22 
REMARK    3  A    between atoms: C_22  and  O_23 
REMARK    4  A    between atoms: C_22  and  C_24 
REMARK    5  A    between atoms: C_24  and  O_25 
REMARK    6  A    between atoms: C_24  and  C_26 
REMARK    7  A    between atoms: C_26  and  C_27 
REMARK    8  A    between atoms: C_26  and  O_29 
REMARK    9  A    between atoms: C_27  and  O_28 
REMARK   10  A    between atoms: O_28  and  P_30 
REMARK   11  A    between atoms: P_30  and  O_31 
REMARK   12  A    between atoms: P_30  and  O_32 
ROOT
HETATM    1  C   UNK N   1      36.041  11.251  16.547  0.00  0.00    -0.054 A 
HETATM    2  C   UNK N   1      35.731  12.611  16.370  0.00  0.00    -0.054 A 
HETATM    3  C   UNK N   1      35.955  13.222  15.134  0.00  0.00     0.039 A 
HETATM    4  C   UNK N   1      36.495  12.491  14.062  0.00  0.00     0.063 A 
HETATM    5  C   UNK N   1      36.804  11.125  14.251  0.00  0.00     0.060 A 
HETATM    6  C   UNK N   1      36.573  10.516  15.486  0.00  0.00     0.039 A 
HETATM    7  N   UNK N   1      36.734  13.083  12.847  0.00  0.00    -0.327 N 
HETATM    8  C   UNK N   1      37.278  12.341  11.822  0.00  0.00     0.145 A 
HETATM    9  C   UNK N   1      37.575  10.976  12.029  0.00  0.00     0.146 A 
HETATM   10  N   UNK N   1      37.330  10.404  13.233  0.00  0.00    -0.347 N 
ATOM     11  HN  UNK N   1      37.543   9.417  13.373  1.00  0.00     0.166 HD
HETATM   12  N   UNK N   1      37.536  12.902  10.608  0.00  0.00    -0.292 N 
ATOM     13  HN  UNK N   1      37.317  13.886  10.453  1.00  0.00     0.172 HD
HETATM   14  C   UNK N   1      38.084  12.164   9.588  0.00  0.00     0.328 A 
HETATM   15  N   UNK N   1      38.372  10.838   9.778  0.00  0.00    -0.273 N 
HETATM   16  C   UNK N   1      38.125  10.233  10.979  0.00  0.00     0.280 A 
HETATM   17  C   UNK N   1      35.817  10.572  17.855  0.00  0.00     0.049 C 
HETATM   18  C   UNK N   1      35.168  13.423  17.486  0.00  0.00     0.049 C 
HETATM   19  O   UNK N   1      38.317  12.688   8.516  0.00  0.00    -0.247 OA
HETATM   20  O   UNK N   1      38.386   9.051  11.128  0.00  0.00    -0.265 OA
HETATM   21  H   UNK N   1      38.762  10.314   9.041  0.00  0.00     0.173 HD
ENDROOT
BRANCH   7  22
HETATM   22  C   UNK N   1      36.388  14.501  12.656  0.00  0.00     0.165 C 
BRANCH  22  23
HETATM   23  C   UNK N   1      34.964  14.675  12.144  0.00  0.00     0.167 C 
BRANCH  23  24
HETATM   24  O   UNK N   1      34.287  13.453  12.097  0.00  0.00    -0.391 OA
HETATM   25  H   UNK N   1      33.458  12.952  12.117  0.00  0.00     0.210 HD
ENDBRANCH  23  24
BRANCH  23  26
HETATM   26  C   UNK N   1      34.914  15.397  10.791  0.00  0.00     0.179 C 
BRANCH  26  27
HETATM   27  O   UNK N   1      34.741  16.761  11.025  0.00  0.00    -0.390 OA
HETATM   28  H   UNK N   1      34.183  17.385  10.534  0.00  0.00     0.210 HD
ENDBRANCH  26  27
BRANCH  26  29
HETATM   29  C   UNK N   1      33.824  14.912   9.816  0.00  0.00     0.173 C 
BRANCH  29  30
HETATM   30  C   UNK N   1      34.026  15.403   8.390  0.00  0.00     0.214 C 
BRANCH  30  31
HETATM   31  O   UNK N   1      34.998  16.405   8.366  0.00  0.00    -0.294 OA
BRANCH  31  32
HETATM   32  P   UNK N   1      34.174  17.846   7.838  0.00  0.00     0.390 P 
HETATM   33  O   UNK N   1      34.994  19.064   8.340  0.00  0.00    -0.632 OA
BRANCH  32  34
HETATM   34  O   UNK N   1      32.569  17.995   8.488  0.00  0.00    -0.307 OA
HETATM   35  H   UNK N   1      31.830  17.493   8.111  0.00  0.00     0.222 HD
ENDBRANCH  32  34
BRANCH  32  36
HETATM   36  O   UNK N   1      34.140  17.945   6.105  0.00  0.00    -0.307 OA
HETATM   37  H   UNK N   1      33.491  18.123   5.406  0.00  0.00     0.222 HD
ENDBRANCH  32  36
ENDBRANCH  31  32
ENDBRANCH  30  31
ENDBRANCH  29  30
BRANCH  29  38
HETATM   38  O   UNK N   1      32.575  15.347  10.264  0.00  0.00    -0.391 OA
HETATM   39  H   UNK N   1      31.746  15.032   9.871  0.00  0.00     0.210 HD
ENDBRANCH  29  38
ENDBRANCH  26  29
ENDBRANCH  23  26
ENDBRANCH  22  23
ENDBRANCH   7  22
TORSDOF 12
ENDMDL
MODEL 3
REMARK VINA RESULT:      -7.5      4.906      8.834
REMARK  12 active torsions:
REMARK  status: ('A' for Active; 'I' for Inactive)
REMARK    1  A    between atoms: N_7  and  C_21 
REMARK    2  A    between atoms: C_21  and  C_22 
REMARK    3  A    between atoms: C_22  and  O_23 
REMARK    4  A    between atoms: C_22  and  C_24 
REMARK    5  A    between atoms: C_24  and  O_25 
REMARK    6  A    between atoms: C_24  and  C_26 
REMARK    7  A    between atoms: C_26  and  C_27 
REMARK    8  A    between atoms: C_26  and  O_29 
REMARK    9  A    between atoms: C_27  and  O_28 
REMARK   10  A    between atoms: O_28  and  P_30 
REMARK   11  A    between atoms: P_30  and  O_31 
REMARK   12  A    between atoms: P_30  and  O_32 
ROOT
HETATM    1  C   UNK N   1      29.035  17.663   6.690  0.00  0.00    -0.054 A 
HETATM    2  C   UNK N   1      29.577  17.912   7.963  0.00  0.00    -0.054 A 
HETATM    3  C   UNK N   1      30.892  17.533   8.247  0.00  0.00     0.039 A 
HETATM    4  C   UNK N   1      31.679  16.897   7.272  0.00  0.00     0.063 A 
HETATM    5  C   UNK N   1      31.123  16.652   5.996  0.00  0.00     0.060 A 
HETATM    6  C   UNK N   1      29.812  17.037   5.714  0.00  0.00     0.039 A 
HETATM    7  N   UNK N   1      32.967  16.506   7.542  0.00  0.00    -0.327 N 
HETATM    8  C   UNK N   1      33.706  15.873   6.568  0.00  0.00     0.145 A 
HETATM    9  C   UNK N   1      33.135  15.640   5.298  0.00  0.00     0.146 A 
HETATM   10  N   UNK N   1      31.863  16.036   5.044  0.00  0.00    -0.347 N 
ATOM     11  HN  UNK N   1      31.459  15.868   4.123  1.00  0.00     0.166 HD
HETATM   12  N   UNK N   1      34.983  15.463   6.809  0.00  0.00    -0.292 N 
ATOM     13  HN  UNK N   1      35.400  15.635   7.724  1.00  0.00     0.172 HD
HETATM   14  C   UNK N   1      35.717  14.826   5.840  0.00  0.00     0.328 A 
HETATM   15  N   UNK N   1      35.174  14.600   4.603  0.00  0.00    -0.273 N 
HETATM   16  C   UNK N   1      33.896  14.998   4.316  0.00  0.00     0.280 A 
HETATM   17  C   UNK N   1      27.634  18.053   6.359  0.00  0.00     0.049 C 
HETATM   18  C   UNK N   1      28.771  18.573   9.028  0.00  0.00     0.049 C 
HETATM   19  O   UNK N   1      36.851  14.459   6.080  0.00  0.00    -0.247 OA
HETATM   20  O   UNK N   1      33.431  14.789   3.209  0.00  0.00    -0.265 OA
HETATM   21  H   UNK N   1      35.707  14.145   3.912  0.00  0.00     0.173 HD
ENDROOT
BRANCH   7  22
HETATM   22  C   UNK N   1      33.541  16.787   8.868  0.00  0.00     0.165 C 
BRANCH  22  23
HETATM   23  C   UNK N   1      33.709  15.519   9.696  0.00  0.00     0.167 C 
BRANCH  23  24
HETATM   24  O   UNK N   1      32.492  15.107  10.249  0.00  0.00    -0.391 OA
HETATM   25  H   UNK N   1      31.524  15.090  10.227  0.00  0.00     0.210 HD
ENDBRANCH  23  24
BRANCH  23  26
HETATM   26  C   UNK N   1      34.794  15.663  10.772  0.00  0.00     0.179 C 
BRANCH  26  27
HETATM   27  O   UNK N   1      34.962  17.019  11.050  0.00  0.00    -0.390 OA
HETATM   28  H   UNK N   1      35.371  17.697  10.488  0.00  0.00     0.210 HD
ENDBRANCH  26  27
BRANCH  26  29
HETATM   29  C   UNK N   1      36.164  15.047  10.425  0.00  0.00     0.173 C 
BRANCH  29  30
HETATM   30  C   UNK N   1      36.408  13.702  11.092  0.00  0.00     0.214 C 
BRANCH  30  31
HETATM   31  O   UNK N   1      35.399  13.442  12.021  0.00  0.00    -0.294 OA
BRANCH  31  32
HETATM   32  P   UNK N   1      36.144  13.614  13.586  0.00  0.00     0.390 P 
HETATM   33  O   UNK N   1      35.044  13.387  14.656  0.00  0.00    -0.632 OA
BRANCH  32  34
HETATM   34  O   UNK N   1      36.815  15.195  13.854  0.00  0.00    -0.307 OA
HETATM   35  H   UNK N   1      36.286  15.994  13.701  0.00  0.00     0.222 HD
ENDBRANCH  32  34
BRANCH  32  36
HETATM   36  O   UNK N   1      37.350  12.391  13.840  0.00  0.00    -0.307 OA
HETATM   37  H   UNK N   1      38.206  12.305  14.288  0.00  0.00     0.222 HD
ENDBRANCH  32  36
ENDBRANCH  31  32
ENDBRANCH  30  31
ENDBRANCH  29  30
BRANCH  29  38
HETATM   38  O   UNK N   1      37.177  15.927  10.810  0.00  0.00    -0.391 OA
HETATM   39  H   UNK N   1      37.364  16.124  11.742  0.00  0.00     0.210 HD
ENDBRANCH  29  38
ENDBRANCH  26  29
ENDBRANCH  23  26
ENDBRANCH  22  23
ENDBRANCH   7  22
TORSDOF 12
ENDMDL
MODEL 4
REMARK VINA RESULT:      -7.4      4.529      8.178
REMARK  12 active torsions:
REMARK  status: ('A' for Active; 'I' for Inactive)
REMARK    1  A    between atoms: N_7  and  C_21 
REMARK    2  A    between atoms: C_21  and  C_22 
REMARK    3  A    between atoms: C_22  and  O_23 
REMARK    4  A    between atoms: C_22  and  C_24 
REMARK    5  A    between atoms: C_24  and  O_25 
REMARK    6  A    between atoms: C_24  and  C_26 
REMARK    7  A    between atoms: C_26  and  C_27 
REMARK    8  A    between atoms: C_26  and  O_29 
REMARK    9  A    between atoms: C_27  and  O_28 
REMARK   10  A    between atoms: O_28  and  P_30 
REMARK   11  A    between atoms: P_30  and  O_31 
REMARK   12  A    between atoms: P_30  and  O_32 
ROOT
HETATM    1  C   UNK N   1      29.669  17.663   7.451  0.00  0.00    -0.054 A 
HETATM    2  C   UNK N   1      30.349  17.953   8.647  0.00  0.00    -0.054 A 
HETATM    3  C   UNK N   1      31.675  17.546   8.812  0.00  0.00     0.039 A 
HETATM    4  C   UNK N   1      32.338  16.839   7.795  0.00  0.00     0.063 A 
HETATM    5  C   UNK N   1      31.645  16.552   6.597  0.00  0.00     0.060 A 
HETATM    6  C   UNK N   1      30.323  16.966   6.433  0.00  0.00     0.039 A 
HETATM    7  N   UNK N   1      33.635  16.419   7.950  0.00  0.00    -0.327 N 
HETATM    8  C   UNK N   1      34.251  15.716   6.938  0.00  0.00     0.145 A 
HETATM    9  C   UNK N   1      33.544  15.443   5.747  0.00  0.00     0.146 A 
HETATM   10  N   UNK N   1      32.264  15.868   5.606  0.00  0.00    -0.347 N 
ATOM     11  HN  UNK N   1      31.761  15.670   4.741  1.00  0.00     0.166 HD
HETATM   12  N   UNK N   1      35.534  15.278   7.067  0.00  0.00    -0.292 N 
ATOM     13  HN  UNK N   1      36.050  15.478   7.924  1.00  0.00     0.172 HD
HETATM   14  C   UNK N   1      36.145  14.572   6.060  0.00  0.00     0.328 A 
HETATM   15  N   UNK N   1      35.469  14.305   4.899  0.00  0.00    -0.273 N 
HETATM   16  C   UNK N   1      34.180  14.730   4.726  0.00  0.00     0.280 A 
HETATM   17  C   UNK N   1      28.253  18.082   7.246  0.00  0.00     0.049 C 
HETATM   18  C   UNK N   1      29.676  18.690   9.754  0.00  0.00     0.049 C 
HETATM   19  O   UNK N   1      37.288  14.179   6.200  0.00  0.00    -0.247 OA
HETATM   20  O   UNK N   1      33.596  14.485   3.684  0.00  0.00    -0.265 OA
HETATM   21  H   UNK N   1      35.915  13.801   4.180  0.00  0.00     0.173 HD
ENDROOT
BRANCH   7  22
HETATM   22  C   UNK N   1      34.353  16.743   9.194  0.00  0.00     0.165 C 
BRANCH  22  23
HETATM   23  C   UNK N   1      34.407  15.556  10.146  0.00  0.00     0.167 C 
BRANCH  23  24
HETATM   24  O   UNK N   1      33.130  15.200  10.590  0.00  0.00    -0.391 OA
HETATM   25  H   UNK N   1      32.342  14.641  10.516  0.00  0.00     0.210 HD
ENDBRANCH  23  24
BRANCH  23  26
HETATM   26  C   UNK N   1      35.364  15.793  11.323  0.00  0.00     0.179 C 
BRANCH  26  27
HETATM   27  O   UNK N   1      36.582  16.245  10.815  0.00  0.00    -0.390 OA
HETATM   28  H   UNK N   1      37.199  15.773  10.235  0.00  0.00     0.210 HD
ENDBRANCH  26  27
BRANCH  26  29
HETATM   29  C   UNK N   1      35.620  14.575  12.231  0.00  0.00     0.173 C 
BRANCH  29  30
HETATM   30  C   UNK N   1      36.752  13.684  11.744  0.00  0.00     0.214 C 
BRANCH  30  31
HETATM   31  O   UNK N   1      36.231  12.509  11.198  0.00  0.00    -0.294 OA
BRANCH  31  32
HETATM   32  P   UNK N   1      36.700  12.523   9.520  0.00  0.00     0.390 P 
HETATM   33  O   UNK N   1      35.401  12.513   8.671  0.00  0.00    -0.632 OA
BRANCH  32  34
HETATM   34  O   UNK N   1      37.635  11.132   9.060  0.00  0.00    -0.307 OA
HETATM   35  H   UNK N   1      38.105  11.105   8.212  0.00  0.00     0.222 HD
ENDBRANCH  32  34
BRANCH  32  36
HETATM   36  O   UNK N   1      37.547  13.985   9.121  0.00  0.00    -0.307 OA
HETATM   37  H   UNK N   1      37.545  14.649   8.415  0.00  0.00     0.222 HD
ENDBRANCH  32  36
ENDBRANCH  31  32
ENDBRANCH  30  31
ENDBRANCH  29  30
BRANCH  29  38
HETATM   38  O   UNK N   1      34.456  13.810  12.318  0.00  0.00    -0.391 OA
HETATM   39  H   UNK N   1      34.188  13.367  13.139  0.00  0.00     0.210 HD
ENDBRANCH  29  38
ENDBRANCH  26  29
ENDBRANCH  23  26
ENDBRANCH  22  23
ENDBRANCH   7  22
TORSDOF 12
ENDMDL
MODEL 5
REMARK VINA RESULT:      -7.4      4.923      9.559
REMARK  12 active torsions:
REMARK  status: ('A' for Active; 'I' for Inactive)
REMARK    1  A    between atoms: N_7  and  C_21 
REMARK    2  A    between atoms: C_21  and  C_22 
REMARK    3  A    between atoms: C_22  and  O_23 
REMARK    4  A    between atoms: C_22  and  C_24 
REMARK    5  A    between atoms: C_24  and  O_25 
REMARK    6  A    between atoms: C_24  and  C_26 
REMARK    7  A    between atoms: C_26  and  C_27 
REMARK    8  A    between atoms: C_26  and  O_29 
REMARK    9  A    between atoms: C_27  and  O_28 
REMARK   10  A    between atoms: O_28  and  P_30 
REMARK   11  A    between atoms: P_30  and  O_31 
REMARK   12  A    between atoms: P_30  and  O_32 
ROOT
HETATM    1  C   UNK N   1      33.992  14.807   4.245  0.00  0.00    -0.054 A 
HETATM    2  C   UNK N   1      34.915  14.909   5.301  0.00  0.00    -0.054 A 
HETATM    3  C   UNK N   1      34.540  15.527   6.497  0.00  0.00     0.039 A 
HETATM    4  C   UNK N   1      33.248  16.056   6.655  0.00  0.00     0.063 A 
HETATM    5  C   UNK N   1      32.329  15.948   5.587  0.00  0.00     0.060 A 
HETATM    6  C   UNK N   1      32.704  15.325   4.396  0.00  0.00     0.039 A 
HETATM    7  N   UNK N   1      32.873  16.680   7.818  0.00  0.00    -0.327 N 
HETATM    8  C   UNK N   1      31.603  17.199   7.934  0.00  0.00     0.145 A 
HETATM    9  C   UNK N   1      30.697  17.078   6.858  0.00  0.00     0.146 A 
HETATM   10  N   UNK N   1      31.080  16.456   5.716  0.00  0.00    -0.347 N 
ATOM     11  HN  UNK N   1      30.419  16.369   4.945  1.00  0.00     0.166 HD
HETATM   12  N   UNK N   1      31.203  17.832   9.073  0.00  0.00    -0.292 N 
ATOM     13  HN  UNK N   1      31.853  17.917   9.854  1.00  0.00     0.172 HD
HETATM   14  C   UNK N   1      29.940  18.356   9.186  0.00  0.00     0.328 A 
HETATM   15  N   UNK N   1      29.052  18.239   8.149  0.00  0.00    -0.273 N 
HETATM   16  C   UNK N   1      29.409  17.608   6.989  0.00  0.00     0.280 A 
HETATM   17  C   UNK N   1      34.362  14.156   2.956  0.00  0.00     0.049 C 
HETATM   18  C   UNK N   1      36.298  14.371   5.168  0.00  0.00     0.049 C 
HETATM   19  O   UNK N   1      29.607  18.928  10.207  0.00  0.00    -0.247 OA
HETATM   20  O   UNK N   1      28.604  17.513   6.078  0.00  0.00    -0.265 OA
HETATM   21  H   UNK N   1      28.146  18.615   8.239  0.00  0.00     0.173 HD
ENDROOT
BRANCH   7  22
HETATM   22  C   UNK N   1      33.833  16.766   8.931  0.00  0.00     0.165 C 
BRANCH  22  23
HETATM   23  C   UNK N   1      33.808  15.517   9.802  0.00  0.00     0.167 C 
BRANCH  23  24
HETATM   24  O   UNK N   1      32.505  15.201  10.201  0.00  0.00    -0.391 OA
HETATM   25  H   UNK N   1      31.709  15.414  10.711  0.00  0.00     0.210 HD
ENDBRANCH  23  24
BRANCH  23  26
HETATM   26  C   UNK N   1      34.753  15.626  11.007  0.00  0.00     0.179 C 
BRANCH  26  27
HETATM   27  O   UNK N   1      34.953  16.977  11.289  0.00  0.00    -0.390 OA
HETATM   28  H   UNK N   1      35.042  17.711  10.661  0.00  0.00     0.210 HD
ENDBRANCH  26  27
BRANCH  26  29
HETATM   29  C   UNK N   1      36.122  14.938  10.846  0.00  0.00     0.173 C 
BRANCH  29  30
HETATM   30  C   UNK N   1      36.408  13.902  11.922  0.00  0.00     0.214 C 
BRANCH  30  31
HETATM   31  O   UNK N   1      35.231  13.587  12.604  0.00  0.00    -0.294 OA
BRANCH  31  32
HETATM   32  P   UNK N   1      35.732  13.055  14.185  0.00  0.00     0.390 P 
HETATM   33  O   UNK N   1      36.153  11.566  14.067  0.00  0.00    -0.632 OA
BRANCH  32  34
HETATM   34  O   UNK N   1      34.465  13.146  15.371  0.00  0.00    -0.307 OA
HETATM   35  H   UNK N   1      34.665  13.106  16.319  0.00  0.00     0.222 HD
ENDBRANCH  32  34
BRANCH  32  36
HETATM   36  O   UNK N   1      37.132  13.930  14.723  0.00  0.00    -0.307 OA
HETATM   37  H   UNK N   1      38.086  13.780  14.809  0.00  0.00     0.222 HD
ENDBRANCH  32  36
ENDBRANCH  31  32
ENDBRANCH  30  31
ENDBRANCH  29  30
BRANCH  29  38
HETATM   38  O   UNK N   1      37.130  15.902  10.875  0.00  0.00    -0.391 OA
HETATM   39  H   UNK N   1      37.626  16.157  10.080  0.00  0.00     0.210 HD
ENDBRANCH  29  38
ENDBRANCH  26  29
ENDBRANCH  23  26
ENDBRANCH  22  23
ENDBRANCH   7  22
TORSDOF 12
ENDMDL
MODEL 6
REMARK VINA RESULT:      -7.3     12.563     14.792
REMARK  12 active torsions:
REMARK  status: ('A' for Active; 'I' for Inactive)
REMARK    1  A    between atoms: N_7  and  C_21 
REMARK    2  A    between atoms: C_21  and  C_22 
REMARK    3  A    between atoms: C_22  and  O_23 
REMARK    4  A    between atoms: C_22  and  C_24 
REMARK    5  A    between atoms: C_24  and  O_25 
REMARK    6  A    between atoms: C_24  and  C_26 
REMARK    7  A    between atoms: C_26  and  C_27 
REMARK    8  A    between atoms: C_26  and  O_29 
REMARK    9  A    between atoms: C_27  and  O_28 
REMARK   10  A    between atoms: O_28  and  P_30 
REMARK   11  A    between atoms: P_30  and  O_31 
REMARK   12  A    between atoms: P_30  and  O_32 
ROOT
HETATM    1  C   UNK N   1      23.366  12.470  10.709  0.00  0.00    -0.054 A 
HETATM    2  C   UNK N   1      22.030  12.685  10.328  0.00  0.00    -0.054 A 
HETATM    3  C   UNK N   1      21.743  13.248   9.082  0.00  0.00     0.039 A 
HETATM    4  C   UNK N   1      22.779  13.610   8.204  0.00  0.00     0.063 A 
HETATM    5  C   UNK N   1      24.118  13.389   8.598  0.00  0.00     0.060 A 
HETATM    6  C   UNK N   1      24.401  12.821   9.841  0.00  0.00     0.039 A 
HETATM    7  N   UNK N   1      22.511  14.178   6.983  0.00  0.00    -0.327 N 
HETATM    8  C   UNK N   1      23.551  14.532   6.153  0.00  0.00     0.145 A 
HETATM    9  C   UNK N   1      24.882  14.300   6.562  0.00  0.00     0.146 A 
HETATM   10  N   UNK N   1      25.131  13.735   7.769  0.00  0.00    -0.347 N 
ATOM     11  HN  UNK N   1      26.095  13.567   8.056  1.00  0.00     0.166 HD
HETATM   12  N   UNK N   1      23.317  15.107   4.940  0.00  0.00    -0.292 N 
ATOM     13  HN  UNK N   1      22.357  15.271   4.639  1.00  0.00     0.172 HD
HETATM   14  C   UNK N   1      24.354  15.467   4.116  0.00  0.00     0.328 A 
HETATM   15  N   UNK N   1      25.649  15.242   4.502  0.00  0.00    -0.273 N 
HETATM   16  C   UNK N   1      25.930  14.663   5.709  0.00  0.00     0.280 A 
HETATM   17  C   UNK N   1      23.704  11.874  12.033  0.00  0.00     0.049 C 
HETATM   18  C   UNK N   1      20.903  12.327  11.235  0.00  0.00     0.049 C 
HETATM   19  O   UNK N   1      24.124  15.989   3.042  0.00  0.00    -0.247 OA
HETATM   20  O   UNK N   1      27.089  14.469   6.034  0.00  0.00    -0.265 OA
HETATM   21  H   UNK N   1      26.388  15.499   3.904  0.00  0.00     0.173 HD
ENDROOT
BRANCH   7  22
HETATM   22  C   UNK N   1      21.111  14.382   6.576  0.00  0.00     0.165 C 
BRANCH  22  23
HETATM   23  C   UNK N   1      20.600  15.762   6.967  0.00  0.00     0.167 C 
BRANCH  23  24
HETATM   24  O   UNK N   1      19.481  15.674   7.800  0.00  0.00    -0.391 OA
HETATM   25  H   UNK N   1      18.639  16.035   8.115  0.00  0.00     0.210 HD
ENDBRANCH  23  24
BRANCH  23  26
HETATM   26  C   UNK N   1      20.322  16.650   5.747  0.00  0.00     0.179 C 
BRANCH  26  27
HETATM   27  O   UNK N   1      20.495  15.883   4.595  0.00  0.00    -0.390 OA
HETATM   28  H   UNK N   1      19.924  15.173   4.260  0.00  0.00     0.210 HD
ENDBRANCH  26  27
BRANCH  26  29
HETATM   29  C   UNK N   1      21.183  17.923   5.636  0.00  0.00     0.173 C 
BRANCH  29  30
HETATM   30  C   UNK N   1      21.611  18.242   4.212  0.00  0.00     0.214 C 
BRANCH  30  31
HETATM   31  O   UNK N   1      20.849  19.300   3.713  0.00  0.00    -0.294 OA
BRANCH  31  32
HETATM   32  P   UNK N   1      20.118  18.702   2.249  0.00  0.00     0.390 P 
HETATM   33  O   UNK N   1      20.573  17.230   2.065  0.00  0.00    -0.632 OA
BRANCH  32  34
HETATM   34  O   UNK N   1      20.607  19.581   0.832  0.00  0.00    -0.307 OA
HETATM   35  H   UNK N   1      20.407  20.525   0.736  0.00  0.00     0.222 HD
ENDBRANCH  32  34
BRANCH  32  36
HETATM   36  O   UNK N   1      18.387  18.677   2.382  0.00  0.00    -0.307 OA
HETATM   37  H   UNK N   1      17.631  19.183   2.044  0.00  0.00     0.222 HD
ENDBRANCH  32  36
ENDBRANCH  31  32
ENDBRANCH  30  31
ENDBRANCH  29  30
BRANCH  29  38
HETATM   38  O   UNK N   1      22.327  17.777   6.423  0.00  0.00    -0.391 OA
HETATM   39  H   UNK N   1      22.468  17.004   6.992  0.00  0.00     0.210 HD
ENDBRANCH  29  38
ENDBRANCH  26  29
ENDBRANCH  23  26
ENDBRANCH  22  23
ENDBRANCH   7  22
TORSDOF 12
ENDMDL
MODEL 7
REMARK VINA RESULT:      -7.2     12.645     15.127
REMARK  12 active torsions:
REMARK  status: ('A' for Active; 'I' for Inactive)
REMARK    1  A    between atoms: N_7  and  C_21 
REMARK    2  A    between atoms: C_21  and  C_22 
REMARK    3  A    between atoms: C_22  and  O_23 
REMARK    4  A    between atoms: C_22  and  C_24 
REMARK    5  A    between atoms: C_24  and  O_25 
REMARK    6  A    between atoms: C_24  and  C_26 
REMARK    7  A    between atoms: C_26  and  C_27 
REMARK    8  A    between atoms: C_26  and  O_29 
REMARK    9  A    between atoms: C_27  and  O_28 
REMARK   10  A    between atoms: O_28  and  P_30 
REMARK   11  A    between atoms: P_30  and  O_31 
REMARK   12  A    between atoms: P_30  and  O_32 
ROOT
HETATM    1  C   UNK N   1      25.506  14.691   6.022  0.00  0.00    -0.054 A 
HETATM    2  C   UNK N   1      24.240  15.022   5.509  0.00  0.00    -0.054 A 
HETATM    3  C   UNK N   1      23.090  14.726   6.246  0.00  0.00     0.039 A 
HETATM    4  C   UNK N   1      23.185  14.092   7.496  0.00  0.00     0.063 A 
HETATM    5  C   UNK N   1      24.463  13.763   8.002  0.00  0.00     0.060 A 
HETATM    6  C   UNK N   1      25.610  14.066   7.266  0.00  0.00     0.039 A 
HETATM    7  N   UNK N   1      22.063  13.781   8.223  0.00  0.00    -0.327 N 
HETATM    8  C   UNK N   1      22.192  13.147   9.439  0.00  0.00     0.145 A 
HETATM    9  C   UNK N   1      23.478  12.831   9.929  0.00  0.00     0.146 A 
HETATM   10  N   UNK N   1      24.577  13.148   9.202  0.00  0.00    -0.347 N 
ATOM     11  HN  UNK N   1      25.503  12.920   9.565  1.00  0.00     0.166 HD
HETATM   12  N   UNK N   1      21.097  12.817  10.179  0.00  0.00    -0.292 N 
ATOM     13  HN  UNK N   1      20.167  13.049   9.830  1.00  0.00     0.172 HD
HETATM   14  C   UNK N   1      21.225  12.179  11.388  0.00  0.00     0.328 A 
HETATM   15  N   UNK N   1      22.468  11.872  11.874  0.00  0.00    -0.273 N 
HETATM   16  C   UNK N   1      23.595  12.189  11.166  0.00  0.00     0.280 A 
HETATM   17  C   UNK N   1      26.751  14.992   5.258  0.00  0.00     0.049 C 
HETATM   18  C   UNK N   1      24.096  15.684   4.182  0.00  0.00     0.049 C 
HETATM   19  O   UNK N   1      20.234  11.883  12.027  0.00  0.00    -0.247 OA
HETATM   20  O   UNK N   1      24.693  11.909  11.617  0.00  0.00    -0.265 OA
HETATM   21  H   UNK N   1      22.553  11.417  12.744  0.00  0.00     0.173 HD
ENDROOT
BRANCH   7  22
HETATM   22  C   UNK N   1      20.739  14.148   7.695  0.00  0.00     0.165 C 
BRANCH  22  23
HETATM   23  C   UNK N   1      20.174  15.383   8.386  0.00  0.00     0.167 C 
BRANCH  23  24
HETATM   24  O   UNK N   1      19.191  15.039   9.319  0.00  0.00    -0.391 OA
HETATM   25  H   UNK N   1      18.475  15.300   9.918  0.00  0.00     0.210 HD
ENDBRANCH  23  24
BRANCH  23  26
HETATM   26  C   UNK N   1      19.657  16.427   7.386  0.00  0.00     0.179 C 
BRANCH  26  27
HETATM   27  O   UNK N   1      18.502  17.007   7.913  0.00  0.00    -0.390 OA
HETATM   28  H   UNK N   1      18.431  17.813   8.447  0.00  0.00     0.210 HD
ENDBRANCH  26  27
BRANCH  26  29
HETATM   29  C   UNK N   1      19.354  15.902   5.969  0.00  0.00     0.173 C 
BRANCH  29  30
HETATM   30  C   UNK N   1      20.022  16.713   4.869  0.00  0.00     0.214 C 
BRANCH  30  31
HETATM   31  O   UNK N   1      20.974  17.570   5.422  0.00  0.00    -0.294 OA
BRANCH  31  32
HETATM   32  P   UNK N   1      21.448  18.641   4.133  0.00  0.00     0.390 P 
HETATM   33  O   UNK N   1      21.080  17.951   2.792  0.00  0.00    -0.632 OA
BRANCH  32  34
HETATM   34  O   UNK N   1      23.156  18.962   4.103  0.00  0.00    -0.307 OA
HETATM   35  H   UNK N   1      23.520  19.677   3.557  0.00  0.00     0.222 HD
ENDBRANCH  32  34
BRANCH  32  36
HETATM   36  O   UNK N   1      20.551  20.126   4.194  0.00  0.00    -0.307 OA
HETATM   37  H   UNK N   1      19.765  20.511   3.775  0.00  0.00     0.222 HD
ENDBRANCH  32  36
ENDBRANCH  31  32
ENDBRANCH  30  31
ENDBRANCH  29  30
BRANCH  29  38
HETATM   38  O   UNK N   1      17.975  15.912   5.757  0.00  0.00    -0.391 OA
HETATM   39  H   UNK N   1      17.554  16.512   5.121  0.00  0.00     0.210 HD
ENDBRANCH  29  38
ENDBRANCH  26  29
ENDBRANCH  23  26
ENDBRANCH  22  23
ENDBRANCH   7  22
TORSDOF 12
ENDMDL
MODEL 8
REMARK VINA RESULT:      -7.2      4.680      9.253
REMARK  12 active torsions:
REMARK  status: ('A' for Active; 'I' for Inactive)
REMARK    1  A    between atoms: N_7  and  C_21 
REMARK    2  A    between atoms: C_21  and  C_22 
REMARK    3  A    between atoms: C_22  and  O_23 
REMARK    4  A    between atoms: C_22  and  C_24 
REMARK    5  A    between atoms: C_24  and  O_25 
REMARK    6  A    between atoms: C_24  and  C_26 
REMARK    7  A    between atoms: C_26  and  C_27 
REMARK    8  A    between atoms: C_26  and  O_29 
REMARK    9  A    between atoms: C_27  and  O_28 
REMARK   10  A    between atoms: O_28  and  P_30 
REMARK   11  A    between atoms: P_30  and  O_31 
REMARK   12  A    between atoms: P_30  and  O_32 
ROOT
HETATM    1  C   UNK N   1      32.104  16.535   3.899  0.00  0.00    -0.054 A 
HETATM    2  C   UNK N   1      31.679  15.260   4.311  0.00  0.00    -0.054 A 
HETATM    3  C   UNK N   1      32.005  14.797   5.588  0.00  0.00     0.039 A 
HETATM    4  C   UNK N   1      32.760  15.592   6.467  0.00  0.00     0.063 A 
HETATM    5  C   UNK N   1      33.182  16.872   6.041  0.00  0.00     0.060 A 
HETATM    6  C   UNK N   1      32.850  17.334   4.767  0.00  0.00     0.039 A 
HETATM    7  N   UNK N   1      33.100  15.142   7.719  0.00  0.00    -0.327 N 
HETATM    8  C   UNK N   1      33.853  15.942   8.549  0.00  0.00     0.145 A 
HETATM    9  C   UNK N   1      34.261  17.220   8.108  0.00  0.00     0.146 A 
HETATM   10  N   UNK N   1      33.915  17.652   6.871  0.00  0.00    -0.347 N 
ATOM     11  HN  UNK N   1      34.210  18.577   6.561  1.00  0.00     0.166 HD
HETATM   12  N   UNK N   1      34.214  15.520   9.793  0.00  0.00    -0.292 N 
ATOM     13  HN  UNK N   1      33.917  14.600  10.117  1.00  0.00     0.172 HD
HETATM   14  C   UNK N   1      34.971  16.314  10.619  0.00  0.00     0.328 A 
HETATM   15  N   UNK N   1      35.368  17.558  10.201  0.00  0.00    -0.273 N 
HETATM   16  C   UNK N   1      35.024  18.023   8.962  0.00  0.00     0.280 A 
HETATM   17  C   UNK N   1      31.775  17.056   2.541  0.00  0.00     0.049 C 
HETATM   18  C   UNK N   1      30.887  14.382   3.404  0.00  0.00     0.049 C 
HETATM   19  O   UNK N   1      35.292  15.914  11.721  0.00  0.00    -0.247 OA
HETATM   20  O   UNK N   1      35.385  19.133   8.609  0.00  0.00    -0.265 OA
HETATM   21  H   UNK N   1      35.907  18.123  10.800  0.00  0.00     0.173 HD
ENDROOT
BRANCH   7  22
HETATM   22  C   UNK N   1      32.636  13.816   8.158  0.00  0.00     0.165 C 
BRANCH  22  23
HETATM   23  C   UNK N   1      33.600  12.711   7.745  0.00  0.00     0.167 C 
BRANCH  23  24
HETATM   24  O   UNK N   1      32.945  11.709   7.022  0.00  0.00    -0.391 OA
HETATM   25  H   UNK N   1      32.883  11.147   6.234  0.00  0.00     0.210 HD
ENDBRANCH  23  24
BRANCH  23  26
HETATM   26  C   UNK N   1      34.369  12.129   8.939  0.00  0.00     0.179 C 
BRANCH  26  27
HETATM   27  O   UNK N   1      33.814  12.642  10.112  0.00  0.00    -0.390 OA
HETATM   28  H   UNK N   1      34.154  13.361  10.668  0.00  0.00     0.210 HD
ENDBRANCH  26  27
BRANCH  26  29
HETATM   29  C   UNK N   1      35.887  12.389   8.946  0.00  0.00     0.173 C 
BRANCH  29  30
HETATM   30  C   UNK N   1      36.419  12.830  10.301  0.00  0.00     0.214 C 
BRANCH  30  31
HETATM   31  O   UNK N   1      36.297  11.787  11.221  0.00  0.00    -0.294 OA
BRANCH  31  32
HETATM   32  P   UNK N   1      36.000  12.550  12.759  0.00  0.00     0.390 P 
HETATM   33  O   UNK N   1      36.213  11.479  13.861  0.00  0.00    -0.632 OA
BRANCH  32  34
HETATM   34  O   UNK N   1      34.378  13.152  12.922  0.00  0.00    -0.307 OA
HETATM   35  H   UNK N   1      33.790  13.219  12.153  0.00  0.00     0.222 HD
ENDBRANCH  32  34
BRANCH  32  36
HETATM   36  O   UNK N   1      37.151  13.815  13.060  0.00  0.00    -0.307 OA
HETATM   37  H   UNK N   1      38.114  13.928  13.057  0.00  0.00     0.222 HD
ENDBRANCH  32  36
ENDBRANCH  31  32
ENDBRANCH  30  31
ENDBRANCH  29  30
BRANCH  29  38
HETATM   38  O   UNK N   1      36.193  13.374   8.005  0.00  0.00    -0.391 OA
HETATM   39  H   UNK N   1      37.038  13.851   8.011  0.00  0.00     0.210 HD
ENDBRANCH  29  38
ENDBRANCH  26  29
ENDBRANCH  23  26
ENDBRANCH  22  23
ENDBRANCH   7  22
TORSDOF 12
ENDMDL
MODEL 9
REMARK VINA RESULT:      -7.1      3.646      6.220
REMARK  12 active torsions:
REMARK  status: ('A' for Active; 'I' for Inactive)
REMARK    1  A    between atoms: N_7  and  C_21 
REMARK    2  A    between atoms: C_21  and  C_22 
REMARK    3  A    between atoms: C_22  and  O_23 
REMARK    4  A    between atoms: C_22  and  C_24 
REMARK    5  A    between atoms: C_24  and  O_25 
REMARK    6  A    between atoms: C_24  and  C_26 
REMARK    7  A    between atoms: C_26  and  C_27 
REMARK    8  A    between atoms: C_26  and  O_29 
REMARK    9  A    between atoms: C_27  and  O_28 
REMARK   10  A    between atoms: O_28  and  P_30 
REMARK   11  A    between atoms: P_30  and  O_31 
REMARK   12  A    between atoms: P_30  and  O_32 
ROOT
HETATM    1  C   UNK N   1      33.372   9.185  10.087  0.00  0.00    -0.054 A 
HETATM    2  C   UNK N   1      33.159   9.629   8.770  0.00  0.00    -0.054 A 
HETATM    3  C   UNK N   1      33.460  10.948   8.422  0.00  0.00     0.039 A 
HETATM    4  C   UNK N   1      33.968  11.843   9.380  0.00  0.00     0.063 A 
HETATM    5  C   UNK N   1      34.177  11.385  10.701  0.00  0.00     0.060 A 
HETATM    6  C   UNK N   1      33.881  10.065  11.043  0.00  0.00     0.039 A 
HETATM    7  N   UNK N   1      34.253  13.145   9.055  0.00  0.00    -0.327 N 
HETATM    8  C   UNK N   1      34.736  13.999  10.022  0.00  0.00     0.145 A 
HETATM    9  C   UNK N   1      34.943  13.523  11.335  0.00  0.00     0.146 A 
HETATM   10  N   UNK N   1      34.661  12.232  11.640  0.00  0.00    -0.347 N 
ATOM     11  HN  UNK N   1      34.816  11.895  12.590  1.00  0.00     0.166 HD
HETATM   12  N   UNK N   1      35.019  15.300   9.733  0.00  0.00    -0.292 N 
ATOM     13  HN  UNK N   1      34.876  15.646   8.784  1.00  0.00     0.172 HD
HETATM   14  C   UNK N   1      35.495  16.152  10.698  0.00  0.00     0.328 A 
HETATM   15  N   UNK N   1      35.702  15.699  11.974  0.00  0.00    -0.273 N 
HETATM   16  C   UNK N   1      35.436  14.399  12.307  0.00  0.00     0.280 A 
HETATM   17  C   UNK N   1      33.058   7.784  10.489  0.00  0.00     0.049 C 
HETATM   18  C   UNK N   1      32.611   8.715   7.729  0.00  0.00     0.049 C 
HETATM   19  O   UNK N   1      35.729  17.313  10.422  0.00  0.00    -0.247 OA
HETATM   20  O   UNK N   1      35.629  14.013  13.448  0.00  0.00    -0.265 OA
HETATM   21  H   UNK N   1      36.047  16.315  12.660  0.00  0.00     0.173 HD
ENDROOT
BRANCH   7  22
HETATM   22  C   UNK N   1      34.051  13.603   7.671  0.00  0.00     0.165 C 
BRANCH  22  23
HETATM   23  C   UNK N   1      32.645  14.146   7.450  0.00  0.00     0.167 C 
BRANCH  23  24
HETATM   24  O   UNK N   1      31.991  13.463   6.420  0.00  0.00    -0.391 OA
HETATM   25  H   UNK N   1      32.025  12.977   5.582  0.00  0.00     0.210 HD
ENDBRANCH  23  24
BRANCH  23  26
HETATM   26  C   UNK N   1      32.635  15.663   7.212  0.00  0.00     0.179 C 
BRANCH  26  27
HETATM   27  O   UNK N   1      33.956  16.107   7.148  0.00  0.00    -0.390 OA
HETATM   28  H   UNK N   1      34.702  15.695   6.686  0.00  0.00     0.210 HD
ENDBRANCH  26  27
BRANCH  26  29
HETATM   29  C   UNK N   1      31.874  16.498   8.258  0.00  0.00     0.173 C 
BRANCH  29  30
HETATM   30  C   UNK N   1      30.844  17.438   7.649  0.00  0.00     0.214 C 
BRANCH  30  31
HETATM   31  O   UNK N   1      29.556  16.982   7.936  0.00  0.00    -0.294 OA
BRANCH  31  32
HETATM   32  P   UNK N   1      29.125  17.718   9.455  0.00  0.00     0.390 P 
HETATM   33  O   UNK N   1      30.009  18.982   9.630  0.00  0.00    -0.632 OA
BRANCH  32  34
HETATM   34  O   UNK N   1      29.413  16.686  10.822  0.00  0.00    -0.307 OA
HETATM   35  H   UNK N   1      29.844  17.025  11.622  0.00  0.00     0.222 HD
ENDBRANCH  32  34
BRANCH  32  36
HETATM   36  O   UNK N   1      27.475  18.260   9.438  0.00  0.00    -0.307 OA
HETATM   37  H   UNK N   1      26.776  18.459  10.080  0.00  0.00     0.222 HD
ENDBRANCH  32  36
ENDBRANCH  31  32
ENDBRANCH  30  31
ENDBRANCH  29  30
BRANCH  29  38
HETATM   38  O   UNK N   1      32.784  17.253   8.999  0.00  0.00    -0.391 OA
HETATM   39  H   UNK N   1      33.700  17.389   8.710  0.00  0.00     0.210 HD
ENDBRANCH  29  38
ENDBRANCH  26  29
ENDBRANCH  23  26
ENDBRANCH  22  23
ENDBRANCH   7  22
TORSDOF 12
ENDMDL
