MODEL 1
REMARK VINA RESULT:      -4.0      0.000      0.000
REMARK  1 active torsions:
REMARK  status: ('A' for Active; 'I' for Inactive)
REMARK    1  A    between atoms: O_1  and  C_2 
ROOT
HETATM    1  C   UNK N   1      23.988  12.272  11.040  0.00  0.00     0.065 A 
HETATM    2  C   UNK N   1      23.837  13.001   9.857  0.00  0.00     0.036 A 
HETATM    3  C   UNK N   1      22.559  13.336   9.404  0.00  0.00     0.003 A 
HETATM    4  C   UNK N   1      21.434  12.941  10.135  0.00  0.00     0.000 A 
HETATM    5  C   UNK N   1      21.585  12.212  11.318  0.00  0.00     0.003 A 
HETATM    6  C   UNK N   1      22.865  11.877  11.771  0.00  0.00     0.036 A 
ENDROOT
BRANCH   1   7
HETATM    7  O   UNK N   1      25.216  11.950  11.475  0.00  0.00    -0.361 OA
HETATM    8  H   UNK N   1      25.814  11.507  10.905  0.00  0.00     0.217 HD
ENDBRANCH   1   7
TORSDOF 1
ENDMDL
MODEL 2
REMARK VINA RESULT:      -4.0      0.000      1.832
REMARK  1 active torsions:
REMARK  status: ('A' for Active; 'I' for Inactive)
REMARK    1  A    between atoms: O_1  and  C_2 
ROOT
HETATM    1  C   UNK N   1      23.988  12.272  11.040  0.00  0.00     0.065 A 
HETATM    2  C   UNK N   1      22.864  11.877  11.771  0.00  0.00     0.036 A 
HETATM    3  C   UNK N   1      21.586  12.212  11.318  0.00  0.00     0.003 A 
HETATM    4  C   UNK N   1      21.434  12.941  10.135  0.00  0.00     0.000 A 
HETATM    5  C   UNK N   1      22.558  13.336   9.404  0.00  0.00     0.003 A 
HETATM    6  C   UNK N   1      23.838  13.001   9.857  0.00  0.00     0.036 A 
ENDROOT
BRANCH   1   7
HETATM    7  O   UNK N   1      25.216  11.950  11.475  0.00  0.00    -0.361 OA
HETATM    8  H   UNK N   1      25.365  11.799  12.388  0.00  0.00     0.217 HD
ENDBRANCH   1   7
TORSDOF 1
ENDMDL
MODEL 3
REMARK VINA RESULT:      -4.0     14.085     14.539
REMARK  1 active torsions:
REMARK  status: ('A' for Active; 'I' for Inactive)
REMARK    1  A    between atoms: O_1  and  C_2 
ROOT
HETATM    1  C   UNK N   1      35.161  12.799  19.252  0.00  0.00     0.065 A 
HETATM    2  C   UNK N   1      35.133  13.720  18.201  0.00  0.00     0.036 A 
HETATM    3  C   UNK N   1      35.346  13.286  16.890  0.00  0.00     0.003 A 
HETATM    4  C   UNK N   1      35.585  11.933  16.633  0.00  0.00     0.000 A 
HETATM    5  C   UNK N   1      35.612  11.013  17.684  0.00  0.00     0.003 A 
HETATM    6  C   UNK N   1      35.400  11.446  18.997  0.00  0.00     0.036 A 
ENDROOT
BRANCH   1   7
HETATM    7  O   UNK N   1      34.957  13.215  20.512  0.00  0.00    -0.361 OA
HETATM    8  H   UNK N   1      34.095  13.188  20.881  0.00  0.00     0.217 HD
ENDBRANCH   1   7
TORSDOF 1
ENDMDL
MODEL 4
REMARK VINA RESULT:      -3.8     20.133     21.021
REMARK  1 active torsions:
REMARK  status: ('A' for Active; 'I' for Inactive)
REMARK    1  A    between atoms: O_1  and  C_2 
ROOT
HETATM    1  C   UNK N   1      25.647  27.612  -3.942  0.00  0.00     0.065 A 
HETATM    2  C   UNK N   1      25.067  27.413  -5.198  0.00  0.00     0.036 A 
HETATM    3  C   UNK N   1      25.179  26.171  -5.827  0.00  0.00     0.003 A 
HETATM    4  C   UNK N   1      25.870  25.130  -5.199  0.00  0.00     0.000 A 
HETATM    5  C   UNK N   1      26.450  25.330  -3.943  0.00  0.00     0.003 A 
HETATM    6  C   UNK N   1      26.338  26.573  -3.313  0.00  0.00     0.036 A 
ENDROOT
BRANCH   1   7
HETATM    7  O   UNK N   1      25.539  28.805  -3.337  0.00  0.00    -0.361 OA
HETATM    8  H   UNK N   1      24.867  29.405  -3.599  0.00  0.00     0.217 HD
ENDBRANCH   1   7
TORSDOF 1
ENDMDL
MODEL 5
REMARK VINA RESULT:      -3.8      1.748      2.820
REMARK  1 active torsions:
REMARK  status: ('A' for Active; 'I' for Inactive)
REMARK    1  A    between atoms: O_1  and  C_2 
ROOT
HETATM    1  C   UNK N   1      21.696  12.200  11.203  0.00  0.00     0.065 A 
HETATM    2  C   UNK N   1      22.983  11.770  11.537  0.00  0.00     0.036 A 
HETATM    3  C   UNK N   1      24.078  12.199  10.782  0.00  0.00     0.003 A 
HETATM    4  C   UNK N   1      23.883  13.057   9.695  0.00  0.00     0.000 A 
HETATM    5  C   UNK N   1      22.596  13.487   9.362  0.00  0.00     0.003 A 
HETATM    6  C   UNK N   1      21.500  13.058  10.117  0.00  0.00     0.036 A 
ENDROOT
BRANCH   1   7
HETATM    7  O   UNK N   1      20.644  11.789  11.928  0.00  0.00    -0.361 OA
HETATM    8  H   UNK N   1      19.793  11.749  11.537  0.00  0.00     0.217 HD
ENDBRANCH   1   7
TORSDOF 1
ENDMDL
MODEL 6
REMARK VINA RESULT:      -3.7      2.175      2.828
REMARK  1 active torsions:
REMARK  status: ('A' for Active; 'I' for Inactive)
REMARK    1  A    between atoms: O_1  and  C_2 
ROOT
HETATM    1  C   UNK N   1      21.157  13.038  10.338  0.00  0.00     0.065 A 
HETATM    2  C   UNK N   1      22.131  13.541   9.471  0.00  0.00     0.036 A 
HETATM    3  C   UNK N   1      23.467  13.168   9.635  0.00  0.00     0.003 A 
HETATM    4  C   UNK N   1      23.827  12.295  10.665  0.00  0.00     0.000 A 
HETATM    5  C   UNK N   1      22.852  11.792  11.532  0.00  0.00     0.003 A 
HETATM    6  C   UNK N   1      21.515  12.164  11.369  0.00  0.00     0.036 A 
ENDROOT
BRANCH   1   7
HETATM    7  O   UNK N   1      19.873  13.396  10.181  0.00  0.00    -0.361 OA
HETATM    8  H   UNK N   1      19.439  13.240   9.364  0.00  0.00     0.217 HD
ENDBRANCH   1   7
TORSDOF 1
ENDMDL
MODEL 7
REMARK VINA RESULT:      -3.7     19.605     20.591
REMARK  1 active torsions:
REMARK  status: ('A' for Active; 'I' for Inactive)
REMARK    1  A    between atoms: O_1  and  C_2 
ROOT
HETATM    1  C   UNK N   1      26.327  25.496  -3.745  0.00  0.00     0.065 A 
HETATM    2  C   UNK N   1      26.253  26.809  -3.272  0.00  0.00     0.036 A 
HETATM    3  C   UNK N   1      25.649  27.797  -4.054  0.00  0.00     0.003 A 
HETATM    4  C   UNK N   1      25.121  27.470  -5.306  0.00  0.00     0.000 A 
HETATM    5  C   UNK N   1      25.196  26.157  -5.779  0.00  0.00     0.003 A 
HETATM    6  C   UNK N   1      25.800  25.167  -4.997  0.00  0.00     0.036 A 
ENDROOT
BRANCH   1   7
HETATM    7  O   UNK N   1      26.907  24.546  -2.995  0.00  0.00    -0.361 OA
HETATM    8  H   UNK N   1      27.761  24.229  -3.217  0.00  0.00     0.217 HD
ENDBRANCH   1   7
TORSDOF 1
ENDMDL
MODEL 8
REMARK VINA RESULT:      -3.7      8.029      9.050
REMARK  1 active torsions:
REMARK  status: ('A' for Active; 'I' for Inactive)
REMARK    1  A    between atoms: O_1  and  C_2 
ROOT
HETATM    1  C   UNK N   1      28.555  18.033   8.818  0.00  0.00     0.065 A 
HETATM    2  C   UNK N   1      29.745  18.478   9.400  0.00  0.00     0.036 A 
HETATM    3  C   UNK N   1      30.970  18.160   8.809  0.00  0.00     0.003 A 
HETATM    4  C   UNK N   1      31.003  17.400   7.636  0.00  0.00     0.000 A 
HETATM    5  C   UNK N   1      29.813  16.956   7.054  0.00  0.00     0.003 A 
HETATM    6  C   UNK N   1      28.586  17.273   7.645  0.00  0.00     0.036 A 
ENDROOT
BRANCH   1   7
HETATM    7  O   UNK N   1      27.378  18.338   9.385  0.00  0.00    -0.361 OA
HETATM    8  H   UNK N   1      27.354  18.855  10.167  0.00  0.00     0.217 HD
ENDBRANCH   1   7
TORSDOF 1
ENDMDL
MODEL 9
REMARK VINA RESULT:      -3.6     10.520     11.659
REMARK  1 active torsions:
REMARK  status: ('A' for Active; 'I' for Inactive)
REMARK    1  A    between atoms: O_1  and  C_2 
ROOT
HETATM    1  C   UNK N   1      20.668  19.950   1.154  0.00  0.00     0.065 A 
HETATM    2  C   UNK N   1      20.893  20.685   2.321  0.00  0.00     0.036 A 
HETATM    3  C   UNK N   1      20.893  20.040   3.560  0.00  0.00     0.003 A 
HETATM    4  C   UNK N   1      20.668  18.662   3.630  0.00  0.00     0.000 A 
HETATM    5  C   UNK N   1      20.443  17.927   2.462  0.00  0.00     0.003 A 
HETATM    6  C   UNK N   1      20.443  18.572   1.221  0.00  0.00     0.036 A 
ENDROOT
BRANCH   1   7
HETATM    7  O   UNK N   1      20.668  20.569  -0.037  0.00  0.00    -0.361 OA
HETATM    8  H   UNK N   1      21.460  20.947  -0.369  0.00  0.00     0.217 HD
ENDBRANCH   1   7
TORSDOF 1
ENDMDL
