REMARK  24 active torsions:
REMARK  status: ('A' for Active; 'I' for Inactive)
REMARK    1  A    between atoms: C_2  and  C_1 
REMARK    2  A    between atoms: C_6  and  C_1 
REMARK    3  A    between atoms: C_7  and  C_2 
REMARK    4  A    between atoms: C_8  and  C_3 
REMARK    5  A    between atoms: C_9  and  C_3 
REMARK    6  A    between atoms: C_5  and  C_4 
REMARK    7  A    between atoms: C_12  and  C_4 
REMARK    8  A    between atoms: C_14  and  C_5 
REMARK    9  A    between atoms: N_18  and  C_6 
REMARK   10  A    between atoms: N_20  and  C_7 
REMARK   11  A    between atoms: N_20  and  C_8 
REMARK   12  A    between atoms: N_21  and  C_9 
REMARK   13  A    between atoms: C_15  and  C_10 
REMARK   14  A    between atoms: N_23  and  C_10 
REMARK   15  A    between atoms: C_13  and  C_11 
REMARK   16  A    between atoms: S_32  and  C_11 
REMARK   17  A    between atoms: C_17  and  C_12 
REMARK   18  A    between atoms: C_12  and  N_19 
REMARK   19  A    between atoms: C_16  and  C_13 
REMARK   20  A    between atoms: C_13  and  N_25 
REMARK   21  A    between atoms: C_14  and  O_27 
REMARK   22  A    between atoms: O_28  and  C_15 
REMARK   23  A    between atoms: O_29  and  C_16 
REMARK   24  A    between atoms: O_31  and  C_17 
ROOT
HETATM    1  C   UNK N   1      -3.455   1.121   0.316  0.00  0.00     0.135 C 
HETATM    2  N   UNK N   1      -3.375  -0.068  -0.191  0.00  0.00    -0.365 N 
ATOM      3  HN  UNK N   1      -4.023  -0.312  -0.940  1.00  0.00     0.161 HD
ENDROOT
BRANCH   1   4
HETATM    4  C   UNK N   1      -4.559   2.040  -0.141  0.00  0.00     0.166 C 
BRANCH   4   5
HETATM    5  C   UNK N   1      -5.875   1.470   0.382  0.00  0.00     0.104 C 
BRANCH   5   6
HETATM    6  S   UNK N   1      -7.301   2.497  -0.091  0.00  0.00    -0.180 SA
HETATM    7  H   UNK N   1      -7.170   3.803  -0.444  0.00  0.00     0.101 HD
ENDBRANCH   5   6
ENDBRANCH   4   5
BRANCH   4   8
HETATM    8  N   UNK N   1      -4.392   3.395   0.359  0.00  0.00    -0.362 N 
HETATM    9  C   UNK N   1      -3.483   4.203  -0.074  0.00  0.00     0.111 C 
ATOM     10  HN  UNK N   1      -5.025   3.724   1.088  1.00  0.00     0.162 HD
BRANCH   9  11
HETATM   11  C   UNK N   1      -3.456   5.609   0.435  0.00  0.00     0.086 C 
BRANCH  11  12
HETATM   12  C   UNK N   1      -2.056   6.057   0.834  0.00  0.00     0.043 C 
BRANCH  12  13
HETATM   13  C   UNK N   1      -1.461   6.994  -0.219  0.00  0.00     0.173 C 
BRANCH  13  14
HETATM   14  C   UNK N   1      -0.064   7.384   0.184  0.00  0.00     0.163 C 
HETATM   15  O   UNK N   1       0.230   8.556   0.362  0.00  0.00    -0.648 OA
BRANCH  14  16
HETATM   16  O   UNK N   1       0.876   6.433   0.340  0.00  0.00    -0.775 OA
HETATM   17  H   UNK N   1       0.631   5.535   0.448  0.00  0.00     0.167 HD
ENDBRANCH  14  16
ENDBRANCH  13  14
BRANCH  13  18
HETATM   18  N   UNK N   1      -2.300   8.177  -0.359  0.00  0.00    -0.418 N 
HETATM   19  H   UNK N   1      -1.877   9.100  -0.457  0.00  0.00     0.150 HD
HETATM   20  H   UNK N   1      -3.316   8.081  -0.359  0.00  0.00     0.150 HD
ENDBRANCH  13  18
ENDBRANCH  12  13
ENDBRANCH  11  12
ENDBRANCH   9  11
BRANCH   9  21
HETATM   21  O   UNK N   1      -2.614   3.819  -1.035  0.00  0.00    -0.350 OA
HETATM   22  H   UNK N   1      -2.544   3.164  -1.702  0.00  0.00     0.219 HD
ENDBRANCH   9  21
ENDBRANCH   4   8
ENDBRANCH   1   4
BRANCH   1  23
HETATM   23  O   UNK N   1      -2.587   1.526   1.268  0.00  0.00    -0.348 OA
HETATM   24  H   UNK N   1      -2.043   1.145   1.929  0.00  0.00     0.219 HD
ENDBRANCH   1  23
BRANCH   2  25
HETATM   25  C   UNK N   1      -2.425  -1.076   0.239  0.00  0.00     0.205 C 
BRANCH  25  26
HETATM   26  C   UNK N   1      -0.980  -0.670   0.147  0.00  0.00     0.129 C 
HETATM   27  N   UNK N   1      -0.088  -1.471   0.617  0.00  0.00    -0.373 N 
ATOM     28  HN  UNK N   1      -0.388  -2.383   0.961  1.00  0.00     0.161 HD
BRANCH  27  29
HETATM   29  C   UNK N   1       1.318  -1.140   0.682  0.00  0.00     0.123 C 
BRANCH  29  30
HETATM   30  C   UNK N   1       1.930  -0.938  -0.695  0.00  0.00     0.039 C 
BRANCH  30  31
HETATM   31  C   UNK N   1       2.741   0.350  -0.708  0.00  0.00     0.115 C 
BRANCH  31  32
HETATM   32  N   UNK N   1       3.792   0.290   0.295  0.00  0.00    -0.421 N 
HETATM   33  H   UNK N   1       3.860  -0.384   1.057  0.00  0.00     0.153 HD
BRANCH  32  34
HETATM   34  C   UNK N   1       4.725   1.364   0.014  0.00  0.00     0.113 C 
BRANCH  34  35
HETATM   35  C   UNK N   1       6.122   0.784  -0.041  0.00  0.00     0.021 C 
BRANCH  35  36
HETATM   36  C   UNK N   1       7.151   1.891  -0.065  0.00  0.00     0.021 C 
BRANCH  36  37
HETATM   37  C   UNK N   1       8.531   1.268  -0.043  0.00  0.00     0.111 C 
BRANCH  37  38
HETATM   38  N   UNK N   1       9.536   2.312   0.016  0.00  0.00    -0.430 N 
HETATM   39  H   UNK N   1      10.525   2.067   0.057  0.00  0.00     0.149 HD
HETATM   40  H   UNK N   1       9.253   3.293   0.016  0.00  0.00     0.149 HD
ENDBRANCH  37  38
ENDBRANCH  36  37
ENDBRANCH  35  36
ENDBRANCH  34  35
ENDBRANCH  32  34
ENDBRANCH  31  32
ENDBRANCH  30  31
ENDBRANCH  29  30
ENDBRANCH  27  29
BRANCH  26  41
HETATM   41  O   UNK N   1      -0.629   0.528  -0.373  0.00  0.00    -0.348 OA
HETATM   42  H   UNK N   1       0.212   0.732  -0.732  0.00  0.00     0.219 HD
ENDBRANCH  26  41
ENDBRANCH  25  26
ENDBRANCH   2  25
TORSDOF 24
