MODEL 1
REMARK VINA RESULT:      -6.1      0.000      0.000
REMARK  8 active torsions:
REMARK  status: ('A' for Active; 'I' for Inactive)
REMARK    1  A    between atoms: C_7  and  C_4 
REMARK    2  A    between atoms: O_20  and  C_4 
REMARK    3  A    between atoms: C_6  and  N_11 
REMARK    4  A    between atoms: C_8  and  N_14 
REMARK    5  A    between atoms: O_15  and  C_9 
REMARK    6  A    between atoms: P_22  and  O_17 
REMARK    7  A    between atoms: P_22  and  O_18 
REMARK    8  A    between atoms: P_22  and  O_20 
ROOT
HETATM    1  C   UNK N   1      33.246  17.990   7.937  0.00  0.00     0.081 C 
HETATM    2  C   UNK N   1      34.344  17.138   8.503  0.00  0.00     0.109 C 
HETATM    3  C   UNK N   1      33.674  15.772   8.367  0.00  0.00     0.170 C 
HETATM    4  C   UNK N   1      32.050  17.335   8.619  0.00  0.00     0.234 C 
HETATM    5  O   UNK N   1      32.297  15.941   8.632  0.00  0.00    -0.357 OA
ENDROOT
BRANCH   4   6
HETATM    6  N   UNK N   1      30.751  17.656   7.999  0.00  0.00    -0.282 N 
HETATM    7  C   UNK N   1      30.459  17.155   6.766  0.00  0.00     0.109 A 
HETATM    8  C   UNK N   1      29.203  17.347   6.196  0.00  0.00     0.005 A 
HETATM    9  C   UNK N   1      28.900  16.758   4.861  0.00  0.00     0.054 C 
HETATM   10  C   UNK N   1      28.245  18.070   6.906  0.00  0.00     0.151 A 
HETATM   11  N   UNK N   1      28.552  18.575   8.126  0.00  0.00    -0.288 N 
HETATM   12  C   UNK N   1      29.787  18.374   8.688  0.00  0.00     0.330 A 
ATOM     13  HN  UNK N   1      27.851  19.115   8.636  1.00  0.00     0.172 HD
HETATM   14  O   UNK N   1      30.017  18.819   9.799  0.00  0.00    -0.246 OA
BRANCH  10  15
HETATM   15  O   UNK N   1      27.017  18.262   6.394  0.00  0.00    -0.346 OA
HETATM   16  H   UNK N   1      26.395  17.562   6.377  0.00  0.00     0.219 HD
ENDBRANCH  10  15
ENDBRANCH   4   6
BRANCH   2  17
HETATM   17  N   UNK N   1      34.562  17.490   9.905  0.00  0.00    -0.423 N 
HETATM   18  H   UNK N   1      35.138  17.636  10.733  0.00  0.00     0.150 HD
HETATM   19  H   UNK N   1      33.623  17.711  10.236  0.00  0.00     0.150 HD
ENDBRANCH   2  17
BRANCH   3  20
HETATM   20  C   UNK N   1      34.223  14.709   9.312  0.00  0.00     0.214 C 
BRANCH  20  21
HETATM   21  O   UNK N   1      35.589  14.874   9.579  0.00  0.00    -0.294 OA
BRANCH  21  22
HETATM   22  P   UNK N   1      35.882  14.278  11.197  0.00  0.00     0.390 P 
HETATM   23  O   UNK N   1      34.524  14.880  11.658  0.00  0.00    -0.632 OA
BRANCH  22  24
HETATM   24  O   UNK N   1      36.568  15.152  12.531  0.00  0.00    -0.307 OA
HETATM   25  H   UNK N   1      37.519  15.340  12.549  0.00  0.00     0.222 HD
ENDBRANCH  22  24
BRANCH  22  26
HETATM   26  O   UNK N   1      36.727  15.738  10.785  0.00  0.00    -0.307 OA
HETATM   27  H   UNK N   1      37.277  16.212  11.428  0.00  0.00     0.222 HD
ENDBRANCH  22  26
ENDBRANCH  21  22
ENDBRANCH  20  21
ENDBRANCH   3  20
TORSDOF 8
ENDMDL
MODEL 2
REMARK VINA RESULT:      -6.1      3.038      4.876
REMARK  8 active torsions:
REMARK  status: ('A' for Active; 'I' for Inactive)
REMARK    1  A    between atoms: C_7  and  C_4 
REMARK    2  A    between atoms: O_20  and  C_4 
REMARK    3  A    between atoms: C_6  and  N_11 
REMARK    4  A    between atoms: C_8  and  N_14 
REMARK    5  A    between atoms: O_15  and  C_9 
REMARK    6  A    between atoms: P_22  and  O_17 
REMARK    7  A    between atoms: P_22  and  O_18 
REMARK    8  A    between atoms: P_22  and  O_20 
ROOT
HETATM    1  C   UNK N   1      36.264  13.475   9.807  0.00  0.00     0.081 C 
HETATM    2  C   UNK N   1      36.624  12.584  10.960  0.00  0.00     0.109 C 
HETATM    3  C   UNK N   1      35.306  12.649  11.729  0.00  0.00     0.170 C 
HETATM    4  C   UNK N   1      35.548  14.584  10.570  0.00  0.00     0.234 C 
HETATM    5  O   UNK N   1      34.797  13.961  11.595  0.00  0.00    -0.357 OA
ENDROOT
BRANCH   4   6
HETATM    6  N   UNK N   1      34.707  15.452   9.725  0.00  0.00    -0.282 N 
HETATM    7  C   UNK N   1      33.779  14.885   8.903  0.00  0.00     0.109 A 
HETATM    8  C   UNK N   1      32.896  15.674   8.171  0.00  0.00     0.005 A 
HETATM    9  C   UNK N   1      31.868  15.027   7.308  0.00  0.00     0.054 C 
HETATM   10  C   UNK N   1      32.979  17.062   8.287  0.00  0.00     0.151 A 
HETATM   11  N   UNK N   1      33.915  17.614   9.096  0.00  0.00    -0.288 N 
HETATM   12  C   UNK N   1      34.776  16.832   9.823  0.00  0.00     0.330 A 
ATOM     13  HN  UNK N   1      33.980  18.630   9.167  1.00  0.00     0.172 HD
HETATM   14  O   UNK N   1      35.585  17.364  10.563  0.00  0.00    -0.246 OA
BRANCH  10  15
HETATM   15  O   UNK N   1      32.132  17.855   7.607  0.00  0.00    -0.346 OA
HETATM   16  H   UNK N   1      31.642  18.518   8.053  0.00  0.00     0.219 HD
ENDBRANCH  10  15
ENDBRANCH   4   6
BRANCH   2  17
HETATM   17  N   UNK N   1      37.718  13.186  11.719  0.00  0.00    -0.423 N 
HETATM   18  H   UNK N   1      38.552  13.763  11.822  0.00  0.00     0.150 HD
HETATM   19  H   UNK N   1      37.562  12.837  12.665  0.00  0.00     0.150 HD
ENDBRANCH   2  17
BRANCH   3  20
HETATM   20  C   UNK N   1      35.431  12.327  13.213  0.00  0.00     0.214 C 
BRANCH  20  21
HETATM   21  O   UNK N   1      35.346  13.466  14.025  0.00  0.00    -0.294 OA
BRANCH  21  22
HETATM   22  P   UNK N   1      36.675  13.400  15.161  0.00  0.00     0.390 P 
HETATM   23  O   UNK N   1      35.741  13.954  16.275  0.00  0.00    -0.632 OA
BRANCH  22  24
HETATM   24  O   UNK N   1      37.746  14.693  15.602  0.00  0.00    -0.307 OA
HETATM   25  H   UNK N   1      37.932  14.870  16.538  0.00  0.00     0.222 HD
ENDBRANCH  22  24
BRANCH  22  26
HETATM   26  O   UNK N   1      36.692  14.763  14.085  0.00  0.00    -0.307 OA
HETATM   27  H   UNK N   1      36.636  15.675  14.411  0.00  0.00     0.222 HD
ENDBRANCH  22  26
ENDBRANCH  21  22
ENDBRANCH  20  21
ENDBRANCH   3  20
TORSDOF 8
ENDMDL
MODEL 3
REMARK VINA RESULT:      -5.9      2.012      2.369
REMARK  8 active torsions:
REMARK  status: ('A' for Active; 'I' for Inactive)
REMARK    1  A    between atoms: C_7  and  C_4 
REMARK    2  A    between atoms: O_20  and  C_4 
REMARK    3  A    between atoms: C_6  and  N_11 
REMARK    4  A    between atoms: C_8  and  N_14 
REMARK    5  A    between atoms: O_15  and  C_9 
REMARK    6  A    between atoms: P_22  and  O_17 
REMARK    7  A    between atoms: P_22  and  O_18 
REMARK    8  A    between atoms: P_22  and  O_20 
ROOT
HETATM    1  C   UNK N   1      33.875  17.968   7.912  0.00  0.00     0.081 C 
HETATM    2  C   UNK N   1      34.872  17.247   8.772  0.00  0.00     0.109 C 
HETATM    3  C   UNK N   1      34.914  15.919   8.018  0.00  0.00     0.170 C 
HETATM    4  C   UNK N   1      32.866  16.843   7.711  0.00  0.00     0.234 C 
HETATM    5  O   UNK N   1      33.608  15.647   7.554  0.00  0.00    -0.357 OA
ENDROOT
BRANCH   4   6
HETATM    6  N   UNK N   1      31.933  17.062   6.590  0.00  0.00    -0.282 N 
HETATM    7  C   UNK N   1      32.410  17.038   5.313  0.00  0.00     0.109 A 
HETATM    8  C   UNK N   1      31.546  17.133   4.225  0.00  0.00     0.005 A 
HETATM    9  C   UNK N   1      32.090  17.068   2.840  0.00  0.00     0.054 C 
HETATM   10  C   UNK N   1      30.177  17.262   4.464  0.00  0.00     0.151 A 
HETATM   11  N   UNK N   1      29.717  17.299   5.738  0.00  0.00    -0.288 N 
HETATM   12  C   UNK N   1      30.572  17.194   6.805  0.00  0.00     0.330 A 
ATOM     13  HN  UNK N   1      28.716  17.406   5.906  1.00  0.00     0.172 HD
HETATM   14  O   UNK N   1      30.118  17.202   7.936  0.00  0.00    -0.246 OA
BRANCH  10  15
HETATM   15  O   UNK N   1      29.310  17.340   3.438  0.00  0.00    -0.346 OA
HETATM   16  H   UNK N   1      28.577  17.921   3.481  0.00  0.00     0.219 HD
ENDBRANCH  10  15
ENDBRANCH   4   6
BRANCH   2  17
HETATM   17  N   UNK N   1      34.328  17.082  10.118  0.00  0.00    -0.423 N 
HETATM   18  H   UNK N   1      34.219  17.336  11.100  0.00  0.00     0.150 HD
HETATM   19  H   UNK N   1      33.727  16.263  10.025  0.00  0.00     0.150 HD
ENDBRANCH   2  17
BRANCH   3  20
HETATM   20  C   UNK N   1      35.385  14.738   8.858  0.00  0.00     0.214 C 
BRANCH  20  21
HETATM   21  O   UNK N   1      34.381  14.233   9.695  0.00  0.00    -0.294 OA
BRANCH  21  22
HETATM   22  P   UNK N   1      35.165  13.560  11.107  0.00  0.00     0.390 P 
HETATM   23  O   UNK N   1      34.553  12.169  10.776  0.00  0.00    -0.632 OA
BRANCH  22  24
HETATM   24  O   UNK N   1      34.477  13.338  12.686  0.00  0.00    -0.307 OA
HETATM   25  H   UNK N   1      33.993  12.523  12.893  0.00  0.00     0.222 HD
ENDBRANCH  22  24
BRANCH  22  26
HETATM   26  O   UNK N   1      33.710  14.454  11.426  0.00  0.00    -0.307 OA
HETATM   27  H   UNK N   1      33.615  15.016  12.211  0.00  0.00     0.222 HD
ENDBRANCH  22  26
ENDBRANCH  21  22
ENDBRANCH  20  21
ENDBRANCH   3  20
TORSDOF 8
ENDMDL
MODEL 4
REMARK VINA RESULT:      -5.8      3.568      7.229
REMARK  8 active torsions:
REMARK  status: ('A' for Active; 'I' for Inactive)
REMARK    1  A    between atoms: C_7  and  C_4 
REMARK    2  A    between atoms: O_20  and  C_4 
REMARK    3  A    between atoms: C_6  and  N_11 
REMARK    4  A    between atoms: C_8  and  N_14 
REMARK    5  A    between atoms: O_15  and  C_9 
REMARK    6  A    between atoms: P_22  and  O_17 
REMARK    7  A    between atoms: P_22  and  O_18 
REMARK    8  A    between atoms: P_22  and  O_20 
ROOT
HETATM    1  C   UNK N   1      32.428  15.220   9.227  0.00  0.00     0.081 C 
HETATM    2  C   UNK N   1      32.143  15.461   7.773  0.00  0.00     0.109 C 
HETATM    3  C   UNK N   1      33.507  15.079   7.201  0.00  0.00     0.170 C 
HETATM    4  C   UNK N   1      33.815  15.846   9.313  0.00  0.00     0.234 C 
HETATM    5  O   UNK N   1      34.493  15.512   8.116  0.00  0.00    -0.357 OA
ENDROOT
BRANCH   4   6
HETATM    6  N   UNK N   1      34.583  15.450  10.508  0.00  0.00    -0.282 N 
HETATM    7  C   UNK N   1      34.350  14.233  11.076  0.00  0.00     0.109 A 
HETATM    8  C   UNK N   1      35.128  13.779  12.138  0.00  0.00     0.005 A 
HETATM    9  C   UNK N   1      34.874  12.430  12.717  0.00  0.00     0.054 C 
HETATM   10  C   UNK N   1      36.151  14.597  12.619  0.00  0.00     0.151 A 
HETATM   11  N   UNK N   1      36.364  15.810  12.056  0.00  0.00    -0.288 N 
HETATM   12  C   UNK N   1      35.601  16.248  11.003  0.00  0.00     0.330 A 
ATOM     13  HN  UNK N   1      37.105  16.410  12.420  1.00  0.00     0.172 HD
HETATM   14  O   UNK N   1      35.841  17.333  10.502  0.00  0.00    -0.246 OA
BRANCH  10  15
HETATM   15  O   UNK N   1      36.933  14.185  13.634  0.00  0.00    -0.346 OA
HETATM   16  H   UNK N   1      37.125  14.760  14.347  0.00  0.00     0.219 HD
ENDBRANCH  10  15
ENDBRANCH   4   6
BRANCH   2  17
HETATM   17  N   UNK N   1      31.851  16.877   7.562  0.00  0.00    -0.423 N 
HETATM   18  H   UNK N   1      31.367  17.753   7.762  0.00  0.00     0.150 HD
HETATM   19  H   UNK N   1      32.471  17.128   6.791  0.00  0.00     0.150 HD
ENDBRANCH   2  17
BRANCH   3  20
HETATM   20  C   UNK N   1      33.808  15.694   5.839  0.00  0.00     0.214 C 
BRANCH  20  21
HETATM   21  O   UNK N   1      32.740  15.571   4.940  0.00  0.00    -0.294 OA
BRANCH  21  22
HETATM   22  P   UNK N   1      32.757  16.984   3.909  0.00  0.00     0.390 P 
HETATM   23  O   UNK N   1      33.364  17.818   5.073  0.00  0.00    -0.632 OA
BRANCH  22  24
HETATM   24  O   UNK N   1      31.556  18.234   3.818  0.00  0.00    -0.307 OA
HETATM   25  H   UNK N   1      30.733  18.080   3.328  0.00  0.00     0.222 HD
ENDBRANCH  22  24
BRANCH  22  26
HETATM   26  O   UNK N   1      31.212  16.594   4.600  0.00  0.00    -0.307 OA
HETATM   27  H   UNK N   1      31.113  15.911   5.282  0.00  0.00     0.222 HD
ENDBRANCH  22  26
ENDBRANCH  21  22
ENDBRANCH  20  21
ENDBRANCH   3  20
TORSDOF 8
ENDMDL
MODEL 5
REMARK VINA RESULT:      -5.7     11.131     13.325
REMARK  8 active torsions:
REMARK  status: ('A' for Active; 'I' for Inactive)
REMARK    1  A    between atoms: C_7  and  C_4 
REMARK    2  A    between atoms: O_20  and  C_4 
REMARK    3  A    between atoms: C_6  and  N_11 
REMARK    4  A    between atoms: C_8  and  N_14 
REMARK    5  A    between atoms: O_15  and  C_9 
REMARK    6  A    between atoms: P_22  and  O_17 
REMARK    7  A    between atoms: P_22  and  O_18 
REMARK    8  A    between atoms: P_22  and  O_20 
ROOT
HETATM    1  C   UNK N   1      20.709  16.332   8.379  0.00  0.00     0.081 C 
HETATM    2  C   UNK N   1      20.337  16.892   7.037  0.00  0.00     0.109 C 
HETATM    3  C   UNK N   1      19.904  15.597   6.353  0.00  0.00     0.170 C 
HETATM    4  C   UNK N   1      21.458  15.084   7.924  0.00  0.00     0.234 C 
HETATM    5  O   UNK N   1      20.757  14.566   6.808  0.00  0.00    -0.357 OA
ENDROOT
BRANCH   4   6
HETATM    6  N   UNK N   1      21.638  14.069   8.979  0.00  0.00    -0.282 N 
HETATM    7  C   UNK N   1      22.884  13.573   9.220  0.00  0.00     0.109 A 
HETATM    8  C   UNK N   1      23.111  12.695  10.277  0.00  0.00     0.005 A 
HETATM    9  C   UNK N   1      24.490  12.196  10.540  0.00  0.00     0.054 C 
HETATM   10  C   UNK N   1      22.036  12.324  11.085  0.00  0.00     0.151 A 
HETATM   11  N   UNK N   1      20.799  12.813  10.826  0.00  0.00    -0.288 N 
HETATM   12  C   UNK N   1      20.583  13.685   9.790  0.00  0.00     0.330 A 
ATOM     13  HN  UNK N   1      20.014  12.527  11.413  1.00  0.00     0.172 HD
HETATM   14  O   UNK N   1      19.462  14.127   9.606  0.00  0.00    -0.246 OA
BRANCH  10  15
HETATM   15  O   UNK N   1      22.221  11.490  12.124  0.00  0.00    -0.346 OA
HETATM   16  H   UNK N   1      21.996  11.759  12.993  0.00  0.00     0.219 HD
ENDBRANCH  10  15
ENDBRANCH   4   6
BRANCH   2  17
HETATM   17  N   UNK N   1      21.522  17.464   6.402  0.00  0.00    -0.423 N 
HETATM   18  H   UNK N   1      22.040  18.204   5.928  0.00  0.00     0.150 HD
HETATM   19  H   UNK N   1      22.205  16.710   6.466  0.00  0.00     0.150 HD
ENDBRANCH   2  17
BRANCH   3  20
HETATM   20  C   UNK N   1      19.969  15.642   4.831  0.00  0.00     0.214 C 
BRANCH  20  21
HETATM   21  O   UNK N   1      19.518  16.860   4.304  0.00  0.00    -0.294 OA
BRANCH  21  22
HETATM   22  P   UNK N   1      20.304  17.086   2.758  0.00  0.00     0.390 P 
HETATM   23  O   UNK N   1      21.257  18.132   3.402  0.00  0.00    -0.632 OA
BRANCH  22  24
HETATM   24  O   UNK N   1      19.970  18.315   1.578  0.00  0.00    -0.307 OA
HETATM   25  H   UNK N   1      19.859  18.074   0.646  0.00  0.00     0.222 HD
ENDBRANCH  22  24
BRANCH  22  26
HETATM   26  O   UNK N   1      18.789  17.914   2.943  0.00  0.00    -0.307 OA
HETATM   27  H   UNK N   1      18.741  18.873   3.076  0.00  0.00     0.222 HD
ENDBRANCH  22  26
ENDBRANCH  21  22
ENDBRANCH  20  21
ENDBRANCH   3  20
TORSDOF 8
ENDMDL
MODEL 6
REMARK VINA RESULT:      -5.5      6.374      9.835
REMARK  8 active torsions:
REMARK  status: ('A' for Active; 'I' for Inactive)
REMARK    1  A    between atoms: C_7  and  C_4 
REMARK    2  A    between atoms: O_20  and  C_4 
REMARK    3  A    between atoms: C_6  and  N_11 
REMARK    4  A    between atoms: C_8  and  N_14 
REMARK    5  A    between atoms: O_15  and  C_9 
REMARK    6  A    between atoms: P_22  and  O_17 
REMARK    7  A    between atoms: P_22  and  O_18 
REMARK    8  A    between atoms: P_22  and  O_20 
ROOT
HETATM    1  C   UNK N   1      36.901  12.221  14.122  0.00  0.00     0.081 C 
HETATM    2  C   UNK N   1      36.643  12.618  12.697  0.00  0.00     0.109 C 
HETATM    3  C   UNK N   1      35.834  13.888  12.951  0.00  0.00     0.170 C 
HETATM    4  C   UNK N   1      35.517  12.486  14.705  0.00  0.00     0.234 C 
HETATM    5  O   UNK N   1      35.031  13.666  14.091  0.00  0.00    -0.357 OA
ENDROOT
BRANCH   4   6
HETATM    6  N   UNK N   1      35.490  12.581  16.176  0.00  0.00    -0.282 N 
HETATM    7  C   UNK N   1      35.493  13.810  16.764  0.00  0.00     0.109 A 
HETATM    8  C   UNK N   1      35.359  13.942  18.144  0.00  0.00     0.005 A 
HETATM    9  C   UNK N   1      35.331  15.300  18.757  0.00  0.00     0.054 C 
HETATM   10  C   UNK N   1      35.229  12.791  18.920  0.00  0.00     0.151 A 
HETATM   11  N   UNK N   1      35.241  11.573  18.325  0.00  0.00    -0.288 N 
HETATM   12  C   UNK N   1      35.362  11.449  16.964  0.00  0.00     0.330 A 
ATOM     13  HN  UNK N   1      35.158  10.734  18.900  1.00  0.00     0.172 HD
HETATM   14  O   UNK N   1      35.340  10.339  16.462  0.00  0.00    -0.246 OA
BRANCH  10  15
HETATM   15  O   UNK N   1      35.082  12.880  20.254  0.00  0.00    -0.346 OA
HETATM   16  H   UNK N   1      34.861  12.123  20.759  0.00  0.00     0.219 HD
ENDBRANCH  10  15
ENDBRANCH   4   6
BRANCH   2  17
HETATM   17  N   UNK N   1      35.836  11.590  12.043  0.00  0.00    -0.423 N 
HETATM   18  H   UNK N   1      35.679  10.837  11.374  0.00  0.00     0.150 HD
HETATM   19  H   UNK N   1      34.934  11.672  12.512  0.00  0.00     0.150 HD
ENDBRANCH   2  17
BRANCH   3  20
HETATM   20  C   UNK N   1      34.930  14.295  11.793  0.00  0.00     0.214 C 
BRANCH  20  21
HETATM   21  O   UNK N   1      35.565  14.200  10.548  0.00  0.00    -0.294 OA
BRANCH  21  22
HETATM   22  P   UNK N   1      35.386  15.745   9.748  0.00  0.00     0.390 P 
HETATM   23  O   UNK N   1      36.416  16.367  10.732  0.00  0.00    -0.632 OA
BRANCH  22  24
HETATM   24  O   UNK N   1      34.349  17.057  10.215  0.00  0.00    -0.307 OA
HETATM   25  H   UNK N   1      34.577  17.966   9.965  0.00  0.00     0.222 HD
ENDBRANCH  22  24
BRANCH  22  26
HETATM   26  O   UNK N   1      34.118  15.341  10.864  0.00  0.00    -0.307 OA
HETATM   27  H   UNK N   1      33.214  15.152  10.567  0.00  0.00     0.222 HD
ENDBRANCH  22  26
ENDBRANCH  21  22
ENDBRANCH  20  21
ENDBRANCH   3  20
TORSDOF 8
ENDMDL
MODEL 7
REMARK VINA RESULT:      -5.5      7.247     10.393
REMARK  8 active torsions:
REMARK  status: ('A' for Active; 'I' for Inactive)
REMARK    1  A    between atoms: C_7  and  C_4 
REMARK    2  A    between atoms: O_20  and  C_4 
REMARK    3  A    between atoms: C_6  and  N_11 
REMARK    4  A    between atoms: C_8  and  N_14 
REMARK    5  A    between atoms: O_15  and  C_9 
REMARK    6  A    between atoms: P_22  and  O_17 
REMARK    7  A    between atoms: P_22  and  O_18 
REMARK    8  A    between atoms: P_22  and  O_20 
ROOT
HETATM    1  C   UNK N   1      34.856   9.987  14.574  0.00  0.00     0.081 C 
HETATM    2  C   UNK N   1      35.067  10.167  13.099  0.00  0.00     0.109 C 
HETATM    3  C   UNK N   1      36.118  11.274  13.146  0.00  0.00     0.170 C 
HETATM    4  C   UNK N   1      34.821  11.452  14.997  0.00  0.00     0.234 C 
HETATM    5  O   UNK N   1      35.796  12.127  14.224  0.00  0.00    -0.357 OA
ENDROOT
BRANCH   4   6
HETATM    6  N   UNK N   1      35.019  11.667  16.442  0.00  0.00    -0.282 N 
HETATM    7  C   UNK N   1      35.624  10.696  17.184  0.00  0.00     0.109 A 
HETATM    8  C   UNK N   1      35.925  10.906  18.526  0.00  0.00     0.005 A 
HETATM    9  C   UNK N   1      36.618   9.841  19.304  0.00  0.00     0.054 C 
HETATM   10  C   UNK N   1      35.591  12.130  19.107  0.00  0.00     0.151 A 
HETATM   11  N   UNK N   1      34.978  13.082  18.364  0.00  0.00    -0.288 N 
HETATM   12  C   UNK N   1      34.692  12.874  17.038  0.00  0.00     0.330 A 
ATOM     13  HN  UNK N   1      34.724  13.971  18.797  1.00  0.00     0.172 HD
HETATM   14  O   UNK N   1      34.167  13.765  16.394  0.00  0.00    -0.246 OA
BRANCH  10  15
HETATM   15  O   UNK N   1      35.881  12.375  20.398  0.00  0.00    -0.346 OA
HETATM   16  H   UNK N   1      35.590  13.165  20.808  0.00  0.00     0.219 HD
ENDBRANCH  10  15
ENDBRANCH   4   6
BRANCH   2  17
HETATM   17  N   UNK N   1      33.827  10.632  12.481  0.00  0.00    -0.423 N 
HETATM   18  H   UNK N   1      33.276  11.040  11.726  0.00  0.00     0.150 HD
HETATM   19  H   UNK N   1      33.128  10.449  13.202  0.00  0.00     0.150 HD
ENDBRANCH   2  17
BRANCH   3  20
HETATM   20  C   UNK N   1      36.202  12.111  11.874  0.00  0.00     0.214 C 
BRANCH  20  21
HETATM   21  O   UNK N   1      36.139  13.488  12.126  0.00  0.00    -0.294 OA
BRANCH  21  22
HETATM   22  P   UNK N   1      35.070  14.191  10.933  0.00  0.00     0.390 P 
HETATM   23  O   UNK N   1      35.605  15.605  11.296  0.00  0.00    -0.632 OA
BRANCH  22  24
HETATM   24  O   UNK N   1      33.493  14.866  11.202  0.00  0.00    -0.307 OA
HETATM   25  H   UNK N   1      32.720  14.479  10.763  0.00  0.00     0.222 HD
ENDBRANCH  22  24
BRANCH  22  26
HETATM   26  O   UNK N   1      34.317  13.765  12.439  0.00  0.00    -0.307 OA
HETATM   27  H   UNK N   1      33.954  12.880  12.599  0.00  0.00     0.222 HD
ENDBRANCH  22  26
ENDBRANCH  21  22
ENDBRANCH  20  21
ENDBRANCH   3  20
TORSDOF 8
ENDMDL
MODEL 8
REMARK VINA RESULT:      -5.4      2.606      4.040
REMARK  8 active torsions:
REMARK  status: ('A' for Active; 'I' for Inactive)
REMARK    1  A    between atoms: C_7  and  C_4 
REMARK    2  A    between atoms: O_20  and  C_4 
REMARK    3  A    between atoms: C_6  and  N_11 
REMARK    4  A    between atoms: C_8  and  N_14 
REMARK    5  A    between atoms: O_15  and  C_9 
REMARK    6  A    between atoms: P_22  and  O_17 
REMARK    7  A    between atoms: P_22  and  O_18 
REMARK    8  A    between atoms: P_22  and  O_20 
ROOT
HETATM    1  C   UNK N   1      28.531  18.537   8.883  0.00  0.00     0.081 C 
HETATM    2  C   UNK N   1      29.805  18.205   9.603  0.00  0.00     0.109 C 
HETATM    3  C   UNK N   1      30.701  17.957   8.392  0.00  0.00     0.170 C 
HETATM    4  C   UNK N   1      28.568  17.456   7.808  0.00  0.00     0.234 C 
HETATM    5  O   UNK N   1      29.917  17.328   7.399  0.00  0.00    -0.357 OA
ENDROOT
BRANCH   4   6
HETATM    6  N   UNK N   1      27.670  17.709   6.666  0.00  0.00    -0.282 N 
HETATM    7  C   UNK N   1      27.643  18.949   6.101  0.00  0.00     0.109 A 
HETATM    8  C   UNK N   1      26.890  19.197   4.957  0.00  0.00     0.005 A 
HETATM    9  C   UNK N   1      26.908  20.553   4.340  0.00  0.00     0.054 C 
HETATM   10  C   UNK N   1      26.153  18.153   4.398  0.00  0.00     0.151 A 
HETATM   11  N   UNK N   1      26.175  16.928   4.977  0.00  0.00    -0.288 N 
HETATM   12  C   UNK N   1      26.928  16.687   6.098  0.00  0.00     0.330 A 
ATOM     13  HN  UNK N   1      25.624  16.172   4.571  1.00  0.00     0.172 HD
HETATM   14  O   UNK N   1      26.946  15.565   6.574  0.00  0.00    -0.246 OA
BRANCH  10  15
HETATM   15  O   UNK N   1      25.426  18.352   3.284  0.00  0.00    -0.346 OA
HETATM   16  H   UNK N   1      25.127  17.623   2.776  0.00  0.00     0.219 HD
ENDBRANCH  10  15
ENDBRANCH   4   6
BRANCH   2  17
HETATM   17  N   UNK N   1      29.618  16.988  10.390  0.00  0.00    -0.423 N 
HETATM   18  H   UNK N   1      29.573  15.977  10.516  0.00  0.00     0.150 HD
HETATM   19  H   UNK N   1      29.428  17.346  11.326  0.00  0.00     0.150 HD
ENDBRANCH   2  17
BRANCH   3  20
HETATM   20  C   UNK N   1      31.913  17.079   8.680  0.00  0.00     0.214 C 
BRANCH  20  21
HETATM   21  O   UNK N   1      31.627  15.710   8.584  0.00  0.00    -0.294 OA
BRANCH  21  22
HETATM   22  P   UNK N   1      33.091  14.839   8.980  0.00  0.00     0.390 P 
HETATM   23  O   UNK N   1      32.407  13.509   8.555  0.00  0.00    -0.632 OA
BRANCH  22  24
HETATM   24  O   UNK N   1      33.458  14.019  10.466  0.00  0.00    -0.307 OA
HETATM   25  H   UNK N   1      34.011  14.453  11.134  0.00  0.00     0.222 HD
ENDBRANCH  22  24
BRANCH  22  26
HETATM   26  O   UNK N   1      32.095  15.262  10.338  0.00  0.00    -0.307 OA
HETATM   27  H   UNK N   1      31.964  14.659  11.086  0.00  0.00     0.222 HD
ENDBRANCH  22  26
ENDBRANCH  21  22
ENDBRANCH  20  21
ENDBRANCH   3  20
TORSDOF 8
ENDMDL
MODEL 9
REMARK VINA RESULT:      -5.3      4.210      8.821
REMARK  8 active torsions:
REMARK  status: ('A' for Active; 'I' for Inactive)
REMARK    1  A    between atoms: C_7  and  C_4 
REMARK    2  A    between atoms: O_20  and  C_4 
REMARK    3  A    between atoms: C_6  and  N_11 
REMARK    4  A    between atoms: C_8  and  N_14 
REMARK    5  A    between atoms: O_15  and  C_9 
REMARK    6  A    between atoms: P_22  and  O_17 
REMARK    7  A    between atoms: P_22  and  O_18 
REMARK    8  A    between atoms: P_22  and  O_20 
ROOT
HETATM    1  C   UNK N   1      28.065  16.507   5.602  0.00  0.00     0.081 C 
HETATM    2  C   UNK N   1      27.088  17.215   4.708  0.00  0.00     0.109 C 
HETATM    3  C   UNK N   1      27.919  18.456   4.388  0.00  0.00     0.170 C 
HETATM    4  C   UNK N   1      28.542  17.694   6.432  0.00  0.00     0.234 C 
HETATM    5  O   UNK N   1      28.645  18.798   5.551  0.00  0.00    -0.357 OA
ENDROOT
BRANCH   4   6
HETATM    6  N   UNK N   1      29.801  17.454   7.160  0.00  0.00    -0.282 N 
HETATM    7  C   UNK N   1      30.967  17.355   6.461  0.00  0.00     0.109 A 
HETATM    8  C   UNK N   1      32.188  17.236   7.119  0.00  0.00     0.005 A 
HETATM    9  C   UNK N   1      33.450  17.166   6.330  0.00  0.00     0.054 C 
HETATM   10  C   UNK N   1      32.200  17.212   8.514  0.00  0.00     0.151 A 
HETATM   11  N   UNK N   1      31.033  17.296   9.198  0.00  0.00    -0.288 N 
HETATM   12  C   UNK N   1      29.834  17.424   8.545  0.00  0.00     0.330 A 
ATOM     13  HN  UNK N   1      31.047  17.265  10.219  1.00  0.00     0.172 HD
HETATM   14  O   UNK N   1      28.808  17.526   9.194  0.00  0.00    -0.246 OA
BRANCH  10  15
HETATM   15  O   UNK N   1      33.362  17.113   9.185  0.00  0.00    -0.346 OA
HETATM   16  H   UNK N   1      33.415  16.602   9.968  0.00  0.00     0.219 HD
ENDBRANCH  10  15
ENDBRANCH   4   6
BRANCH   2  17
HETATM   17  N   UNK N   1      25.888  17.555   5.470  0.00  0.00    -0.423 N 
HETATM   18  H   UNK N   1      25.092  17.340   6.070  0.00  0.00     0.150 HD
HETATM   19  H   UNK N   1      25.795  18.560   5.317  0.00  0.00     0.150 HD
ENDBRANCH   2  17
BRANCH   3  20
HETATM   20  C   UNK N   1      27.097  19.665   3.958  0.00  0.00     0.214 C 
BRANCH  20  21
HETATM   21  O   UNK N   1      26.011  19.320   3.142  0.00  0.00    -0.294 OA
BRANCH  21  22
HETATM   22  P   UNK N   1      24.655  20.314   3.626  0.00  0.00     0.390 P 
HETATM   23  O   UNK N   1      23.725  19.070   3.551  0.00  0.00    -0.632 OA
BRANCH  22  24
HETATM   24  O   UNK N   1      23.491  21.080   2.591  0.00  0.00    -0.307 OA
HETATM   25  H   UNK N   1      22.958  20.546   1.983  0.00  0.00     0.222 HD
ENDBRANCH  22  24
BRANCH  22  26
HETATM   26  O   UNK N   1      25.107  20.446   1.954  0.00  0.00    -0.307 OA
HETATM   27  H   UNK N   1      24.456  20.369   1.240  0.00  0.00     0.222 HD
ENDBRANCH  22  26
ENDBRANCH  21  22
ENDBRANCH  20  21
ENDBRANCH   3  20
TORSDOF 8
ENDMDL
