REMARK  15 active torsions:
REMARK  status: ('A' for Active; 'I' for Inactive)
REMARK    1  A    between atoms: C_20  and  C_15 
REMARK    2  A    between atoms: C_23  and  C_15 
REMARK    3  A    between atoms: C_22  and  C_16 
REMARK    4  A    between atoms: C_25  and  C_16 
REMARK    5  A    between atoms: C_27  and  C_21 
REMARK    6  A    between atoms: C_28  and  C_22 
REMARK    7  A    between atoms: C_22  and  N_35 
REMARK    8  A    between atoms: C_29  and  C_23 
REMARK    9  A    between atoms: C_23  and  N_33 
REMARK   10  A    between atoms: O_43  and  C_24 
REMARK   11  A    between atoms: O_38  and  C_25 
REMARK   12  A    between atoms: S_44  and  C_26 
REMARK   13  A    between atoms: N_30  and  C_27 
REMARK   14  A    between atoms: C_28  and  O_39 
REMARK       I    between atoms: N_36  and  C_29 
REMARK   15  A    between atoms: S_44  and  N_35 
ROOT
HETATM    1  C   UNK N   1       6.461  -0.896  -1.224  0.00  0.00     0.136 C 
HETATM    2  N   UNK N   1       6.439  -2.160  -0.928  0.00  0.00    -0.359 N 
ATOM      3  HN  UNK N   1       6.572  -2.810  -1.703  1.00  0.00     0.162 HD
ENDROOT
BRANCH   1   4
HETATM    4  C   UNK N   1       6.056   0.195  -0.248  0.00  0.00     0.177 C 
BRANCH   4   5
HETATM    5  C   UNK N   1       5.257   1.314  -0.941  0.00  0.00     0.144 C 
BRANCH   5   6
HETATM    6  C   UNK N   1       3.886   0.940  -1.397  0.00  0.00     0.141 C 
HETATM    7  O   UNK N   1       3.720   0.014  -2.174  0.00  0.00    -0.650 OA
BRANCH   6   8
HETATM    8  O   UNK N   1       2.834   1.669  -0.985  0.00  0.00    -0.776 OA
HETATM    9  H   UNK N   1       2.907   2.557  -0.697  0.00  0.00     0.167 HD
ENDBRANCH   6   8
ENDBRANCH   5   6
ENDBRANCH   4   5
BRANCH   4  10
HETATM   10  N   UNK N   1       7.166   0.686   0.601  0.00  0.00    -0.302 N 
HETATM   11  H   UNK N   1       7.138   0.481   1.600  0.00  0.00     0.173 HD
BRANCH  10  12
HETATM   12  S   UNK N   1       8.565   1.626  -0.039  0.00  0.00     0.260 S 
HETATM   13  O   UNK N   1       7.606   2.286  -1.032  0.00  0.00    -0.200 OA
HETATM   14  O   UNK N   1       8.596   2.192   1.389  0.00  0.00    -0.200 OA
BRANCH  12  15
HETATM   15  C   UNK N   1       8.123   3.471   0.172  0.00  0.00     0.092 A 
HETATM   16  C   UNK N   1       6.891   3.973   0.765  0.00  0.00    -0.035 A 
HETATM   17  C   UNK N   1       5.860   3.083   1.368  0.00  0.00     0.050 C 
HETATM   18  C   UNK N   1       6.624   5.331   0.790  0.00  0.00     0.045 A 
HETATM   19  C   UNK N   1       7.505   6.267   0.270  0.00  0.00     0.075 A 
HETATM   20  C   UNK N   1       8.745   5.825  -0.269  0.00  0.00    -0.021 A 
HETATM   21  C   UNK N   1       9.751   6.796  -0.807  0.00  0.00     0.052 C 
HETATM   22  C   UNK N   1       9.047   4.443  -0.314  0.00  0.00    -0.029 A 
HETATM   23  C   UNK N   1      10.349   3.988  -0.903  0.00  0.00     0.050 C 
BRANCH  19  24
HETATM   24  O   UNK N   1       7.100   7.566   0.314  0.00  0.00    -0.355 OA
HETATM   25  C   UNK N   1       7.706   8.637  -0.298  0.00  0.00     0.210 C 
ENDBRANCH  19  24
ENDBRANCH  12  15
ENDBRANCH  10  12
ENDBRANCH   4  10
ENDBRANCH   1   4
BRANCH   1  26
HETATM   26  O   UNK N   1       6.766  -0.542  -2.488  0.00  0.00    -0.348 OA
HETATM   27  H   UNK N   1       7.086  -0.602  -3.367  0.00  0.00     0.219 HD
ENDBRANCH   1  26
BRANCH   2  28
HETATM   28  C   UNK N   1       6.244  -2.753   0.389  0.00  0.00     0.180 C 
BRANCH  28  29
HETATM   29  C   UNK N   1       4.885  -3.471   0.517  0.00  0.00     0.073 C 
BRANCH  29  30
HETATM   30  C   UNK N   1       3.691  -2.565   0.445  0.00  0.00    -0.056 A 
HETATM   31  C   UNK N   1       3.470  -1.589   1.426  0.00  0.00     0.008 A 
HETATM   32  C   UNK N   1       2.374  -0.727   1.328  0.00  0.00     0.016 A 
HETATM   33  C   UNK N   1       1.469  -0.849   0.262  0.00  0.00     0.007 A 
HETATM   34  C   UNK N   1       1.669  -1.857  -0.693  0.00  0.00     0.016 A 
HETATM   35  C   UNK N   1       2.776  -2.709  -0.603  0.00  0.00     0.008 A 
BRANCH  33  36
HETATM   36  C   UNK N   1       0.334   0.092   0.124  0.00  0.00     0.102 C 
HETATM   37  N   UNK N   1       0.196   1.067   0.947  0.00  0.00    -0.385 N 
HETATM   38  H   UNK N   1       0.791   1.533   1.578  0.00  0.00     0.157 HD
ATOM     39  HN  UNK N   1      -0.751   1.448   0.947  1.00  0.00     0.157 HD
BRANCH  36  40
HETATM   40  N   UNK N   1      -0.568  -0.034  -0.957  0.00  0.00    -0.385 N 
HETATM   41  H   UNK N   1      -0.959   0.466  -1.710  0.00  0.00     0.157 HD
HETATM   42  H   UNK N   1      -0.938  -0.947  -0.957  0.00  0.00     0.157 HD
ENDBRANCH  36  40
ENDBRANCH  33  36
ENDBRANCH  29  30
ENDBRANCH  28  29
BRANCH  28  43
HETATM   43  C   UNK N   1       7.386  -3.731   0.588  0.00  0.00     0.242 C 
HETATM   44  N   UNK N   1       7.547  -4.841  -0.200  0.00  0.00    -0.350 N 
HETATM   45  C   UNK N   1       8.705  -5.695  -0.042  0.00  0.00     0.126 C 
HETATM   46  C   UNK N   1       6.566  -5.223  -1.199  0.00  0.00     0.126 C 
HETATM   47  C   UNK N   1       8.258  -7.124   0.252  0.00  0.00     0.020 C 
HETATM   48  C   UNK N   1       7.261  -7.595  -0.807  0.00  0.00     0.003 C 
HETATM   49  C   UNK N   1       6.072  -6.636  -0.888  0.00  0.00     0.020 C 
HETATM   50  O   UNK N   1       8.214  -3.487   1.459  0.00  0.00    -0.271 OA
ENDBRANCH  28  43
ENDBRANCH   2  28
TORSDOF 15
