MODEL 1
REMARK VINA RESULT:      -7.4      0.000      0.000
REMARK  10 active torsions:
REMARK  status: ('A' for Active; 'I' for Inactive)
REMARK    1  A    between atoms: C_8  and  C_5 
REMARK    2  A    between atoms: O_25  and  C_5 
REMARK    3  A    between atoms: C_8  and  C_6 
REMARK    4  A    between atoms: O_28  and  C_6 
REMARK    5  A    between atoms: C_8  and  O_26 
REMARK    6  A    between atoms: C_16  and  C_9 
REMARK    7  A    between atoms: N_22  and  C_12 
REMARK    8  A    between atoms: N_22  and  C_15 
REMARK    9  A    between atoms: O_27  and  C_16 
REMARK   10  A    between atoms: N_23  and  O_28 
ROOT
HETATM    1  C   UNK N   1      35.567  14.476   8.581  0.00  0.00     0.040 A 
HETATM    2  C   UNK N   1      35.623  14.809   9.938  0.00  0.00     0.048 A 
HETATM    3  C   UNK N   1      36.619  13.784   7.980  0.00  0.00     0.053 A 
HETATM    4  C   UNK N   1      37.722  13.390   8.746  0.00  0.00     0.174 A 
HETATM    5  C   UNK N   1      37.779  13.701  10.111  0.00  0.00     0.183 A 
HETATM    6  C   UNK N   1      36.733  14.436  10.712  0.00  0.00     0.089 A 
HETATM    7 Br   UNK N   1      36.537  13.384   6.115  0.00  0.00    -0.048 Br
HETATM    8  F   UNK N   1      38.734  12.692   8.171  0.00  0.00    -0.201 F 
HETATM    9  F   UNK N   1      38.830  13.249  10.839  0.00  0.00    -0.200 F 
ENDROOT
BRANCH   2  10
HETATM   10  C   UNK N   1      34.527  15.591  10.559  0.00  0.00     0.172 C 
HETATM   11  N   UNK N   1      34.394  16.851  10.344  0.00  0.00    -0.244 N 
ATOM     12  HN  UNK N   1      33.661  17.363  10.836  1.00  0.00     0.196 HD
BRANCH  11  13
HETATM   13  O   UNK N   1      35.177  17.503   9.508  0.00  0.00    -0.276 OA
BRANCH  13  14
HETATM   14  C   UNK N   1      34.671  18.278   8.479  0.00  0.00     0.235 C 
BRANCH  14  15
HETATM   15  C   UNK N   1      33.909  17.480   7.418  0.00  0.00     0.167 C 
BRANCH  15  16
HETATM   16  C   UNK N   1      32.422  17.711   7.595  0.00  0.00     0.198 C 
BRANCH  16  17
HETATM   17  O   UNK N   1      32.083  17.625   8.947  0.00  0.00    -0.398 OA
HETATM   18  H   UNK N   1      32.168  18.302   9.636  0.00  0.00     0.209 HD
ENDBRANCH  16  17
ENDBRANCH  15  16
BRANCH  15  19
HETATM   19  O   UNK N   1      34.296  17.877   6.135  0.00  0.00    -0.391 OA
HETATM   20  H   UNK N   1      34.999  17.410   5.656  0.00  0.00     0.210 HD
ENDBRANCH  15  19
ENDBRANCH  14  15
ENDBRANCH  13  14
ENDBRANCH  11  13
BRANCH  10  21
HETATM   21  O   UNK N   1      33.609  14.957  11.311  0.00  0.00    -0.344 OA
HETATM   22  H   UNK N   1      33.298  15.078  12.186  0.00  0.00     0.219 HD
ENDBRANCH  10  21
ENDBRANCH   2  10
BRANCH   6  23
HETATM   23  N   UNK N   1      36.702  14.724  12.106  0.00  0.00    -0.350 N 
HETATM   24  H   UNK N   1      36.916  15.651  12.358  0.00  0.00     0.166 HD
BRANCH  23  25
HETATM   25  C   UNK N   1      36.404  13.847  13.175  0.00  0.00     0.071 A 
HETATM   26  C   UNK N   1      35.988  12.528  12.947  0.00  0.00     0.034 A 
HETATM   27  C   UNK N   1      35.753  11.671  14.024  0.00  0.00     0.020 A 
HETATM   28  C   UNK N   1      35.943  12.125  15.332  0.00  0.00     0.009 A 
HETATM   29  C   UNK N   1      36.370  13.435  15.564  0.00  0.00     0.062 A 
HETATM   30  I   UNK N   1      35.604  10.832  16.952  0.00  0.00    -0.044 I 
HETATM   31  C   UNK N   1      36.604  14.293  14.489  0.00  0.00     0.144 A 
HETATM   32  F   UNK N   1      37.032  15.560  14.723  0.00  0.00    -0.204 F 
ENDBRANCH  23  25
ENDBRANCH   6  23
TORSDOF 10
ENDMDL
MODEL 2
REMARK VINA RESULT:      -7.0      5.411      8.439
REMARK  10 active torsions:
REMARK  status: ('A' for Active; 'I' for Inactive)
REMARK    1  A    between atoms: C_8  and  C_5 
REMARK    2  A    between atoms: O_25  and  C_5 
REMARK    3  A    between atoms: C_8  and  C_6 
REMARK    4  A    between atoms: O_28  and  C_6 
REMARK    5  A    between atoms: C_8  and  O_26 
REMARK    6  A    between atoms: C_16  and  C_9 
REMARK    7  A    between atoms: N_22  and  C_12 
REMARK    8  A    between atoms: N_22  and  C_15 
REMARK    9  A    between atoms: O_27  and  C_16 
REMARK   10  A    between atoms: N_23  and  O_28 
ROOT
HETATM    1  C   UNK N   1      31.731  17.631   8.776  0.00  0.00     0.040 A 
HETATM    2  C   UNK N   1      32.740  17.577   7.809  0.00  0.00     0.048 A 
HETATM    3  C   UNK N   1      30.394  17.468   8.411  0.00  0.00     0.053 A 
HETATM    4  C   UNK N   1      30.062  17.213   7.075  0.00  0.00     0.174 A 
HETATM    5  C   UNK N   1      31.067  17.135   6.102  0.00  0.00     0.183 A 
HETATM    6  C   UNK N   1      32.417  17.340   6.463  0.00  0.00     0.089 A 
HETATM    7 Br   UNK N   1      29.034  17.595   9.745  0.00  0.00    -0.048 Br
HETATM    8  F   UNK N   1      28.766  17.024   6.722  0.00  0.00    -0.201 F 
HETATM    9  F   UNK N   1      30.719  16.822   4.829  0.00  0.00    -0.200 F 
ENDROOT
BRANCH   2  10
HETATM   10  C   UNK N   1      34.154  17.804   8.193  0.00  0.00     0.172 C 
HETATM   11  N   UNK N   1      34.872  16.868   8.702  0.00  0.00    -0.244 N 
ATOM     12  HN  UNK N   1      35.822  17.082   9.007  1.00  0.00     0.196 HD
BRANCH  11  13
HETATM   13  O   UNK N   1      34.417  15.640   8.846  0.00  0.00    -0.276 OA
BRANCH  13  14
HETATM   14  C   UNK N   1      35.130  14.666   9.522  0.00  0.00     0.235 C 
BRANCH  14  15
HETATM   15  C   UNK N   1      34.846  14.620  11.025  0.00  0.00     0.167 C 
BRANCH  15  16
HETATM   16  C   UNK N   1      35.829  15.522  11.745  0.00  0.00     0.198 C 
BRANCH  16  17
HETATM   17  O   UNK N   1      36.789  15.992  10.848  0.00  0.00    -0.398 OA
HETATM   18  H   UNK N   1      36.675  16.249   9.919  0.00  0.00     0.209 HD
ENDBRANCH  16  17
ENDBRANCH  15  16
BRANCH  15  19
HETATM   19  O   UNK N   1      33.540  15.045  11.289  0.00  0.00    -0.391 OA
HETATM   20  H   UNK N   1      32.848  14.414  11.541  0.00  0.00     0.210 HD
ENDBRANCH  15  19
ENDBRANCH  14  15
ENDBRANCH  13  14
ENDBRANCH  11  13
BRANCH  10  21
HETATM   21  O   UNK N   1      34.721  18.998   7.941  0.00  0.00    -0.344 OA
HETATM   22  H   UNK N   1      35.077  19.393   7.170  0.00  0.00     0.219 HD
ENDBRANCH  10  21
ENDBRANCH   2  10
BRANCH   6  23
HETATM   23  N   UNK N   1      33.487  17.208   5.533  0.00  0.00    -0.350 N 
HETATM   24  H   UNK N   1      34.016  18.022   5.367  0.00  0.00     0.166 HD
BRANCH  23  25
HETATM   25  C   UNK N   1      33.887  16.056   4.816  0.00  0.00     0.071 A 
HETATM   26  C   UNK N   1      34.573  15.005   5.439  0.00  0.00     0.034 A 
HETATM   27  C   UNK N   1      34.906  13.858   4.715  0.00  0.00     0.020 A 
HETATM   28  C   UNK N   1      34.546  13.753   3.370  0.00  0.00     0.009 A 
HETATM   29  C   UNK N   1      33.851  14.792   2.747  0.00  0.00     0.062 A 
HETATM   30  I   UNK N   1      35.034  12.022   2.284  0.00  0.00    -0.044 I 
HETATM   31  C   UNK N   1      33.518  15.940   3.468  0.00  0.00     0.144 A 
HETATM   32  F   UNK N   1      32.831  16.939   2.859  0.00  0.00    -0.204 F 
ENDBRANCH  23  25
ENDBRANCH   6  23
TORSDOF 10
ENDMDL
MODEL 3
REMARK VINA RESULT:      -6.8      7.958     10.377
REMARK  10 active torsions:
REMARK  status: ('A' for Active; 'I' for Inactive)
REMARK    1  A    between atoms: C_8  and  C_5 
REMARK    2  A    between atoms: O_25  and  C_5 
REMARK    3  A    between atoms: C_8  and  C_6 
REMARK    4  A    between atoms: O_28  and  C_6 
REMARK    5  A    between atoms: C_8  and  O_26 
REMARK    6  A    between atoms: C_16  and  C_9 
REMARK    7  A    between atoms: N_22  and  C_12 
REMARK    8  A    between atoms: N_22  and  C_15 
REMARK    9  A    between atoms: O_27  and  C_16 
REMARK   10  A    between atoms: N_23  and  O_28 
ROOT
HETATM    1  C   UNK N   1      30.475  17.982   8.313  0.00  0.00     0.040 A 
HETATM    2  C   UNK N   1      29.200  17.906   7.744  0.00  0.00     0.048 A 
HETATM    3  C   UNK N   1      31.557  17.340   7.709  0.00  0.00     0.053 A 
HETATM    4  C   UNK N   1      31.374  16.646   6.507  0.00  0.00     0.174 A 
HETATM    5  C   UNK N   1      30.105  16.582   5.917  0.00  0.00     0.183 A 
HETATM    6  C   UNK N   1      29.001  17.197   6.548  0.00  0.00     0.089 A 
HETATM    7 Br   UNK N   1      33.277  17.421   8.534  0.00  0.00    -0.048 Br
HETATM    8  F   UNK N   1      32.429  16.046   5.902  0.00  0.00    -0.201 F 
HETATM    9  F   UNK N   1      29.973  15.958   4.721  0.00  0.00    -0.200 F 
ENDROOT
BRANCH   2  10
HETATM   10  C   UNK N   1      28.044  18.544   8.418  0.00  0.00     0.172 C 
HETATM   11  N   UNK N   1      27.522  19.631   7.974  0.00  0.00    -0.244 N 
ATOM     12  HN  UNK N   1      26.764  20.068   8.500  1.00  0.00     0.196 HD
BRANCH  11  13
HETATM   13  O   UNK N   1      27.936  20.199   6.860  0.00  0.00    -0.276 OA
BRANCH  13  14
HETATM   14  C   UNK N   1      27.169  21.129   6.179  0.00  0.00     0.235 C 
BRANCH  14  15
HETATM   15  C   UNK N   1      26.186  20.511   5.182  0.00  0.00     0.167 C 
BRANCH  15  16
HETATM   16  C   UNK N   1      26.926  20.157   3.908  0.00  0.00     0.198 C 
BRANCH  16  17
HETATM   17  O   UNK N   1      28.233  19.770   4.207  0.00  0.00    -0.398 OA
HETATM   18  H   UNK N   1      28.754  19.964   5.002  0.00  0.00     0.209 HD
ENDBRANCH  16  17
ENDBRANCH  15  16
BRANCH  15  19
HETATM   19  O   UNK N   1      25.602  19.359   5.721  0.00  0.00    -0.391 OA
HETATM   20  H   UNK N   1      26.058  18.837   6.399  0.00  0.00     0.210 HD
ENDBRANCH  15  19
ENDBRANCH  14  15
ENDBRANCH  13  14
ENDBRANCH  11  13
BRANCH  10  21
HETATM   21  O   UNK N   1      27.482  17.937   9.480  0.00  0.00    -0.344 OA
HETATM   22  H   UNK N   1      27.142  18.248  10.295  0.00  0.00     0.219 HD
ENDBRANCH  10  21
ENDBRANCH   2  10
BRANCH   6  23
HETATM   23  N   UNK N   1      27.702  17.223   5.966  0.00  0.00    -0.350 N 
HETATM   24  H   UNK N   1      27.379  18.105   5.672  0.00  0.00     0.166 HD
BRANCH  23  25
HETATM   25  C   UNK N   1      26.815  16.140   5.756  0.00  0.00     0.071 A 
HETATM   26  C   UNK N   1      26.244  15.441   6.828  0.00  0.00     0.034 A 
HETATM   27  C   UNK N   1      25.331  14.413   6.587  0.00  0.00     0.020 A 
HETATM   28  C   UNK N   1      24.977  14.086   5.276  0.00  0.00     0.009 A 
HETATM   29  C   UNK N   1      25.534  14.788   4.204  0.00  0.00     0.062 A 
HETATM   30  I   UNK N   1      23.592  12.548   4.914  0.00  0.00    -0.044 I 
HETATM   31  C   UNK N   1      26.447  15.816   4.442  0.00  0.00     0.144 A 
HETATM   32  F   UNK N   1      26.972  16.502   3.396  0.00  0.00    -0.204 F 
ENDBRANCH  23  25
ENDBRANCH   6  23
TORSDOF 10
ENDMDL
MODEL 4
REMARK VINA RESULT:      -6.7      4.639      7.244
REMARK  10 active torsions:
REMARK  status: ('A' for Active; 'I' for Inactive)
REMARK    1  A    between atoms: C_8  and  C_5 
REMARK    2  A    between atoms: O_25  and  C_5 
REMARK    3  A    between atoms: C_8  and  C_6 
REMARK    4  A    between atoms: O_28  and  C_6 
REMARK    5  A    between atoms: C_8  and  O_26 
REMARK    6  A    between atoms: C_16  and  C_9 
REMARK    7  A    between atoms: N_22  and  C_12 
REMARK    8  A    between atoms: N_22  and  C_15 
REMARK    9  A    between atoms: O_27  and  C_16 
REMARK   10  A    between atoms: N_23  and  O_28 
ROOT
HETATM    1  C   UNK N   1      34.909  16.374  10.029  0.00  0.00     0.040 A 
HETATM    2  C   UNK N   1      34.544  16.691   8.716  0.00  0.00     0.048 A 
HETATM    3  C   UNK N   1      35.365  15.093  10.344  0.00  0.00     0.053 A 
HETATM    4  C   UNK N   1      35.492  14.130   9.336  0.00  0.00     0.174 A 
HETATM    5  C   UNK N   1      35.149  14.444   8.015  0.00  0.00     0.183 A 
HETATM    6  C   UNK N   1      34.649  15.727   7.700  0.00  0.00     0.089 A 
HETATM    7 Br   UNK N   1      35.811  14.673  12.152  0.00  0.00    -0.048 Br
HETATM    8  F   UNK N   1      35.963  12.893   9.634  0.00  0.00    -0.201 F 
HETATM    9  F   UNK N   1      35.345  13.511   7.050  0.00  0.00    -0.200 F 
ENDROOT
BRANCH   2  10
HETATM   10  C   UNK N   1      34.009  18.036   8.397  0.00  0.00     0.172 C 
HETATM   11  N   UNK N   1      32.746  18.275   8.395  0.00  0.00    -0.244 N 
ATOM     12  HN  UNK N   1      32.417  19.199   8.113  1.00  0.00     0.196 HD
BRANCH  11  13
HETATM   13  O   UNK N   1      31.863  17.361   8.743  0.00  0.00    -0.276 OA
BRANCH  13  14
HETATM   14  C   UNK N   1      30.530  17.450   8.381  0.00  0.00     0.235 C 
BRANCH  14  15
HETATM   15  C   UNK N   1      29.804  18.657   8.981  0.00  0.00     0.167 C 
BRANCH  15  16
HETATM   16  C   UNK N   1      28.384  18.695   8.454  0.00  0.00     0.198 C 
BRANCH  16  17
HETATM   17  O   UNK N   1      27.516  18.111   9.378  0.00  0.00    -0.398 OA
HETATM   18  H   UNK N   1      26.920  17.356   9.254  0.00  0.00     0.209 HD
ENDBRANCH  16  17
ENDBRANCH  15  16
BRANCH  15  19
HETATM   19  O   UNK N   1      29.785  18.573  10.376  0.00  0.00    -0.391 OA
HETATM   20  H   UNK N   1      30.003  19.340  10.928  0.00  0.00     0.210 HD
ENDBRANCH  15  19
ENDBRANCH  14  15
ENDBRANCH  13  14
ENDBRANCH  11  13
BRANCH  10  21
HETATM   21  O   UNK N   1      34.865  19.050   8.171  0.00  0.00    -0.344 OA
HETATM   22  H   UNK N   1      35.789  19.093   8.028  0.00  0.00     0.219 HD
ENDBRANCH  10  21
ENDBRANCH   2  10
BRANCH   6  23
HETATM   23  N   UNK N   1      34.346  16.127   6.368  0.00  0.00    -0.350 N 
HETATM   24  H   UNK N   1      35.098  16.490   5.846  0.00  0.00     0.166 HD
BRANCH  23  25
HETATM   25  C   UNK N   1      33.102  16.069   5.698  0.00  0.00     0.071 A 
HETATM   26  C   UNK N   1      32.219  14.996   5.882  0.00  0.00     0.034 A 
HETATM   27  C   UNK N   1      30.975  14.995   5.247  0.00  0.00     0.020 A 
HETATM   28  C   UNK N   1      30.604  16.070   4.437  0.00  0.00     0.009 A 
HETATM   29  C   UNK N   1      31.474  17.149   4.262  0.00  0.00     0.062 A 
HETATM   30  I   UNK N   1      28.726  16.076   3.495  0.00  0.00    -0.044 I 
HETATM   31  C   UNK N   1      32.718  17.151   4.893  0.00  0.00     0.144 A 
HETATM   32  F   UNK N   1      33.552  18.209   4.728  0.00  0.00    -0.204 F 
ENDBRANCH  23  25
ENDBRANCH   6  23
TORSDOF 10
ENDMDL
MODEL 5
REMARK VINA RESULT:      -6.5      3.636      5.142
REMARK  10 active torsions:
REMARK  status: ('A' for Active; 'I' for Inactive)
REMARK    1  A    between atoms: C_8  and  C_5 
REMARK    2  A    between atoms: O_25  and  C_5 
REMARK    3  A    between atoms: C_8  and  C_6 
REMARK    4  A    between atoms: O_28  and  C_6 
REMARK    5  A    between atoms: C_8  and  O_26 
REMARK    6  A    between atoms: C_16  and  C_9 
REMARK    7  A    between atoms: N_22  and  C_12 
REMARK    8  A    between atoms: N_22  and  C_15 
REMARK    9  A    between atoms: O_27  and  C_16 
REMARK   10  A    between atoms: N_23  and  O_28 
ROOT
HETATM    1  C   UNK N   1      32.952  17.380   5.671  0.00  0.00     0.040 A 
HETATM    2  C   UNK N   1      33.653  17.142   6.859  0.00  0.00     0.048 A 
HETATM    3  C   UNK N   1      33.164  16.571   4.554  0.00  0.00     0.053 A 
HETATM    4  C   UNK N   1      34.054  15.494   4.631  0.00  0.00     0.174 A 
HETATM    5  C   UNK N   1      34.745  15.234   5.821  0.00  0.00     0.183 A 
HETATM    6  C   UNK N   1      34.563  16.076   6.941  0.00  0.00     0.089 A 
HETATM    7 Br   UNK N   1      32.230  16.948   2.932  0.00  0.00    -0.048 Br
HETATM    8  F   UNK N   1      34.239  14.688   3.555  0.00  0.00    -0.201 F 
HETATM    9  F   UNK N   1      35.550  14.145   5.884  0.00  0.00    -0.200 F 
ENDROOT
BRANCH   2  10
HETATM   10  C   UNK N   1      33.465  18.037   8.026  0.00  0.00     0.172 C 
HETATM   11  N   UNK N   1      32.466  17.903   8.822  0.00  0.00    -0.244 N 
ATOM     12  HN  UNK N   1      32.343  18.575   9.580  1.00  0.00     0.196 HD
BRANCH  11  13
HETATM   13  O   UNK N   1      31.594  16.924   8.690  0.00  0.00    -0.276 OA
BRANCH  13  14
HETATM   14  C   UNK N   1      30.241  17.162   8.523  0.00  0.00     0.235 C 
BRANCH  14  15
HETATM   15  C   UNK N   1      29.794  18.550   8.989  0.00  0.00     0.167 C 
BRANCH  15  16
HETATM   16  C   UNK N   1      28.387  18.811   8.491  0.00  0.00     0.198 C 
BRANCH  16  17
HETATM   17  O   UNK N   1      27.459  18.222   9.352  0.00  0.00    -0.398 OA
HETATM   18  H   UNK N   1      26.900  17.444   9.197  0.00  0.00     0.209 HD
ENDBRANCH  16  17
ENDBRANCH  15  16
BRANCH  15  19
HETATM   19  O   UNK N   1      29.821  18.630  10.385  0.00  0.00    -0.391 OA
HETATM   20  H   UNK N   1      29.001  18.616  10.904  0.00  0.00     0.210 HD
ENDBRANCH  15  19
ENDBRANCH  14  15
ENDBRANCH  13  14
ENDBRANCH  11  13
BRANCH  10  21
HETATM   21  O   UNK N   1      34.398  18.968   8.299  0.00  0.00    -0.344 OA
HETATM   22  H   UNK N   1      34.421  19.708   8.872  0.00  0.00     0.219 HD
ENDBRANCH  10  21
ENDBRANCH   2  10
BRANCH   6  23
HETATM   23  N   UNK N   1      35.184  15.825   8.197  0.00  0.00    -0.350 N 
HETATM   24  H   UNK N   1      35.491  16.619   8.691  0.00  0.00     0.166 HD
BRANCH  23  25
HETATM   25  C   UNK N   1      35.418  14.579   8.825  0.00  0.00     0.071 A 
HETATM   26  C   UNK N   1      36.704  14.028   8.906  0.00  0.00     0.034 A 
HETATM   27  C   UNK N   1      36.909  12.822   9.579  0.00  0.00     0.020 A 
HETATM   28  C   UNK N   1      35.833  12.168  10.182  0.00  0.00     0.009 A 
HETATM   29  C   UNK N   1      34.551  12.719  10.116  0.00  0.00     0.062 A 
HETATM   30  I   UNK N   1      36.144  10.361  11.208  0.00  0.00    -0.044 I 
HETATM   31  C   UNK N   1      34.344  13.924   9.443  0.00  0.00     0.144 A 
HETATM   32  F   UNK N   1      33.097  14.459   9.395  0.00  0.00    -0.204 F 
ENDBRANCH  23  25
ENDBRANCH   6  23
TORSDOF 10
ENDMDL
MODEL 6
REMARK VINA RESULT:      -6.5     12.974     14.616
REMARK  10 active torsions:
REMARK  status: ('A' for Active; 'I' for Inactive)
REMARK    1  A    between atoms: C_8  and  C_5 
REMARK    2  A    between atoms: O_25  and  C_5 
REMARK    3  A    between atoms: C_8  and  C_6 
REMARK    4  A    between atoms: O_28  and  C_6 
REMARK    5  A    between atoms: C_8  and  O_26 
REMARK    6  A    between atoms: C_16  and  C_9 
REMARK    7  A    between atoms: N_22  and  C_12 
REMARK    8  A    between atoms: N_22  and  C_15 
REMARK    9  A    between atoms: O_27  and  C_16 
REMARK   10  A    between atoms: N_23  and  O_28 
ROOT
HETATM    1  C   UNK N   1      24.225  19.068   4.442  0.00  0.00     0.040 A 
HETATM    2  C   UNK N   1      23.318  18.063   4.792  0.00  0.00     0.048 A 
HETATM    3  C   UNK N   1      25.528  18.741   4.064  0.00  0.00     0.053 A 
HETATM    4  C   UNK N   1      25.921  17.399   4.001  0.00  0.00     0.174 A 
HETATM    5  C   UNK N   1      25.014  16.384   4.330  0.00  0.00     0.183 A 
HETATM    6  C   UNK N   1      23.706  16.714   4.751  0.00  0.00     0.089 A 
HETATM    7 Br   UNK N   1      26.760  20.137   3.637  0.00  0.00    -0.048 Br
HETATM    8  F   UNK N   1      27.178  17.077   3.606  0.00  0.00    -0.201 F 
HETATM    9  F   UNK N   1      25.404  15.092   4.196  0.00  0.00    -0.200 F 
ENDROOT
BRANCH   2  10
HETATM   10  C   UNK N   1      21.952  18.417   5.245  0.00  0.00     0.172 C 
HETATM   11  N   UNK N   1      21.006  18.653   4.408  0.00  0.00    -0.244 N 
ATOM     12  HN  UNK N   1      20.095  18.950   4.760  1.00  0.00     0.196 HD
BRANCH  11  13
HETATM   13  O   UNK N   1      21.176  18.525   3.108  0.00  0.00    -0.276 OA
BRANCH  13  14
HETATM   14  C   UNK N   1      20.222  18.941   2.196  0.00  0.00     0.235 C 
BRANCH  14  15
HETATM   15  C   UNK N   1      20.617  20.196   1.414  0.00  0.00     0.167 C 
BRANCH  15  16
HETATM   16  C   UNK N   1      21.996  20.643   1.857  0.00  0.00     0.198 C 
BRANCH  16  17
HETATM   17  O   UNK N   1      21.891  21.485   2.966  0.00  0.00    -0.398 OA
HETATM   18  H   UNK N   1      21.481  22.362   3.023  0.00  0.00     0.209 HD
ENDBRANCH  16  17
ENDBRANCH  15  16
BRANCH  15  19
HETATM   19  O   UNK N   1      20.628  19.933   0.040  0.00  0.00    -0.391 OA
HETATM   20  H   UNK N   1      19.811  19.723  -0.436  0.00  0.00     0.210 HD
ENDBRANCH  15  19
ENDBRANCH  14  15
ENDBRANCH  13  14
ENDBRANCH  11  13
BRANCH  10  21
HETATM   21  O   UNK N   1      21.675  18.426   6.562  0.00  0.00    -0.344 OA
HETATM   22  H   UNK N   1      22.021  18.902   7.291  0.00  0.00     0.219 HD
ENDBRANCH  10  21
ENDBRANCH   2  10
BRANCH   6  23
HETATM   23  N   UNK N   1      22.720  15.726   5.034  0.00  0.00    -0.350 N 
HETATM   24  H   UNK N   1      22.071  15.549   4.316  0.00  0.00     0.166 HD
BRANCH  23  25
HETATM   25  C   UNK N   1      22.555  14.969   6.218  0.00  0.00     0.071 A 
HETATM   26  C   UNK N   1      23.638  14.332   6.838  0.00  0.00     0.034 A 
HETATM   27  C   UNK N   1      23.451  13.637   8.035  0.00  0.00     0.020 A 
HETATM   28  C   UNK N   1      22.183  13.584   8.620  0.00  0.00     0.009 A 
HETATM   29  C   UNK N   1      21.103  14.228   8.012  0.00  0.00     0.062 A 
HETATM   30  I   UNK N   1      21.904  12.551  10.428  0.00  0.00    -0.044 I 
HETATM   31  C   UNK N   1      21.288  14.923   6.816  0.00  0.00     0.144 A 
HETATM   32  F   UNK N   1      20.236  15.557   6.240  0.00  0.00    -0.204 F 
ENDBRANCH  23  25
ENDBRANCH   6  23
TORSDOF 10
ENDMDL
MODEL 7
REMARK VINA RESULT:      -6.4      8.564     12.149
REMARK  10 active torsions:
REMARK  status: ('A' for Active; 'I' for Inactive)
REMARK    1  A    between atoms: C_8  and  C_5 
REMARK    2  A    between atoms: O_25  and  C_5 
REMARK    3  A    between atoms: C_8  and  C_6 
REMARK    4  A    between atoms: O_28  and  C_6 
REMARK    5  A    between atoms: C_8  and  O_26 
REMARK    6  A    between atoms: C_16  and  C_9 
REMARK    7  A    between atoms: N_22  and  C_12 
REMARK    8  A    between atoms: N_22  and  C_15 
REMARK    9  A    between atoms: O_27  and  C_16 
REMARK   10  A    between atoms: N_23  and  O_28 
ROOT
HETATM    1  C   UNK N   1      29.781  17.045   6.125  0.00  0.00     0.040 A 
HETATM    2  C   UNK N   1      29.125  17.533   4.990  0.00  0.00     0.048 A 
HETATM    3  C   UNK N   1      29.558  17.628   7.374  0.00  0.00     0.053 A 
HETATM    4  C   UNK N   1      28.647  18.683   7.498  0.00  0.00     0.174 A 
HETATM    5  C   UNK N   1      27.969  19.165   6.372  0.00  0.00     0.183 A 
HETATM    6  C   UNK N   1      28.223  18.603   5.100  0.00  0.00     0.089 A 
HETATM    7 Br   UNK N   1      30.504  16.973   8.898  0.00  0.00    -0.048 Br
HETATM    8  F   UNK N   1      28.407  19.233   8.716  0.00  0.00    -0.201 F 
HETATM    9  F   UNK N   1      27.046  20.144   6.535  0.00  0.00    -0.200 F 
ENDROOT
BRANCH   2  10
HETATM   10  C   UNK N   1      29.406  16.946   3.658  0.00  0.00     0.172 C 
HETATM   11  N   UNK N   1      30.573  17.014   3.125  0.00  0.00    -0.244 N 
ATOM     12  HN  UNK N   1      30.710  16.648   2.182  1.00  0.00     0.196 HD
BRANCH  11  13
HETATM   13  O   UNK N   1      31.599  17.543   3.759  0.00  0.00    -0.276 OA
BRANCH  13  14
HETATM   14  C   UNK N   1      32.895  17.096   3.565  0.00  0.00     0.235 C 
BRANCH  14  15
HETATM   15  C   UNK N   1      33.311  15.972   4.517  0.00  0.00     0.167 C 
BRANCH  15  16
HETATM   16  C   UNK N   1      33.532  16.550   5.901  0.00  0.00     0.198 C 
BRANCH  16  17
HETATM   17  O   UNK N   1      33.995  17.863   5.801  0.00  0.00    -0.398 OA
HETATM   18  H   UNK N   1      34.903  18.192   5.887  0.00  0.00     0.209 HD
ENDBRANCH  16  17
ENDBRANCH  15  16
BRANCH  15  19
HETATM   19  O   UNK N   1      32.321  14.986   4.573  0.00  0.00    -0.391 OA
HETATM   20  H   UNK N   1      31.483  15.143   5.034  0.00  0.00     0.210 HD
ENDBRANCH  15  19
ENDBRANCH  14  15
ENDBRANCH  13  14
ENDBRANCH  11  13
BRANCH  10  21
HETATM   21  O   UNK N   1      28.435  16.266   3.020  0.00  0.00    -0.344 OA
HETATM   22  H   UNK N   1      28.055  16.334   2.167  0.00  0.00     0.219 HD
ENDBRANCH  10  21
ENDBRANCH   2  10
BRANCH   6  23
HETATM   23  N   UNK N   1      27.518  19.005   3.931  0.00  0.00    -0.350 N 
HETATM   24  H   UNK N   1      28.074  19.242   3.153  0.00  0.00     0.166 HD
BRANCH  23  25
HETATM   25  C   UNK N   1      26.119  19.107   3.743  0.00  0.00     0.071 A 
HETATM   26  C   UNK N   1      25.238  18.150   4.264  0.00  0.00     0.034 A 
HETATM   27  C   UNK N   1      23.859  18.309   4.108  0.00  0.00     0.020 A 
HETATM   28  C   UNK N   1      23.357  19.428   3.440  0.00  0.00     0.009 A 
HETATM   29  C   UNK N   1      24.230  20.391   2.930  0.00  0.00     0.062 A 
HETATM   30  I   UNK N   1      21.282  19.673   3.217  0.00  0.00    -0.044 I 
HETATM   31  C   UNK N   1      25.608  20.234   3.084  0.00  0.00     0.144 A 
HETATM   32  F   UNK N   1      26.449  21.182   2.598  0.00  0.00    -0.204 F 
ENDBRANCH  23  25
ENDBRANCH   6  23
TORSDOF 10
ENDMDL
MODEL 8
REMARK VINA RESULT:      -6.3      7.768     10.316
REMARK  10 active torsions:
REMARK  status: ('A' for Active; 'I' for Inactive)
REMARK    1  A    between atoms: C_8  and  C_5 
REMARK    2  A    between atoms: O_25  and  C_5 
REMARK    3  A    between atoms: C_8  and  C_6 
REMARK    4  A    between atoms: O_28  and  C_6 
REMARK    5  A    between atoms: C_8  and  O_26 
REMARK    6  A    between atoms: C_16  and  C_9 
REMARK    7  A    between atoms: N_22  and  C_12 
REMARK    8  A    between atoms: N_22  and  C_15 
REMARK    9  A    between atoms: O_27  and  C_16 
REMARK   10  A    between atoms: N_23  and  O_28 
ROOT
HETATM    1  C   UNK N   1      26.150  17.302   4.180  0.00  0.00     0.040 A 
HETATM    2  C   UNK N   1      27.521  17.576   4.165  0.00  0.00     0.048 A 
HETATM    3  C   UNK N   1      25.634  16.241   3.434  0.00  0.00     0.053 A 
HETATM    4  C   UNK N   1      26.497  15.424   2.695  0.00  0.00     0.174 A 
HETATM    5  C   UNK N   1      27.874  15.676   2.689  0.00  0.00     0.183 A 
HETATM    6  C   UNK N   1      28.394  16.774   3.411  0.00  0.00     0.089 A 
HETATM    7 Br   UNK N   1      23.752  15.920   3.436  0.00  0.00    -0.048 Br
HETATM    8  F   UNK N   1      26.002  14.373   1.992  0.00  0.00    -0.201 F 
HETATM    9  F   UNK N   1      28.691  14.828   2.017  0.00  0.00    -0.200 F 
ENDROOT
BRANCH   2  10
HETATM   10  C   UNK N   1      28.057  18.737   4.915  0.00  0.00     0.172 C 
HETATM   11  N   UNK N   1      28.216  18.699   6.189  0.00  0.00    -0.244 N 
ATOM     12  HN  UNK N   1      28.534  19.539   6.675  1.00  0.00     0.196 HD
BRANCH  11  13
HETATM   13  O   UNK N   1      27.980  17.608   6.890  0.00  0.00    -0.276 OA
BRANCH  13  14
HETATM   14  C   UNK N   1      28.853  17.157   7.865  0.00  0.00     0.235 C 
BRANCH  14  15
HETATM   15  C   UNK N   1      28.565  17.718   9.260  0.00  0.00     0.167 C 
BRANCH  15  16
HETATM   16  C   UNK N   1      29.706  18.624   9.676  0.00  0.00     0.198 C 
BRANCH  16  17
HETATM   17  O   UNK N   1      30.923  18.079   9.265  0.00  0.00    -0.398 OA
HETATM   18  H   UNK N   1      31.356  17.266   9.572  0.00  0.00     0.209 HD
ENDBRANCH  16  17
ENDBRANCH  15  16
BRANCH  15  19
HETATM   19  O   UNK N   1      27.368  18.440   9.260  0.00  0.00    -0.391 OA
HETATM   20  H   UNK N   1      26.875  18.594  10.081  0.00  0.00     0.210 HD
ENDBRANCH  15  19
ENDBRANCH  14  15
ENDBRANCH  13  14
ENDBRANCH  11  13
BRANCH  10  21
HETATM   21  O   UNK N   1      28.452  19.833   4.240  0.00  0.00    -0.344 OA
HETATM   22  H   UNK N   1      28.579  20.728   4.483  0.00  0.00     0.219 HD
ENDBRANCH  10  21
ENDBRANCH   2  10
BRANCH   6  23
HETATM   23  N   UNK N   1      29.789  17.043   3.498  0.00  0.00    -0.350 N 
HETATM   24  H   UNK N   1      30.156  17.642   2.809  0.00  0.00     0.166 HD
BRANCH  23  25
HETATM   25  C   UNK N   1      30.717  16.557   4.450  0.00  0.00     0.071 A 
HETATM   26  C   UNK N   1      30.491  15.365   5.151  0.00  0.00     0.034 A 
HETATM   27  C   UNK N   1      31.451  14.885   6.045  0.00  0.00     0.020 A 
HETATM   28  C   UNK N   1      32.644  15.587   6.232  0.00  0.00     0.009 A 
HETATM   29  C   UNK N   1      32.879  16.769   5.525  0.00  0.00     0.062 A 
HETATM   30  I   UNK N   1      34.095  14.857   7.564  0.00  0.00    -0.044 I 
HETATM   31  C   UNK N   1      31.921  17.251   4.633  0.00  0.00     0.144 A 
HETATM   32  F   UNK N   1      32.164  18.393   3.941  0.00  0.00    -0.204 F 
ENDBRANCH  23  25
ENDBRANCH   6  23
TORSDOF 10
ENDMDL
MODEL 9
REMARK VINA RESULT:      -6.3      2.238      2.788
REMARK  10 active torsions:
REMARK  status: ('A' for Active; 'I' for Inactive)
REMARK    1  A    between atoms: C_8  and  C_5 
REMARK    2  A    between atoms: O_25  and  C_5 
REMARK    3  A    between atoms: C_8  and  C_6 
REMARK    4  A    between atoms: O_28  and  C_6 
REMARK    5  A    between atoms: C_8  and  O_26 
REMARK    6  A    between atoms: C_16  and  C_9 
REMARK    7  A    between atoms: N_22  and  C_12 
REMARK    8  A    between atoms: N_22  and  C_15 
REMARK    9  A    between atoms: O_27  and  C_16 
REMARK   10  A    between atoms: N_23  and  O_28 
ROOT
HETATM    1  C   UNK N   1      37.102  14.049   9.856  0.00  0.00     0.040 A 
HETATM    2  C   UNK N   1      36.203  13.944  10.922  0.00  0.00     0.048 A 
HETATM    3  C   UNK N   1      37.673  12.903   9.299  0.00  0.00     0.053 A 
HETATM    4  C   UNK N   1      37.317  11.640   9.786  0.00  0.00     0.174 A 
HETATM    5  C   UNK N   1      36.402  11.523  10.839  0.00  0.00     0.183 A 
HETATM    6  C   UNK N   1      35.853  12.682  11.431  0.00  0.00     0.089 A 
HETATM    7 Br   UNK N   1      38.934  13.080   7.876  0.00  0.00    -0.048 Br
HETATM    8  F   UNK N   1      37.849  10.523   9.227  0.00  0.00    -0.201 F 
HETATM    9  F   UNK N   1      36.029  10.284  11.244  0.00  0.00    -0.200 F 
ENDROOT
BRANCH   2  10
HETATM   10  C   UNK N   1      35.641  15.166  11.546  0.00  0.00     0.172 C 
HETATM   11  N   UNK N   1      34.560  15.708  11.109  0.00  0.00    -0.244 N 
ATOM     12  HN  UNK N   1      34.239  16.580  11.530  1.00  0.00     0.196 HD
BRANCH  11  13
HETATM   13  O   UNK N   1      33.856  15.171  10.134  0.00  0.00    -0.276 OA
BRANCH  13  14
HETATM   14  C   UNK N   1      33.706  15.793   8.907  0.00  0.00     0.235 C 
BRANCH  14  15
HETATM   15  C   UNK N   1      33.482  17.305   9.001  0.00  0.00     0.167 C 
BRANCH  15  16
HETATM   16  C   UNK N   1      34.187  17.985   7.845  0.00  0.00     0.198 C 
BRANCH  16  17
HETATM   17  O   UNK N   1      34.941  19.063   8.312  0.00  0.00    -0.398 OA
HETATM   18  H   UNK N   1      35.836  19.332   8.053  0.00  0.00     0.209 HD
ENDBRANCH  16  17
ENDBRANCH  15  16
BRANCH  15  19
HETATM   19  O   UNK N   1      32.116  17.601   8.958  0.00  0.00    -0.391 OA
HETATM   20  H   UNK N   1      31.484  16.994   8.542  0.00  0.00     0.210 HD
ENDBRANCH  15  19
ENDBRANCH  14  15
ENDBRANCH  13  14
ENDBRANCH  11  13
BRANCH  10  21
HETATM   21  O   UNK N   1      36.236  15.683  12.637  0.00  0.00    -0.344 OA
HETATM   22  H   UNK N   1      37.106  15.977  12.818  0.00  0.00     0.219 HD
ENDBRANCH  10  21
ENDBRANCH   2  10
BRANCH   6  23
HETATM   23  N   UNK N   1      34.870  12.626  12.458  0.00  0.00    -0.350 N 
HETATM   24  H   UNK N   1      33.969  12.935  12.209  0.00  0.00     0.166 HD
BRANCH  23  25
HETATM   25  C   UNK N   1      35.023  12.185  13.793  0.00  0.00     0.071 A 
HETATM   26  C   UNK N   1      35.850  12.862  14.700  0.00  0.00     0.034 A 
HETATM   27  C   UNK N   1      35.937  12.431  16.026  0.00  0.00     0.020 A 
HETATM   28  C   UNK N   1      35.192  11.330  16.452  0.00  0.00     0.009 A 
HETATM   29  C   UNK N   1      34.356  10.659  15.556  0.00  0.00     0.062 A 
HETATM   30  I   UNK N   1      35.313  10.691  18.450  0.00  0.00    -0.044 I 
HETATM   31  C   UNK N   1      34.268  11.087  14.231  0.00  0.00     0.144 A 
HETATM   32  F   UNK N   1      33.444  10.437  13.370  0.00  0.00    -0.204 F 
ENDBRANCH  23  25
ENDBRANCH   6  23
TORSDOF 10
ENDMDL
