MODEL 1
REMARK VINA RESULT:      -8.1      0.000      0.000
REMARK  20 active torsions:
REMARK  status: ('A' for Active; 'I' for Inactive)
REMARK    1  A    between atoms: C_7  and  C_1 
REMARK    2  A    between atoms: O_41  and  C_1 
REMARK    3  A    between atoms: C_8  and  C_2 
REMARK    4  A    between atoms: O_42  and  C_2 
REMARK    5  A    between atoms: C_16  and  C_6 
REMARK    6  A    between atoms: C_10  and  O_32 
REMARK    7  A    between atoms: C_11  and  O_33 
REMARK    8  A    between atoms: C_12  and  O_34 
REMARK    9  A    between atoms: C_13  and  O_35 
REMARK   10  A    between atoms: C_14  and  C_18 
REMARK   11  A    between atoms: N_20  and  C_15 
REMARK   12  A    between atoms: N_21  and  C_16 
REMARK   13  A    between atoms: O_36  and  C_16 
REMARK   14  A    between atoms: C_19  and  N_31 
REMARK   15  A    between atoms: P_46  and  O_37 
REMARK   16  A    between atoms: P_47  and  O_39 
REMARK   17  A    between atoms: P_46  and  O_41 
REMARK   18  A    between atoms: P_47  and  O_42 
REMARK   19  A    between atoms: P_46  and  O_45 
REMARK   20  A    between atoms: P_47  and  O_45 
ROOT
HETATM    1  O   UNK N   1      36.396  16.245  10.937  0.00  0.00    -0.631 OA
HETATM    2  P   UNK N   1      35.334  15.870   9.870  0.00  0.00     0.401 P 
ENDROOT
BRANCH   2   3
HETATM    3  O   UNK N   1      33.829  15.753  10.733  0.00  0.00    -0.307 OA
HETATM    4  H   UNK N   1      32.933  16.121  10.794  0.00  0.00     0.222 HD
ENDBRANCH   2   3
BRANCH   2   5
HETATM    5  O   UNK N   1      35.864  14.355   9.181  0.00  0.00    -0.294 OA
BRANCH   5   6
HETATM    6  C   UNK N   1      34.877  13.432   9.531  0.00  0.00     0.215 C 
BRANCH   6   7
HETATM    7  C   UNK N   1      35.283  12.564  10.715  0.00  0.00     0.180 C 
HETATM    8  C   UNK N   1      36.783  12.274  10.740  0.00  0.00     0.182 C 
HETATM    9  C   UNK N   1      36.967  12.064  12.210  0.00  0.00     0.198 C 
HETATM   10  C   UNK N   1      36.146  13.256  12.694  0.00  0.00     0.262 C 
HETATM   11  O   UNK N   1      34.963  13.242  11.918  0.00  0.00    -0.353 OA
BRANCH   8  12
HETATM   12  O   UNK N   1      37.137  11.159   9.975  0.00  0.00    -0.390 OA
HETATM   13  H   UNK N   1      37.176  10.228  10.244  0.00  0.00     0.210 HD
ENDBRANCH   8  12
BRANCH   9  14
HETATM   14  O   UNK N   1      38.308  12.124  12.593  0.00  0.00    -0.388 OA
HETATM   15  H   UNK N   1      38.814  12.550  13.303  0.00  0.00     0.210 HD
ENDBRANCH   9  14
BRANCH  10  16
HETATM   16  N   UNK N   1      35.823  13.261  14.127  0.00  0.00    -0.297 N 
HETATM   17  C   UNK N   1      34.913  12.425  14.697  0.00  0.00     0.188 A 
HETATM   18  N   UNK N   1      34.793  12.651  16.034  0.00  0.00    -0.346 N 
HETATM   19  C   UNK N   1      35.646  13.661  16.279  0.00  0.00     0.122 A 
ATOM     20  HN  UNK N   1      34.193  12.164  16.699  1.00  0.00     0.167 HD
HETATM   21  C   UNK N   1      35.922  14.315  17.467  0.00  0.00     0.131 A 
HETATM   22  C   UNK N   1      36.266  14.027  15.138  0.00  0.00     0.142 A 
HETATM   23  N   UNK N   1      36.828  15.337  17.439  0.00  0.00    -0.337 N 
HETATM   24  C   UNK N   1      37.445  15.701  16.266  0.00  0.00     0.183 A 
ATOM     25  HN  UNK N   1      37.048  15.838  18.299  1.00  0.00     0.168 HD
HETATM   26  N   UNK N   1      37.166  15.040  15.100  0.00  0.00    -0.336 N 
ATOM     27  HN  UNK N   1      37.621  15.304  14.225  1.00  0.00     0.168 HD
BRANCH  21  28
HETATM   28  N   UNK N   1      35.286  13.949  18.670  0.00  0.00    -0.383 N 
HETATM   29  H   UNK N   1      34.350  14.210  18.832  0.00  0.00     0.157 HD
HETATM   30  H   UNK N   1      35.777  13.433  19.349  0.00  0.00     0.157 HD
ENDBRANCH  21  28
ENDBRANCH  10  16
ENDBRANCH   6   7
ENDBRANCH   5   6
ENDBRANCH   2   5
BRANCH   2  31
HETATM   31  O   UNK N   1      35.305  17.195   8.738  0.00  0.00    -0.195 OA
BRANCH  31  32
HETATM   32  P   UNK N   1      34.152  16.790   7.498  0.00  0.00     0.401 P 
HETATM   33  O   UNK N   1      34.217  17.925   6.439  0.00  0.00    -0.631 OA
BRANCH  32  34
HETATM   34  O   UNK N   1      34.636  15.349   6.662  0.00  0.00    -0.307 OA
HETATM   35  H   UNK N   1      34.979  14.757   5.975  0.00  0.00     0.222 HD
ENDBRANCH  32  34
BRANCH  32  36
HETATM   36  O   UNK N   1      32.498  16.653   8.059  0.00  0.00    -0.294 OA
BRANCH  36  37
HETATM   37  C   UNK N   1      32.180  17.874   8.659  0.00  0.00     0.215 C 
BRANCH  37  38
HETATM   38  C   UNK N   1      30.747  18.276   8.331  0.00  0.00     0.178 C 
HETATM   39  C   UNK N   1      29.787  18.324   9.509  0.00  0.00     0.180 C 
HETATM   40  C   UNK N   1      28.521  18.496   8.704  0.00  0.00     0.184 C 
HETATM   41  C   UNK N   1      28.765  17.493   7.564  0.00  0.00     0.205 C 
HETATM   42  O   UNK N   1      30.172  17.376   7.417  0.00  0.00    -0.367 OA
BRANCH  39  43
HETATM   43  O   UNK N   1      29.781  17.098  10.186  0.00  0.00    -0.390 OA
HETATM   44  H   UNK N   1      30.264  16.567  10.839  0.00  0.00     0.210 HD
ENDBRANCH  39  43
BRANCH  40  45
HETATM   45  O   UNK N   1      27.357  18.236   9.434  0.00  0.00    -0.390 OA
HETATM   46  H   UNK N   1      26.744  18.861   9.849  0.00  0.00     0.210 HD
ENDBRANCH  40  45
BRANCH  41  47
HETATM   47  C   UNK N   1      28.215  17.906   6.223  0.00  0.00     0.067 A 
HETATM   48  N   UNK N   1      26.993  18.465   6.190  0.00  0.00    -0.352 N 
HETATM   49  C   UNK N   1      26.428  18.457   4.982  0.00  0.00     0.083 A 
ATOM     50  HN  UNK N   1      26.539  18.859   7.014  1.00  0.00     0.166 HD
HETATM   51  C   UNK N   1      27.176  17.845   4.001  0.00  0.00     0.036 A 
HETATM   52 Se   UNK N   1      28.775  17.216   4.621  0.00  0.00     0.000 Se
BRANCH  49  53
HETATM   53  C   UNK N   1      25.078  19.005   4.770  0.00  0.00     0.161 C 
BRANCH  53  54
HETATM   54  N   UNK N   1      24.063  18.436   5.309  0.00  0.00    -0.378 N 
HETATM   55  H   UNK N   1      23.622  18.829   6.097  0.00  0.00     0.158 HD
ATOM     56  HN  UNK N   1      23.707  17.564   4.918  1.00  0.00     0.158 HD
ENDBRANCH  53  54
BRANCH  53  57
HETATM   57  O   UNK N   1      24.898  20.088   3.992  0.00  0.00    -0.345 OA
HETATM   58  H   UNK N   1      24.064  20.452   3.766  0.00  0.00     0.219 HD
ENDBRANCH  53  57
ENDBRANCH  49  53
ENDBRANCH  41  47
ENDBRANCH  37  38
ENDBRANCH  36  37
ENDBRANCH  32  36
ENDBRANCH  31  32
ENDBRANCH   2  31
TORSDOF 20
ENDMDL
MODEL 2
REMARK VINA RESULT:      -8.1      2.387      3.857
REMARK  20 active torsions:
REMARK  status: ('A' for Active; 'I' for Inactive)
REMARK    1  A    between atoms: C_7  and  C_1 
REMARK    2  A    between atoms: O_41  and  C_1 
REMARK    3  A    between atoms: C_8  and  C_2 
REMARK    4  A    between atoms: O_42  and  C_2 
REMARK    5  A    between atoms: C_16  and  C_6 
REMARK    6  A    between atoms: C_10  and  O_32 
REMARK    7  A    between atoms: C_11  and  O_33 
REMARK    8  A    between atoms: C_12  and  O_34 
REMARK    9  A    between atoms: C_13  and  O_35 
REMARK   10  A    between atoms: C_14  and  C_18 
REMARK   11  A    between atoms: N_20  and  C_15 
REMARK   12  A    between atoms: N_21  and  C_16 
REMARK   13  A    between atoms: O_36  and  C_16 
REMARK   14  A    between atoms: C_19  and  N_31 
REMARK   15  A    between atoms: P_46  and  O_37 
REMARK   16  A    between atoms: P_47  and  O_39 
REMARK   17  A    between atoms: P_46  and  O_41 
REMARK   18  A    between atoms: P_47  and  O_42 
REMARK   19  A    between atoms: P_46  and  O_45 
REMARK   20  A    between atoms: P_47  and  O_45 
ROOT
HETATM    1  O   UNK N   1      34.634  19.165   8.303  0.00  0.00    -0.631 OA
HETATM    2  P   UNK N   1      34.211  17.701   8.013  0.00  0.00     0.401 P 
ENDROOT
BRANCH   2   3
HETATM    3  O   UNK N   1      32.512  17.626   8.374  0.00  0.00    -0.307 OA
HETATM    4  H   UNK N   1      31.711  18.164   8.476  0.00  0.00     0.222 HD
ENDBRANCH   2   3
BRANCH   2   5
HETATM    5  O   UNK N   1      35.192  16.705   9.062  0.00  0.00    -0.294 OA
BRANCH   5   6
HETATM    6  C   UNK N   1      34.297  16.155   9.982  0.00  0.00     0.215 C 
BRANCH   6   7
HETATM    7  C   UNK N   1      34.763  14.808  10.516  0.00  0.00     0.180 C 
HETATM    8  C   UNK N   1      36.199  14.483  10.108  0.00  0.00     0.182 C 
HETATM    9  C   UNK N   1      36.577  13.580  11.241  0.00  0.00     0.198 C 
HETATM   10  C   UNK N   1      36.001  14.422  12.376  0.00  0.00     0.262 C 
HETATM   11  O   UNK N   1      34.721  14.832  11.933  0.00  0.00    -0.353 OA
BRANCH   8  12
HETATM   12  O   UNK N   1      36.285  13.863   8.859  0.00  0.00    -0.390 OA
HETATM   13  H   UNK N   1      37.007  13.325   8.497  0.00  0.00     0.210 HD
ENDBRANCH   8  12
BRANCH   9  14
HETATM   14  O   UNK N   1      37.957  13.394  11.336  0.00  0.00    -0.388 OA
HETATM   15  H   UNK N   1      38.591  12.712  11.062  0.00  0.00     0.210 HD
ENDBRANCH   9  14
BRANCH  10  16
HETATM   16  N   UNK N   1      35.903  13.747  13.677  0.00  0.00    -0.297 N 
HETATM   17  C   UNK N   1      36.582  14.145  14.786  0.00  0.00     0.188 A 
HETATM   18  N   UNK N   1      36.325  13.336  15.851  0.00  0.00    -0.346 N 
HETATM   19  C   UNK N   1      35.474  12.413  15.369  0.00  0.00     0.122 A 
ATOM     20  HN  UNK N   1      36.693  13.413  16.798  1.00  0.00     0.167 HD
HETATM   21  C   UNK N   1      34.896  11.329  16.004  0.00  0.00     0.131 A 
HETATM   22  C   UNK N   1      35.219  12.658  14.067  0.00  0.00     0.142 A 
HETATM   23  N   UNK N   1      34.072  10.522  15.272  0.00  0.00    -0.337 N 
HETATM   24  C   UNK N   1      33.828  10.783  13.944  0.00  0.00     0.183 A 
ATOM     25  HN  UNK N   1      33.634   9.714  15.714  1.00  0.00     0.168 HD
HETATM   26  N   UNK N   1      34.404  11.863  13.331  0.00  0.00    -0.336 N 
ATOM     27  HN  UNK N   1      34.226  12.064  12.346  1.00  0.00     0.168 HD
BRANCH  21  28
HETATM   28  N   UNK N   1      35.149  11.055  17.363  0.00  0.00    -0.383 N 
HETATM   29  H   UNK N   1      35.720  10.293  17.615  0.00  0.00     0.157 HD
HETATM   30  H   UNK N   1      34.755  11.625  18.062  0.00  0.00     0.157 HD
ENDBRANCH  21  28
ENDBRANCH  10  16
ENDBRANCH   6   7
ENDBRANCH   5   6
ENDBRANCH   2   5
BRANCH   2  31
HETATM   31  O   UNK N   1      34.502  17.446   6.314  0.00  0.00    -0.195 OA
BRANCH  31  32
HETATM   32  P   UNK N   1      34.605  15.727   6.060  0.00  0.00     0.401 P 
HETATM   33  O   UNK N   1      36.079  15.321   6.340  0.00  0.00    -0.631 OA
BRANCH  32  34
HETATM   34  O   UNK N   1      33.659  14.877   7.240  0.00  0.00    -0.307 OA
HETATM   35  H   UNK N   1      32.920  14.619   7.811  0.00  0.00     0.222 HD
ENDBRANCH  32  34
BRANCH  32  36
HETATM   36  O   UNK N   1      34.188  15.205   4.441  0.00  0.00    -0.294 OA
BRANCH  36  37
HETATM   37  C   UNK N   1      33.386  16.209   3.894  0.00  0.00     0.215 C 
BRANCH  37  38
HETATM   38  C   UNK N   1      31.997  16.188   4.522  0.00  0.00     0.178 C 
HETATM   39  C   UNK N   1      31.171  14.939   4.261  0.00  0.00     0.180 C 
HETATM   40  C   UNK N   1      29.870  15.463   4.819  0.00  0.00     0.184 C 
HETATM   41  C   UNK N   1      29.862  16.890   4.245  0.00  0.00     0.205 C 
HETATM   42  O   UNK N   1      31.218  17.258   4.047  0.00  0.00    -0.367 OA
BRANCH  39  43
HETATM   43  O   UNK N   1      31.061  14.705   2.884  0.00  0.00    -0.390 OA
HETATM   44  H   UNK N   1      30.423  14.587   2.163  0.00  0.00     0.210 HD
ENDBRANCH  39  43
BRANCH  40  45
HETATM   45  O   UNK N   1      28.757  14.705   4.442  0.00  0.00    -0.390 OA
HETATM   46  H   UNK N   1      27.851  14.999   4.259  0.00  0.00     0.210 HD
ENDBRANCH  40  45
BRANCH  41  47
HETATM   47  C   UNK N   1      29.248  17.934   5.140  0.00  0.00     0.067 A 
HETATM   48  N   UNK N   1      29.442  17.818   6.466  0.00  0.00    -0.352 N 
HETATM   49  C   UNK N   1      28.587  18.530   7.201  0.00  0.00     0.083 A 
ATOM     50  HN  UNK N   1      30.176  17.238   6.873  1.00  0.00     0.166 HD
HETATM   51  C   UNK N   1      27.640  19.219   6.476  0.00  0.00     0.036 A 
HETATM   52 Se   UNK N   1      27.823  18.986   4.674  0.00  0.00     0.000 Se
BRANCH  49  53
HETATM   53  C   UNK N   1      28.638  18.498   8.672  0.00  0.00     0.161 C 
BRANCH  53  54
HETATM   54  N   UNK N   1      27.582  18.218   9.344  0.00  0.00    -0.378 N 
HETATM   55  H   UNK N   1      27.620  18.106  10.321  0.00  0.00     0.158 HD
ATOM     56  HN  UNK N   1      26.691  18.110   8.861  1.00  0.00     0.158 HD
ENDBRANCH  53  54
BRANCH  53  57
HETATM   57  O   UNK N   1      29.782  18.783   9.320  0.00  0.00    -0.345 OA
HETATM   58  H   UNK N   1      30.328  19.525   9.143  0.00  0.00     0.219 HD
ENDBRANCH  53  57
ENDBRANCH  49  53
ENDBRANCH  41  47
ENDBRANCH  37  38
ENDBRANCH  36  37
ENDBRANCH  32  36
ENDBRANCH  31  32
ENDBRANCH   2  31
TORSDOF 20
ENDMDL
MODEL 3
REMARK VINA RESULT:      -8.0      3.155     11.886
REMARK  20 active torsions:
REMARK  status: ('A' for Active; 'I' for Inactive)
REMARK    1  A    between atoms: C_7  and  C_1 
REMARK    2  A    between atoms: O_41  and  C_1 
REMARK    3  A    between atoms: C_8  and  C_2 
REMARK    4  A    between atoms: O_42  and  C_2 
REMARK    5  A    between atoms: C_16  and  C_6 
REMARK    6  A    between atoms: C_10  and  O_32 
REMARK    7  A    between atoms: C_11  and  O_33 
REMARK    8  A    between atoms: C_12  and  O_34 
REMARK    9  A    between atoms: C_13  and  O_35 
REMARK   10  A    between atoms: C_14  and  C_18 
REMARK   11  A    between atoms: N_20  and  C_15 
REMARK   12  A    between atoms: N_21  and  C_16 
REMARK   13  A    between atoms: O_36  and  C_16 
REMARK   14  A    between atoms: C_19  and  N_31 
REMARK   15  A    between atoms: P_46  and  O_37 
REMARK   16  A    between atoms: P_47  and  O_39 
REMARK   17  A    between atoms: P_46  and  O_41 
REMARK   18  A    between atoms: P_47  and  O_42 
REMARK   19  A    between atoms: P_46  and  O_45 
REMARK   20  A    between atoms: P_47  and  O_45 
ROOT
HETATM    1  O   UNK N   1      35.222  19.041   7.963  0.00  0.00    -0.631 OA
HETATM    2  P   UNK N   1      34.374  17.805   8.360  0.00  0.00     0.401 P 
ENDROOT
BRANCH   2   3
HETATM    3  O   UNK N   1      34.768  16.575   7.195  0.00  0.00    -0.307 OA
HETATM    4  H   UNK N   1      34.514  15.697   6.871  0.00  0.00     0.222 HD
ENDBRANCH   2   3
BRANCH   2   5
HETATM    5  O   UNK N   1      32.708  18.326   8.287  0.00  0.00    -0.294 OA
BRANCH   5   6
HETATM    6  C   UNK N   1      32.144  17.596   7.240  0.00  0.00     0.215 C 
BRANCH   6   7
HETATM    7  C   UNK N   1      30.717  17.157   7.536  0.00  0.00     0.180 C 
HETATM    8  C   UNK N   1      30.056  18.009   8.619  0.00  0.00     0.182 C 
HETATM    9  C   UNK N   1      28.623  17.848   8.217  0.00  0.00     0.198 C 
HETATM   10  C   UNK N   1      28.805  18.060   6.717  0.00  0.00     0.262 C 
HETATM   11  O   UNK N   1      29.937  17.292   6.359  0.00  0.00    -0.353 OA
BRANCH   8  12
HETATM   12  O   UNK N   1      30.321  17.549   9.912  0.00  0.00    -0.390 OA
HETATM   13  H   UNK N   1      30.417  18.063  10.730  0.00  0.00     0.210 HD
ENDBRANCH   8  12
BRANCH   9  14
HETATM   14  O   UNK N   1      27.793  18.799   8.814  0.00  0.00    -0.388 OA
HETATM   15  H   UNK N   1      26.851  19.027   8.774  0.00  0.00     0.210 HD
ENDBRANCH   9  14
BRANCH  10  16
HETATM   16  N   UNK N   1      27.651  17.696   5.883  0.00  0.00    -0.297 N 
HETATM   17  C   UNK N   1      26.746  18.597   5.414  0.00  0.00     0.188 A 
HETATM   18  N   UNK N   1      25.769  17.993   4.684  0.00  0.00    -0.346 N 
HETATM   19  C   UNK N   1      26.084  16.686   4.721  0.00  0.00     0.122 A 
ATOM     20  HN  UNK N   1      24.977  18.431   4.214  1.00  0.00     0.167 HD
HETATM   21  C   UNK N   1      25.428  15.603   4.165  0.00  0.00     0.131 A 
HETATM   22  C   UNK N   1      27.213  16.507   5.438  0.00  0.00     0.142 A 
HETATM   23  N   UNK N   1      25.955  14.360   4.372  0.00  0.00    -0.337 N 
HETATM   24  C   UNK N   1      27.102  14.194   5.110  0.00  0.00     0.183 A 
ATOM     25  HN  UNK N   1      25.490  13.543   3.975  1.00  0.00     0.168 HD
HETATM   26  N   UNK N   1      27.744  15.277   5.650  0.00  0.00    -0.336 N 
ATOM     27  HN  UNK N   1      28.596  15.162   6.198  1.00  0.00     0.168 HD
BRANCH  21  28
HETATM   28  N   UNK N   1      24.248  15.769   3.413  0.00  0.00    -0.383 N 
HETATM   29  H   UNK N   1      23.459  16.195   3.820  0.00  0.00     0.157 HD
HETATM   30  H   UNK N   1      24.211  15.458   2.479  0.00  0.00     0.157 HD
ENDBRANCH  21  28
ENDBRANCH  10  16
ENDBRANCH   6   7
ENDBRANCH   5   6
ENDBRANCH   2   5
BRANCH   2  31
HETATM   31  O   UNK N   1      34.908  17.351   9.955  0.00  0.00    -0.195 OA
BRANCH  31  32
HETATM   32  P   UNK N   1      34.634  15.639  10.124  0.00  0.00     0.401 P 
HETATM   33  O   UNK N   1      33.312  15.322   9.369  0.00  0.00    -0.631 OA
BRANCH  32  34
HETATM   34  O   UNK N   1      35.865  14.739   9.298  0.00  0.00    -0.307 OA
HETATM   35  H   UNK N   1      36.526  14.479   8.638  0.00  0.00     0.222 HD
ENDBRANCH  32  34
BRANCH  32  36
HETATM   36  O   UNK N   1      34.469  15.089  11.778  0.00  0.00    -0.294 OA
BRANCH  36  37
HETATM   37  C   UNK N   1      35.764  14.931  12.275  0.00  0.00     0.215 C 
BRANCH  37  38
HETATM   38  C   UNK N   1      35.892  13.614  13.033  0.00  0.00     0.178 C 
HETATM   39  C   UNK N   1      36.199  12.389  12.187  0.00  0.00     0.180 C 
HETATM   40  C   UNK N   1      35.980  11.361  13.269  0.00  0.00     0.184 C 
HETATM   41  C   UNK N   1      34.705  11.908  13.934  0.00  0.00     0.205 C 
HETATM   42  O   UNK N   1      34.698  13.310  13.711  0.00  0.00    -0.367 OA
BRANCH  39  43
HETATM   43  O   UNK N   1      35.249  12.248  11.168  0.00  0.00    -0.390 OA
HETATM   44  H   UNK N   1      34.535  11.678  10.844  0.00  0.00     0.210 HD
ENDBRANCH  39  43
BRANCH  40  45
HETATM   45  O   UNK N   1      35.836  10.059  12.780  0.00  0.00    -0.390 OA
HETATM   46  H   UNK N   1      36.503   9.360  12.695  0.00  0.00     0.210 HD
ENDBRANCH  40  45
BRANCH  41  47
HETATM   47  C   UNK N   1      34.623  11.700  15.424  0.00  0.00     0.067 A 
HETATM   48  N   UNK N   1      34.744  12.779  16.217  0.00  0.00    -0.352 N 
HETATM   49  C   UNK N   1      35.034  12.486  17.485  0.00  0.00     0.083 A 
ATOM     50  HN  UNK N   1      34.624  13.734  15.881  1.00  0.00     0.166 HD
HETATM   51  C   UNK N   1      35.197  11.144  17.744  0.00  0.00     0.036 A 
HETATM   52 Se   UNK N   1      34.949  10.105  16.263  0.00  0.00     0.000 Se
BRANCH  49  53
HETATM   53  C   UNK N   1      35.228  13.549  18.486  0.00  0.00     0.161 C 
BRANCH  53  54
HETATM   54  N   UNK N   1      35.686  14.692  18.127  0.00  0.00    -0.378 N 
HETATM   55  H   UNK N   1      36.617  14.791  17.824  0.00  0.00     0.158 HD
ATOM     56  HN  UNK N   1      35.078  15.510  18.156  1.00  0.00     0.158 HD
ENDBRANCH  53  54
BRANCH  53  57
HETATM   57  O   UNK N   1      34.950  13.322  19.783  0.00  0.00    -0.345 OA
HETATM   58  H   UNK N   1      35.069  12.502  20.221  0.00  0.00     0.219 HD
ENDBRANCH  53  57
ENDBRANCH  49  53
ENDBRANCH  41  47
ENDBRANCH  37  38
ENDBRANCH  36  37
ENDBRANCH  32  36
ENDBRANCH  31  32
ENDBRANCH   2  31
TORSDOF 20
ENDMDL
MODEL 4
REMARK VINA RESULT:      -7.9      2.012      2.850
REMARK  20 active torsions:
REMARK  status: ('A' for Active; 'I' for Inactive)
REMARK    1  A    between atoms: C_7  and  C_1 
REMARK    2  A    between atoms: O_41  and  C_1 
REMARK    3  A    between atoms: C_8  and  C_2 
REMARK    4  A    between atoms: O_42  and  C_2 
REMARK    5  A    between atoms: C_16  and  C_6 
REMARK    6  A    between atoms: C_10  and  O_32 
REMARK    7  A    between atoms: C_11  and  O_33 
REMARK    8  A    between atoms: C_12  and  O_34 
REMARK    9  A    between atoms: C_13  and  O_35 
REMARK   10  A    between atoms: C_14  and  C_18 
REMARK   11  A    between atoms: N_20  and  C_15 
REMARK   12  A    between atoms: N_21  and  C_16 
REMARK   13  A    between atoms: O_36  and  C_16 
REMARK   14  A    between atoms: C_19  and  N_31 
REMARK   15  A    between atoms: P_46  and  O_37 
REMARK   16  A    between atoms: P_47  and  O_39 
REMARK   17  A    between atoms: P_46  and  O_41 
REMARK   18  A    between atoms: P_47  and  O_42 
REMARK   19  A    between atoms: P_46  and  O_45 
REMARK   20  A    between atoms: P_47  and  O_45 
ROOT
HETATM    1  O   UNK N   1      35.301  18.985   8.520  0.00  0.00    -0.631 OA
HETATM    2  P   UNK N   1      34.348  17.767   8.403  0.00  0.00     0.401 P 
ENDROOT
BRANCH   2   3
HETATM    3  O   UNK N   1      32.766  18.436   8.130  0.00  0.00    -0.307 OA
HETATM    4  H   UNK N   1      32.069  18.979   8.531  0.00  0.00     0.222 HD
ENDBRANCH   2   3
BRANCH   2   5
HETATM    5  O   UNK N   1      34.489  16.903   9.915  0.00  0.00    -0.294 OA
BRANCH   5   6
HETATM    6  C   UNK N   1      33.782  15.715   9.722  0.00  0.00     0.215 C 
BRANCH   6   7
HETATM    7  C   UNK N   1      34.506  14.504  10.294  0.00  0.00     0.180 C 
HETATM    8  C   UNK N   1      35.987  14.478   9.918  0.00  0.00     0.182 C 
HETATM    9  C   UNK N   1      36.520  13.695  11.076  0.00  0.00     0.198 C 
HETATM   10  C   UNK N   1      35.758  14.418  12.183  0.00  0.00     0.262 C 
HETATM   11  O   UNK N   1      34.430  14.544  11.709  0.00  0.00    -0.353 OA
BRANCH   8  12
HETATM   12  O   UNK N   1      36.226  13.868   8.684  0.00  0.00    -0.390 OA
HETATM   13  H   UNK N   1      37.070  13.570   8.308  0.00  0.00     0.210 HD
ENDBRANCH   8  12
BRANCH   9  14
HETATM   14  O   UNK N   1      37.907  13.802  11.199  0.00  0.00    -0.388 OA
HETATM   15  H   UNK N   1      38.565  13.605  11.884  0.00  0.00     0.210 HD
ENDBRANCH   9  14
BRANCH  10  16
HETATM   16  N   UNK N   1      35.775  13.760  13.496  0.00  0.00    -0.297 N 
HETATM   17  C   UNK N   1      36.516  14.199  14.549  0.00  0.00     0.188 A 
HETATM   18  N   UNK N   1      36.362  13.398  15.640  0.00  0.00    -0.346 N 
HETATM   19  C   UNK N   1      35.512  12.439  15.232  0.00  0.00     0.122 A 
ATOM     20  HN  UNK N   1      36.793  13.502  16.558  1.00  0.00     0.167 HD
HETATM   21  C   UNK N   1      35.018  11.346  15.921  0.00  0.00     0.131 A 
HETATM   22  C   UNK N   1      35.158  12.656  13.948  0.00  0.00     0.142 A 
HETATM   23  N   UNK N   1      34.173  10.501  15.259  0.00  0.00    -0.337 N 
HETATM   24  C   UNK N   1      33.827  10.733  13.949  0.00  0.00     0.183 A 
ATOM     25  HN  UNK N   1      33.796   9.686  15.742  1.00  0.00     0.168 HD
HETATM   26  N   UNK N   1      34.321  11.822  13.282  0.00  0.00    -0.336 N 
ATOM     27  HN  UNK N   1      34.068  12.001  12.310  1.00  0.00     0.168 HD
BRANCH  21  28
HETATM   28  N   UNK N   1      35.375  11.102  17.262  0.00  0.00    -0.383 N 
HETATM   29  H   UNK N   1      34.833  11.478  17.993  0.00  0.00     0.157 HD
HETATM   30  H   UNK N   1      36.168  10.556  17.468  0.00  0.00     0.157 HD
ENDBRANCH  21  28
ENDBRANCH  10  16
ENDBRANCH   6   7
ENDBRANCH   5   6
ENDBRANCH   2   5
BRANCH   2  31
HETATM   31  O   UNK N   1      34.893  16.865   7.015  0.00  0.00    -0.195 OA
BRANCH  31  32
HETATM   32  P   UNK N   1      33.534  16.702   5.938  0.00  0.00     0.401 P 
HETATM   33  O   UNK N   1      33.345  18.081   5.246  0.00  0.00    -0.631 OA
BRANCH  32  34
HETATM   34  O   UNK N   1      33.899  15.588   4.659  0.00  0.00    -0.307 OA
HETATM   35  H   UNK N   1      33.800  15.022   3.879  0.00  0.00     0.222 HD
ENDBRANCH  32  34
BRANCH  32  36
HETATM   36  O   UNK N   1      32.031  16.269   6.726  0.00  0.00    -0.294 OA
BRANCH  36  37
HETATM   37  C   UNK N   1      31.154  15.869   5.715  0.00  0.00     0.215 C 
BRANCH  37  38
HETATM   38  C   UNK N   1      29.853  16.661   5.788  0.00  0.00     0.178 C 
HETATM   39  C   UNK N   1      29.737  17.638   6.947  0.00  0.00     0.180 C 
HETATM   40  C   UNK N   1      28.275  17.966   6.762  0.00  0.00     0.184 C 
HETATM   41  C   UNK N   1      27.699  16.568   6.479  0.00  0.00     0.205 C 
HETATM   42  O   UNK N   1      28.749  15.800   5.913  0.00  0.00    -0.367 OA
BRANCH  39  43
HETATM   43  O   UNK N   1      29.947  16.979   8.164  0.00  0.00    -0.390 OA
HETATM   44  H   UNK N   1      30.114  17.123   9.109  0.00  0.00     0.210 HD
ENDBRANCH  39  43
BRANCH  40  45
HETATM   45  O   UNK N   1      27.699  18.591   7.872  0.00  0.00    -0.390 OA
HETATM   46  H   UNK N   1      27.355  18.194   8.686  0.00  0.00     0.210 HD
ENDBRANCH  40  45
BRANCH  41  47
HETATM   47  C   UNK N   1      26.553  16.536   5.502  0.00  0.00     0.067 A 
HETATM   48  N   UNK N   1      25.585  17.459   5.638  0.00  0.00    -0.352 N 
HETATM   49  C   UNK N   1      24.453  17.151   5.004  0.00  0.00     0.083 A 
ATOM     50  HN  UNK N   1      25.704  18.317   6.177  1.00  0.00     0.166 HD
HETATM   51  C   UNK N   1      24.465  15.933   4.363  0.00  0.00     0.036 A 
HETATM   52 Se   UNK N   1      26.060  15.060   4.537  0.00  0.00     0.000 Se
BRANCH  49  53
HETATM   53  C   UNK N   1      23.279  18.037   5.069  0.00  0.00     0.161 C 
BRANCH  53  54
HETATM   54  N   UNK N   1      22.946  18.738   4.048  0.00  0.00    -0.378 N 
HETATM   55  H   UNK N   1      22.398  19.549   4.148  0.00  0.00     0.158 HD
ATOM     56  HN  UNK N   1      23.254  18.451   3.119  1.00  0.00     0.158 HD
ENDBRANCH  53  54
BRANCH  53  57
HETATM   57  O   UNK N   1      22.562  18.135   6.204  0.00  0.00    -0.345 OA
HETATM   58  H   UNK N   1      21.771  17.665   6.381  0.00  0.00     0.219 HD
ENDBRANCH  53  57
ENDBRANCH  49  53
ENDBRANCH  41  47
ENDBRANCH  37  38
ENDBRANCH  36  37
ENDBRANCH  32  36
ENDBRANCH  31  32
ENDBRANCH   2  31
TORSDOF 20
ENDMDL
MODEL 5
REMARK VINA RESULT:      -7.9      3.234     11.859
REMARK  20 active torsions:
REMARK  status: ('A' for Active; 'I' for Inactive)
REMARK    1  A    between atoms: C_7  and  C_1 
REMARK    2  A    between atoms: O_41  and  C_1 
REMARK    3  A    between atoms: C_8  and  C_2 
REMARK    4  A    between atoms: O_42  and  C_2 
REMARK    5  A    between atoms: C_16  and  C_6 
REMARK    6  A    between atoms: C_10  and  O_32 
REMARK    7  A    between atoms: C_11  and  O_33 
REMARK    8  A    between atoms: C_12  and  O_34 
REMARK    9  A    between atoms: C_13  and  O_35 
REMARK   10  A    between atoms: C_14  and  C_18 
REMARK   11  A    between atoms: N_20  and  C_15 
REMARK   12  A    between atoms: N_21  and  C_16 
REMARK   13  A    between atoms: O_36  and  C_16 
REMARK   14  A    between atoms: C_19  and  N_31 
REMARK   15  A    between atoms: P_46  and  O_37 
REMARK   16  A    between atoms: P_47  and  O_39 
REMARK   17  A    between atoms: P_46  and  O_41 
REMARK   18  A    between atoms: P_47  and  O_42 
REMARK   19  A    between atoms: P_46  and  O_45 
REMARK   20  A    between atoms: P_47  and  O_45 
ROOT
HETATM    1  O   UNK N   1      34.764  18.688   8.075  0.00  0.00    -0.631 OA
HETATM    2  P   UNK N   1      34.411  17.308   8.688  0.00  0.00     0.401 P 
ENDROOT
BRANCH   2   3
HETATM    3  O   UNK N   1      34.938  16.132   7.521  0.00  0.00    -0.307 OA
HETATM    4  H   UNK N   1      35.701  15.837   6.999  0.00  0.00     0.222 HD
ENDBRANCH   2   3
BRANCH   2   5
HETATM    5  O   UNK N   1      32.681  17.323   8.932  0.00  0.00    -0.294 OA
BRANCH   5   6
HETATM    6  C   UNK N   1      32.158  16.580   7.872  0.00  0.00     0.215 C 
BRANCH   6   7
HETATM    7  C   UNK N   1      31.621  17.460   6.751  0.00  0.00     0.180 C 
HETATM    8  C   UNK N   1      32.310  17.190   5.415  0.00  0.00     0.182 C 
HETATM    9  C   UNK N   1      31.214  17.607   4.485  0.00  0.00     0.198 C 
HETATM   10  C   UNK N   1      30.060  16.910   5.201  0.00  0.00     0.262 C 
HETATM   11  O   UNK N   1      30.240  17.195   6.576  0.00  0.00    -0.353 OA
BRANCH   8  12
HETATM   12  O   UNK N   1      33.485  17.928   5.247  0.00  0.00    -0.390 OA
HETATM   13  H   UNK N   1      33.802  18.687   5.761  0.00  0.00     0.210 HD
ENDBRANCH   8  12
BRANCH   9  14
HETATM   14  O   UNK N   1      31.415  17.145   3.183  0.00  0.00    -0.388 OA
HETATM   15  H   UNK N   1      31.056  17.351   2.305  0.00  0.00     0.210 HD
ENDBRANCH   9  14
BRANCH  10  16
HETATM   16  N   UNK N   1      28.714  17.306   4.765  0.00  0.00    -0.297 N 
HETATM   17  C   UNK N   1      28.051  16.713   3.736  0.00  0.00     0.188 A 
HETATM   18  N   UNK N   1      26.831  17.282   3.531  0.00  0.00    -0.346 N 
HETATM   19  C   UNK N   1      26.759  18.257   4.454  0.00  0.00     0.122 A 
ATOM     20  HN  UNK N   1      26.132  17.027   2.835  1.00  0.00     0.167 HD
HETATM   21  C   UNK N   1      25.750  19.172   4.694  0.00  0.00     0.131 A 
HETATM   22  C   UNK N   1      27.885  18.271   5.196  0.00  0.00     0.142 A 
HETATM   23  N   UNK N   1      25.937  20.084   5.694  0.00  0.00    -0.337 N 
HETATM   24  C   UNK N   1      27.094  20.089   6.436  0.00  0.00     0.183 A 
ATOM     25  HN  UNK N   1      25.211  20.772   5.891  1.00  0.00     0.168 HD
HETATM   26  N   UNK N   1      28.082  19.173   6.190  0.00  0.00    -0.336 N 
ATOM     27  HN  UNK N   1      28.943  19.170   6.737  1.00  0.00     0.168 HD
BRANCH  21  28
HETATM   28  N   UNK N   1      24.565  19.174   3.931  0.00  0.00    -0.383 N 
HETATM   29  H   UNK N   1      23.719  19.475   4.335  0.00  0.00     0.157 HD
HETATM   30  H   UNK N   1      24.583  18.875   2.993  0.00  0.00     0.157 HD
ENDBRANCH  21  28
ENDBRANCH  10  16
ENDBRANCH   6   7
ENDBRANCH   5   6
ENDBRANCH   2   5
BRANCH   2  31
HETATM   31  O   UNK N   1      35.336  17.187  10.160  0.00  0.00    -0.195 OA
BRANCH  31  32
HETATM   32  P   UNK N   1      35.580  15.493  10.478  0.00  0.00     0.401 P 
HETATM   33  O   UNK N   1      34.329  14.750   9.931  0.00  0.00    -0.631 OA
BRANCH  32  34
HETATM   34  O   UNK N   1      36.918  14.885   9.557  0.00  0.00    -0.307 OA
HETATM   35  H   UNK N   1      37.777  14.831   9.111  0.00  0.00     0.222 HD
ENDBRANCH  32  34
BRANCH  32  36
HETATM   36  O   UNK N   1      35.762  15.091  12.173  0.00  0.00    -0.294 OA
BRANCH  36  37
HETATM   37  C   UNK N   1      36.692  14.050  12.238  0.00  0.00     0.215 C 
BRANCH  37  38
HETATM   38  C   UNK N   1      36.119  12.866  13.008  0.00  0.00     0.178 C 
HETATM   39  C   UNK N   1      35.421  11.806  12.170  0.00  0.00     0.180 C 
HETATM   40  C   UNK N   1      34.829  11.027  13.319  0.00  0.00     0.184 C 
HETATM   41  C   UNK N   1      34.338  12.172  14.222  0.00  0.00     0.205 C 
HETATM   42  O   UNK N   1      35.160  13.293  13.943  0.00  0.00    -0.367 OA
BRANCH  39  43
HETATM   43  O   UNK N   1      34.411  12.386  11.391  0.00  0.00    -0.390 OA
HETATM   44  H   UNK N   1      33.897  13.198  11.264  0.00  0.00     0.210 HD
ENDBRANCH  39  43
BRANCH  40  45
HETATM   45  O   UNK N   1      33.813  10.149  12.932  0.00  0.00    -0.390 OA
HETATM   46  H   UNK N   1      33.740   9.194  13.082  0.00  0.00     0.210 HD
ENDBRANCH  40  45
BRANCH  41  47
HETATM   47  C   UNK N   1      34.442  11.906  15.702  0.00  0.00     0.067 A 
HETATM   48  N   UNK N   1      34.591  12.962  16.520  0.00  0.00    -0.352 N 
HETATM   49  C   UNK N   1      35.043  12.644  17.734  0.00  0.00     0.083 A 
ATOM     50  HN  UNK N   1      34.378  13.919  16.240  1.00  0.00     0.166 HD
HETATM   51  C   UNK N   1      35.313  11.307  17.915  0.00  0.00     0.036 A 
HETATM   52 Se   UNK N   1      34.955  10.306  16.430  0.00  0.00     0.000 Se
BRANCH  49  53
HETATM   53  C   UNK N   1      35.291  13.681  18.749  0.00  0.00     0.161 C 
BRANCH  53  54
HETATM   54  N   UNK N   1      35.688  14.848  18.392  0.00  0.00    -0.378 N 
HETATM   55  H   UNK N   1      36.646  15.044  18.283  0.00  0.00     0.158 HD
ATOM     56  HN  UNK N   1      35.001  15.582  18.218  1.00  0.00     0.158 HD
ENDBRANCH  53  54
BRANCH  53  57
HETATM   57  O   UNK N   1      35.126  13.407  20.056  0.00  0.00    -0.345 OA
HETATM   58  H   UNK N   1      34.313  13.161  20.454  0.00  0.00     0.219 HD
ENDBRANCH  53  57
ENDBRANCH  49  53
ENDBRANCH  41  47
ENDBRANCH  37  38
ENDBRANCH  36  37
ENDBRANCH  32  36
ENDBRANCH  31  32
ENDBRANCH   2  31
TORSDOF 20
ENDMDL
MODEL 6
REMARK VINA RESULT:      -7.9      8.841     12.879
REMARK  20 active torsions:
REMARK  status: ('A' for Active; 'I' for Inactive)
REMARK    1  A    between atoms: C_7  and  C_1 
REMARK    2  A    between atoms: O_41  and  C_1 
REMARK    3  A    between atoms: C_8  and  C_2 
REMARK    4  A    between atoms: O_42  and  C_2 
REMARK    5  A    between atoms: C_16  and  C_6 
REMARK    6  A    between atoms: C_10  and  O_32 
REMARK    7  A    between atoms: C_11  and  O_33 
REMARK    8  A    between atoms: C_12  and  O_34 
REMARK    9  A    between atoms: C_13  and  O_35 
REMARK   10  A    between atoms: C_14  and  C_18 
REMARK   11  A    between atoms: N_20  and  C_15 
REMARK   12  A    between atoms: N_21  and  C_16 
REMARK   13  A    between atoms: O_36  and  C_16 
REMARK   14  A    between atoms: C_19  and  N_31 
REMARK   15  A    between atoms: P_46  and  O_37 
REMARK   16  A    between atoms: P_47  and  O_39 
REMARK   17  A    between atoms: P_46  and  O_41 
REMARK   18  A    between atoms: P_47  and  O_42 
REMARK   19  A    between atoms: P_46  and  O_45 
REMARK   20  A    between atoms: P_47  and  O_45 
ROOT
HETATM    1  O   UNK N   1      19.954  14.358   2.789  0.00  0.00    -0.631 OA
HETATM    2  P   UNK N   1      20.872  15.473   3.353  0.00  0.00     0.401 P 
ENDROOT
BRANCH   2   3
HETATM    3  O   UNK N   1      21.957  15.885   2.058  0.00  0.00    -0.307 OA
HETATM    4  H   UNK N   1      22.864  16.165   1.859  0.00  0.00     0.222 HD
ENDBRANCH   2   3
BRANCH   2   5
HETATM    5  O   UNK N   1      21.674  14.775   4.740  0.00  0.00    -0.294 OA
BRANCH   5   6
HETATM    6  C   UNK N   1      22.481  15.796   5.245  0.00  0.00     0.215 C 
BRANCH   6   7
HETATM    7  C   UNK N   1      22.316  15.982   6.747  0.00  0.00     0.180 C 
HETATM    8  C   UNK N   1      21.012  16.691   7.108  0.00  0.00     0.182 C 
HETATM    9  C   UNK N   1      20.806  16.138   8.484  0.00  0.00     0.198 C 
HETATM   10  C   UNK N   1      21.125  14.680   8.170  0.00  0.00     0.262 C 
HETATM   11  O   UNK N   1      22.293  14.710   7.372  0.00  0.00    -0.353 OA
BRANCH   8  12
HETATM   12  O   UNK N   1      21.122  18.084   7.085  0.00  0.00    -0.390 OA
HETATM   13  H   UNK N   1      20.753  18.732   7.707  0.00  0.00     0.210 HD
ENDBRANCH   8  12
BRANCH   9  14
HETATM   14  O   UNK N   1      19.503  16.332   8.946  0.00  0.00    -0.388 OA
HETATM   15  H   UNK N   1      18.685  16.715   8.592  0.00  0.00     0.210 HD
ENDBRANCH   9  14
BRANCH  10  16
HETATM   16  N   UNK N   1      21.323  13.811   9.338  0.00  0.00    -0.297 N 
HETATM   17  C   UNK N   1      20.307  13.359  10.122  0.00  0.00     0.188 A 
HETATM   18  N   UNK N   1      20.767  12.587  11.144  0.00  0.00    -0.346 N 
HETATM   19  C   UNK N   1      22.101  12.581  10.983  0.00  0.00     0.122 A 
ATOM     20  HN  UNK N   1      20.222  12.119  11.868  1.00  0.00     0.167 HD
HETATM   21  C   UNK N   1      23.080  11.971  11.747  0.00  0.00     0.131 A 
HETATM   22  C   UNK N   1      22.436  13.311   9.900  0.00  0.00     0.142 A 
HETATM   23  N   UNK N   1      24.383  12.140  11.372  0.00  0.00    -0.337 N 
HETATM   24  C   UNK N   1      24.707  12.894  10.269  0.00  0.00     0.183 A 
ATOM     25  HN  UNK N   1      25.125  11.704  11.919  1.00  0.00     0.168 HD
HETATM   26  N   UNK N   1      23.727  13.487   9.520  0.00  0.00    -0.336 N 
ATOM     27  HN  UNK N   1      23.960  14.047   8.700  1.00  0.00     0.168 HD
BRANCH  21  28
HETATM   28  N   UNK N   1      22.752  11.203  12.882  0.00  0.00    -0.383 N 
HETATM   29  H   UNK N   1      22.566  11.647  13.741  0.00  0.00     0.157 HD
HETATM   30  H   UNK N   1      22.708  10.221  12.816  0.00  0.00     0.157 HD
ENDBRANCH  21  28
ENDBRANCH  10  16
ENDBRANCH   6   7
ENDBRANCH   5   6
ENDBRANCH   2   5
BRANCH   2  31
HETATM   31  O   UNK N   1      19.820  16.809   3.738  0.00  0.00    -0.195 OA
BRANCH  31  32
HETATM   32  P   UNK N   1      19.888  17.921   2.399  0.00  0.00     0.401 P 
HETATM   33  O   UNK N   1      19.700  17.078   1.107  0.00  0.00    -0.631 OA
BRANCH  32  34
HETATM   34  O   UNK N   1      18.538  19.010   2.442  0.00  0.00    -0.307 OA
HETATM   35  H   UNK N   1      17.990  19.798   2.308  0.00  0.00     0.222 HD
ENDBRANCH  32  34
BRANCH  32  36
HETATM   36  O   UNK N   1      21.393  18.806   2.265  0.00  0.00    -0.294 OA
BRANCH  36  37
HETATM   37  C   UNK N   1      21.577  19.465   3.482  0.00  0.00     0.215 C 
BRANCH  37  38
HETATM   38  C   UNK N   1      23.039  19.401   3.912  0.00  0.00     0.178 C 
HETATM   39  C   UNK N   1      23.938  20.498   3.367  0.00  0.00     0.180 C 
HETATM   40  C   UNK N   1      25.248  19.900   3.819  0.00  0.00     0.184 C 
HETATM   41  C   UNK N   1      25.029  18.420   3.460  0.00  0.00     0.205 C 
HETATM   42  O   UNK N   1      23.629  18.193   3.498  0.00  0.00    -0.367 OA
BRANCH  39  43
HETATM   43  O   UNK N   1      23.867  20.539   1.969  0.00  0.00    -0.390 OA
HETATM   44  H   UNK N   1      24.312  20.247   1.158  0.00  0.00     0.210 HD
ENDBRANCH  39  43
BRANCH  40  45
HETATM   45  O   UNK N   1      26.364  20.464   3.192  0.00  0.00    -0.390 OA
HETATM   46  H   UNK N   1      27.303  20.258   3.316  0.00  0.00     0.210 HD
ENDBRANCH  40  45
BRANCH  41  47
HETATM   47  C   UNK N   1      25.661  17.433   4.408  0.00  0.00     0.067 A 
HETATM   48  N   UNK N   1      26.276  17.918   5.501  0.00  0.00    -0.352 N 
HETATM   49  C   UNK N   1      27.112  17.054   6.077  0.00  0.00     0.083 A 
ATOM     50  HN  UNK N   1      26.117  18.861   5.858  1.00  0.00     0.166 HD
HETATM   51  C   UNK N   1      27.225  15.844   5.431  0.00  0.00     0.036 A 
HETATM   52 Se   UNK N   1      26.169  15.736   3.945  0.00  0.00     0.000 Se
BRANCH  49  53
HETATM   53  C   UNK N   1      27.890  17.428   7.270  0.00  0.00     0.161 C 
BRANCH  53  54
HETATM   54  N   UNK N   1      28.992  18.071   7.141  0.00  0.00    -0.378 N 
HETATM   55  H   UNK N   1      29.001  19.001   6.820  0.00  0.00     0.158 HD
ATOM     56  HN  UNK N   1      29.873  17.612   7.374  1.00  0.00     0.158 HD
ENDBRANCH  53  54
BRANCH  53  57
HETATM   57  O   UNK N   1      27.463  17.080   8.498  0.00  0.00    -0.345 OA
HETATM   58  H   UNK N   1      27.617  16.249   8.903  0.00  0.00     0.219 HD
ENDBRANCH  53  57
ENDBRANCH  49  53
ENDBRANCH  41  47
ENDBRANCH  37  38
ENDBRANCH  36  37
ENDBRANCH  32  36
ENDBRANCH  31  32
ENDBRANCH   2  31
TORSDOF 20
ENDMDL
MODEL 7
REMARK VINA RESULT:      -7.8      3.384     11.482
REMARK  20 active torsions:
REMARK  status: ('A' for Active; 'I' for Inactive)
REMARK    1  A    between atoms: C_7  and  C_1 
REMARK    2  A    between atoms: O_41  and  C_1 
REMARK    3  A    between atoms: C_8  and  C_2 
REMARK    4  A    between atoms: O_42  and  C_2 
REMARK    5  A    between atoms: C_16  and  C_6 
REMARK    6  A    between atoms: C_10  and  O_32 
REMARK    7  A    between atoms: C_11  and  O_33 
REMARK    8  A    between atoms: C_12  and  O_34 
REMARK    9  A    between atoms: C_13  and  O_35 
REMARK   10  A    between atoms: C_14  and  C_18 
REMARK   11  A    between atoms: N_20  and  C_15 
REMARK   12  A    between atoms: N_21  and  C_16 
REMARK   13  A    between atoms: O_36  and  C_16 
REMARK   14  A    between atoms: C_19  and  N_31 
REMARK   15  A    between atoms: P_46  and  O_37 
REMARK   16  A    between atoms: P_47  and  O_39 
REMARK   17  A    between atoms: P_46  and  O_41 
REMARK   18  A    between atoms: P_47  and  O_42 
REMARK   19  A    between atoms: P_46  and  O_45 
REMARK   20  A    between atoms: P_47  and  O_45 
ROOT
HETATM    1  O   UNK N   1      33.951  13.573   7.120  0.00  0.00    -0.631 OA
HETATM    2  P   UNK N   1      33.801  14.496   8.356  0.00  0.00     0.401 P 
ENDROOT
BRANCH   2   3
HETATM    3  O   UNK N   1      32.859  13.590   9.503  0.00  0.00    -0.307 OA
HETATM    4  H   UNK N   1      32.754  12.715   9.910  0.00  0.00     0.222 HD
ENDBRANCH   2   3
BRANCH   2   5
HETATM    5  O   UNK N   1      33.001  15.938   7.780  0.00  0.00    -0.294 OA
BRANCH   5   6
HETATM    6  C   UNK N   1      32.886  15.763   6.400  0.00  0.00     0.215 C 
BRANCH   6   7
HETATM    7  C   UNK N   1      31.589  16.336   5.845  0.00  0.00     0.180 C 
HETATM    8  C   UNK N   1      30.587  15.247   5.462  0.00  0.00     0.182 C 
HETATM    9  C   UNK N   1      29.314  16.016   5.631  0.00  0.00     0.198 C 
HETATM   10  C   UNK N   1      29.647  16.678   6.965  0.00  0.00     0.262 C 
HETATM   11  O   UNK N   1      30.977  17.144   6.835  0.00  0.00    -0.353 OA
BRANCH   8  12
HETATM   12  O   UNK N   1      30.772  14.766   4.163  0.00  0.00    -0.390 OA
HETATM   13  H   UNK N   1      31.072  15.248   3.376  0.00  0.00     0.210 HD
ENDBRANCH   8  12
BRANCH   9  14
HETATM   14  O   UNK N   1      28.193  15.186   5.690  0.00  0.00    -0.388 OA
HETATM   15  H   UNK N   1      27.231  15.309   5.681  0.00  0.00     0.210 HD
ENDBRANCH   9  14
BRANCH  10  16
HETATM   16  N   UNK N   1      28.755  17.773   7.368  0.00  0.00    -0.297 N 
HETATM   17  C   UNK N   1      28.259  17.917   8.627  0.00  0.00     0.188 A 
HETATM   18  N   UNK N   1      27.446  19.004   8.725  0.00  0.00    -0.346 N 
HETATM   19  C   UNK N   1      27.438  19.527   7.486  0.00  0.00     0.122 A 
ATOM     20  HN  UNK N   1      26.954  19.345   9.550  1.00  0.00     0.167 HD
HETATM   21  C   UNK N   1      26.761  20.631   6.998  0.00  0.00     0.131 A 
HETATM   22  C   UNK N   1      28.223  18.792   6.672  0.00  0.00     0.142 A 
HETATM   23  N   UNK N   1      26.911  20.940   5.676  0.00  0.00    -0.337 N 
HETATM   24  C   UNK N   1      27.710  20.176   4.859  0.00  0.00     0.183 A 
ATOM     25  HN  UNK N   1      26.422  21.747   5.289  1.00  0.00     0.168 HD
HETATM   26  N   UNK N   1      28.377  19.089   5.358  0.00  0.00    -0.336 N 
ATOM     27  HN  UNK N   1      28.973  18.519   4.758  1.00  0.00     0.168 HD
BRANCH  21  28
HETATM   28  N   UNK N   1      25.936  21.412   7.831  0.00  0.00    -0.383 N 
HETATM   29  H   UNK N   1      24.971  21.225   7.884  0.00  0.00     0.157 HD
HETATM   30  H   UNK N   1      26.325  22.145   8.361  0.00  0.00     0.157 HD
ENDBRANCH  21  28
ENDBRANCH  10  16
ENDBRANCH   6   7
ENDBRANCH   5   6
ENDBRANCH   2   5
BRANCH   2  31
HETATM   31  O   UNK N   1      35.417  14.768   8.949  0.00  0.00    -0.195 OA
BRANCH  31  32
HETATM   32  P   UNK N   1      35.283  15.756  10.377  0.00  0.00     0.401 P 
HETATM   33  O   UNK N   1      36.698  16.338  10.652  0.00  0.00    -0.631 OA
BRANCH  32  34
HETATM   34  O   UNK N   1      34.269  17.131  10.076  0.00  0.00    -0.307 OA
HETATM   35  H   UNK N   1      33.588  17.703   9.689  0.00  0.00     0.222 HD
ENDBRANCH  32  34
BRANCH  32  36
HETATM   36  O   UNK N   1      34.753  14.898  11.809  0.00  0.00    -0.294 OA
BRANCH  36  37
HETATM   37  C   UNK N   1      35.891  14.689  12.591  0.00  0.00     0.215 C 
BRANCH  37  38
HETATM   38  C   UNK N   1      35.830  13.328  13.276  0.00  0.00     0.178 C 
HETATM   39  C   UNK N   1      35.750  12.125  12.350  0.00  0.00     0.180 C 
HETATM   40  C   UNK N   1      35.459  11.096  13.415  0.00  0.00     0.184 C 
HETATM   41  C   UNK N   1      34.433  11.853  14.276  0.00  0.00     0.205 C 
HETATM   42  O   UNK N   1      34.699  13.236  14.106  0.00  0.00    -0.367 OA
BRANCH  39  43
HETATM   43  O   UNK N   1      34.665  12.253  11.474  0.00  0.00    -0.390 OA
HETATM   44  H   UNK N   1      34.052  11.750  10.916  0.00  0.00     0.210 HD
ENDBRANCH  39  43
BRANCH  40  45
HETATM   45  O   UNK N   1      34.973   9.888  12.906  0.00  0.00    -0.390 OA
HETATM   46  H   UNK N   1      35.302   9.363  12.160  0.00  0.00     0.210 HD
ENDBRANCH  40  45
BRANCH  41  47
HETATM   47  C   UNK N   1      34.506  11.569  15.754  0.00  0.00     0.067 A 
HETATM   48  N   UNK N   1      34.673  12.611  16.587  0.00  0.00    -0.352 N 
HETATM   49  C   UNK N   1      35.097  12.267  17.803  0.00  0.00     0.083 A 
ATOM     50  HN  UNK N   1      34.491  13.577  16.314  1.00  0.00     0.166 HD
HETATM   51  C   UNK N   1      35.325  10.920  17.974  0.00  0.00     0.036 A 
HETATM   52 Se   UNK N   1      34.962   9.947  16.472  0.00  0.00     0.000 Se
BRANCH  49  53
HETATM   53  C   UNK N   1      35.358  13.285  18.834  0.00  0.00     0.161 C 
BRANCH  53  54
HETATM   54  N   UNK N   1      35.526  14.512  18.497  0.00  0.00    -0.378 N 
HETATM   55  H   UNK N   1      35.004  14.910  17.764  0.00  0.00     0.158 HD
ATOM     56  HN  UNK N   1      36.210  15.082  18.995  1.00  0.00     0.158 HD
ENDBRANCH  53  54
BRANCH  53  57
HETATM   57  O   UNK N   1      35.446  12.935  20.130  0.00  0.00    -0.345 OA
HETATM   58  H   UNK N   1      35.425  12.054  20.450  0.00  0.00     0.219 HD
ENDBRANCH  53  57
ENDBRANCH  49  53
ENDBRANCH  41  47
ENDBRANCH  37  38
ENDBRANCH  36  37
ENDBRANCH  32  36
ENDBRANCH  31  32
ENDBRANCH   2  31
TORSDOF 20
ENDMDL
MODEL 8
REMARK VINA RESULT:      -7.8      2.634      4.025
REMARK  20 active torsions:
REMARK  status: ('A' for Active; 'I' for Inactive)
REMARK    1  A    between atoms: C_7  and  C_1 
REMARK    2  A    between atoms: O_41  and  C_1 
REMARK    3  A    between atoms: C_8  and  C_2 
REMARK    4  A    between atoms: O_42  and  C_2 
REMARK    5  A    between atoms: C_16  and  C_6 
REMARK    6  A    between atoms: C_10  and  O_32 
REMARK    7  A    between atoms: C_11  and  O_33 
REMARK    8  A    between atoms: C_12  and  O_34 
REMARK    9  A    between atoms: C_13  and  O_35 
REMARK   10  A    between atoms: C_14  and  C_18 
REMARK   11  A    between atoms: N_20  and  C_15 
REMARK   12  A    between atoms: N_21  and  C_16 
REMARK   13  A    between atoms: O_36  and  C_16 
REMARK   14  A    between atoms: C_19  and  N_31 
REMARK   15  A    between atoms: P_46  and  O_37 
REMARK   16  A    between atoms: P_47  and  O_39 
REMARK   17  A    between atoms: P_46  and  O_41 
REMARK   18  A    between atoms: P_47  and  O_42 
REMARK   19  A    between atoms: P_46  and  O_45 
REMARK   20  A    between atoms: P_47  and  O_45 
ROOT
HETATM    1  O   UNK N   1      36.394  16.066  10.335  0.00  0.00    -0.631 OA
HETATM    2  P   UNK N   1      35.192  15.168   9.941  0.00  0.00     0.401 P 
ENDROOT
BRANCH   2   3
HETATM    3  O   UNK N   1      33.850  15.748  10.883  0.00  0.00    -0.307 OA
HETATM    4  H   UNK N   1      32.881  15.766  10.932  0.00  0.00     0.222 HD
ENDBRANCH   2   3
BRANCH   2   5
HETATM    5  O   UNK N   1      35.668  13.534  10.336  0.00  0.00    -0.294 OA
BRANCH   5   6
HETATM    6  C   UNK N   1      36.137  13.600  11.649  0.00  0.00     0.215 C 
BRANCH   6   7
HETATM    7  C   UNK N   1      35.146  13.028  12.654  0.00  0.00     0.180 C 
HETATM    8  C   UNK N   1      34.913  11.531  12.457  0.00  0.00     0.182 C 
HETATM    9  C   UNK N   1      34.530  11.158  13.855  0.00  0.00     0.198 C 
HETATM   10  C   UNK N   1      35.621  11.937  14.584  0.00  0.00     0.262 C 
HETATM   11  O   UNK N   1      35.658  13.208  13.964  0.00  0.00    -0.353 OA
BRANCH   8  12
HETATM   12  O   UNK N   1      33.915  11.252  11.520  0.00  0.00    -0.390 OA
HETATM   13  H   UNK N   1      33.957  10.667  10.746  0.00  0.00     0.210 HD
ENDBRANCH   8  12
BRANCH   9  14
HETATM   14  O   UNK N   1      34.593   9.780  14.075  0.00  0.00    -0.388 OA
HETATM   15  H   UNK N   1      34.110   9.136  14.617  0.00  0.00     0.210 HD
ENDBRANCH   9  14
BRANCH  10  16
HETATM   16  N   UNK N   1      35.436  12.077  16.034  0.00  0.00    -0.297 N 
HETATM   17  C   UNK N   1      35.147  13.256  16.647  0.00  0.00     0.188 A 
HETATM   18  N   UNK N   1      35.046  13.109  17.997  0.00  0.00    -0.346 N 
HETATM   19  C   UNK N   1      35.293  11.804  18.209  0.00  0.00     0.122 A 
ATOM     20  HN  UNK N   1      34.830  13.825  18.690  1.00  0.00     0.167 HD
HETATM   21  C   UNK N   1      35.343  11.097  19.397  0.00  0.00     0.131 A 
HETATM   22  C   UNK N   1      35.525  11.184  17.034  0.00  0.00     0.142 A 
HETATM   23  N   UNK N   1      35.640   9.765  19.337  0.00  0.00    -0.337 N 
HETATM   24  C   UNK N   1      35.881   9.150  18.132  0.00  0.00     0.183 A 
ATOM     25  HN  UNK N   1      35.686   9.220  20.198  1.00  0.00     0.168 HD
HETATM   26  N   UNK N   1      35.822   9.862  16.964  0.00  0.00    -0.336 N 
ATOM     27  HN  UNK N   1      35.998   9.412  16.066  1.00  0.00     0.168 HD
BRANCH  21  28
HETATM   28  N   UNK N   1      35.103  11.726  20.635  0.00  0.00    -0.383 N 
HETATM   29  H   UNK N   1      35.589  12.550  20.872  0.00  0.00     0.157 HD
HETATM   30  H   UNK N   1      34.450  11.342  21.264  0.00  0.00     0.157 HD
ENDBRANCH  21  28
ENDBRANCH  10  16
ENDBRANCH   6   7
ENDBRANCH   5   6
ENDBRANCH   2   5
BRANCH   2  31
HETATM   31  O   UNK N   1      34.929  15.441   8.241  0.00  0.00    -0.195 OA
BRANCH  31  32
HETATM   32  P   UNK N   1      34.248  17.035   8.073  0.00  0.00     0.401 P 
HETATM   33  O   UNK N   1      32.795  16.961   8.620  0.00  0.00    -0.631 OA
BRANCH  32  34
HETATM   34  O   UNK N   1      35.072  18.162   9.101  0.00  0.00    -0.307 OA
HETATM   35  H   UNK N   1      35.680  18.854   9.405  0.00  0.00     0.222 HD
ENDBRANCH  32  34
BRANCH  32  36
HETATM   36  O   UNK N   1      34.187  17.630   6.426  0.00  0.00    -0.294 OA
BRANCH  36  37
HETATM   37  C   UNK N   1      34.043  16.510   5.604  0.00  0.00     0.215 C 
BRANCH  37  38
HETATM   38  C   UNK N   1      32.595  16.358   5.153  0.00  0.00     0.178 C 
HETATM   39  C   UNK N   1      32.382  16.173   3.659  0.00  0.00     0.180 C 
HETATM   40  C   UNK N   1      30.881  16.326   3.669  0.00  0.00     0.184 C 
HETATM   41  C   UNK N   1      30.717  17.513   4.634  0.00  0.00     0.205 C 
HETATM   42  O   UNK N   1      31.841  17.493   5.501  0.00  0.00    -0.367 OA
BRANCH  39  43
HETATM   43  O   UNK N   1      32.982  17.220   2.948  0.00  0.00    -0.390 OA
HETATM   44  H   UNK N   1      32.918  18.168   2.756  0.00  0.00     0.210 HD
ENDBRANCH  39  43
BRANCH  40  45
HETATM   45  O   UNK N   1      30.336  16.560   2.403  0.00  0.00    -0.390 OA
HETATM   46  H   UNK N   1      29.728  16.008   1.888  0.00  0.00     0.210 HD
ENDBRANCH  40  45
BRANCH  41  47
HETATM   47  C   UNK N   1      29.489  17.463   5.506  0.00  0.00     0.067 A 
HETATM   48  N   UNK N   1      29.621  17.804   6.799  0.00  0.00    -0.352 N 
HETATM   49  C   UNK N   1      28.619  17.387   7.573  0.00  0.00     0.083 A 
ATOM     50  HN  UNK N   1      30.416  18.335   7.157  1.00  0.00     0.166 HD
HETATM   51  C   UNK N   1      27.656  16.651   6.920  0.00  0.00     0.036 A 
HETATM   52 Se   UNK N   1      28.003  16.457   5.138  0.00  0.00     0.000 Se
BRANCH  49  53
HETATM   53  C   UNK N   1      28.615  17.650   9.022  0.00  0.00     0.161 C 
BRANCH  53  54
HETATM   54  N   UNK N   1      29.675  17.443   9.714  0.00  0.00    -0.378 N 
HETATM   55  H   UNK N   1      30.561  17.412   9.286  0.00  0.00     0.158 HD
ATOM     56  HN  UNK N   1      29.600  17.308  10.722  1.00  0.00     0.158 HD
ENDBRANCH  53  54
BRANCH  53  57
HETATM   57  O   UNK N   1      27.498  18.086   9.632  0.00  0.00    -0.345 OA
HETATM   58  H   UNK N   1      26.682  18.251   9.201  0.00  0.00     0.219 HD
ENDBRANCH  53  57
ENDBRANCH  49  53
ENDBRANCH  41  47
ENDBRANCH  37  38
ENDBRANCH  36  37
ENDBRANCH  32  36
ENDBRANCH  31  32
ENDBRANCH   2  31
TORSDOF 20
ENDMDL
MODEL 9
REMARK VINA RESULT:      -7.7      2.735      4.884
REMARK  20 active torsions:
REMARK  status: ('A' for Active; 'I' for Inactive)
REMARK    1  A    between atoms: C_7  and  C_1 
REMARK    2  A    between atoms: O_41  and  C_1 
REMARK    3  A    between atoms: C_8  and  C_2 
REMARK    4  A    between atoms: O_42  and  C_2 
REMARK    5  A    between atoms: C_16  and  C_6 
REMARK    6  A    between atoms: C_10  and  O_32 
REMARK    7  A    between atoms: C_11  and  O_33 
REMARK    8  A    between atoms: C_12  and  O_34 
REMARK    9  A    between atoms: C_13  and  O_35 
REMARK   10  A    between atoms: C_14  and  C_18 
REMARK   11  A    between atoms: N_20  and  C_15 
REMARK   12  A    between atoms: N_21  and  C_16 
REMARK   13  A    between atoms: O_36  and  C_16 
REMARK   14  A    between atoms: C_19  and  N_31 
REMARK   15  A    between atoms: P_46  and  O_37 
REMARK   16  A    between atoms: P_47  and  O_39 
REMARK   17  A    between atoms: P_46  and  O_41 
REMARK   18  A    between atoms: P_47  and  O_42 
REMARK   19  A    between atoms: P_46  and  O_45 
REMARK   20  A    between atoms: P_47  and  O_45 
ROOT
HETATM    1  O   UNK N   1      33.730  18.283   6.515  0.00  0.00    -0.631 OA
HETATM    2  P   UNK N   1      33.461  16.991   5.701  0.00  0.00     0.401 P 
ENDROOT
BRANCH   2   3
HETATM    3  O   UNK N   1      32.016  16.304   6.382  0.00  0.00    -0.307 OA
HETATM    4  H   UNK N   1      31.679  15.570   6.919  0.00  0.00     0.222 HD
ENDBRANCH   2   3
BRANCH   2   5
HETATM    5  O   UNK N   1      34.877  15.990   5.913  0.00  0.00    -0.294 OA
BRANCH   5   6
HETATM    6  C   UNK N   1      34.490  15.000   6.819  0.00  0.00     0.215 C 
BRANCH   6   7
HETATM    7  C   UNK N   1      34.861  15.344   8.255  0.00  0.00     0.180 C 
HETATM    8  C   UNK N   1      33.635  15.528   9.147  0.00  0.00     0.182 C 
HETATM    9  C   UNK N   1      34.238  15.167  10.469  0.00  0.00     0.198 C 
HETATM   10  C   UNK N   1      34.998  13.923  10.016  0.00  0.00     0.262 C 
HETATM   11  O   UNK N   1      35.628  14.285   8.801  0.00  0.00    -0.353 OA
BRANCH   8  12
HETATM   12  O   UNK N   1      33.123  16.827   9.112  0.00  0.00    -0.390 OA
HETATM   13  H   UNK N   1      33.544  17.653   9.402  0.00  0.00     0.210 HD
ENDBRANCH   8  12
BRANCH   9  14
HETATM   14  O   UNK N   1      33.272  14.901  11.441  0.00  0.00    -0.388 OA
HETATM   15  H   UNK N   1      33.043  15.256  12.314  0.00  0.00     0.210 HD
ENDBRANCH   9  14
BRANCH  10  16
HETATM   16  N   UNK N   1      35.984  13.402  10.972  0.00  0.00    -0.297 N 
HETATM   17  C   UNK N   1      37.329  13.466  10.778  0.00  0.00     0.188 A 
HETATM   18  N   UNK N   1      38.013  12.896  11.808  0.00  0.00    -0.346 N 
HETATM   19  C   UNK N   1      37.054  12.462  12.645  0.00  0.00     0.122 A 
ATOM     20  HN  UNK N   1      39.023  12.816  11.920  1.00  0.00     0.167 HD
HETATM   21  C   UNK N   1      37.170  11.787  13.847  0.00  0.00     0.131 A 
HETATM   22  C   UNK N   1      35.838  12.767  12.147  0.00  0.00     0.142 A 
HETATM   23  N   UNK N   1      36.021  11.438  14.498  0.00  0.00    -0.337 N 
HETATM   24  C   UNK N   1      34.790  11.751  13.973  0.00  0.00     0.183 A 
ATOM     25  HN  UNK N   1      36.077  10.938  15.385  1.00  0.00     0.168 HD
HETATM   26  N   UNK N   1      34.691  12.424  12.785  0.00  0.00    -0.336 N 
ATOM     27  HN  UNK N   1      33.781  12.660  12.390  1.00  0.00     0.168 HD
BRANCH  21  28
HETATM   28  N   UNK N   1      38.430  11.459  14.385  0.00  0.00    -0.383 N 
HETATM   29  H   UNK N   1      38.504  11.152  15.317  0.00  0.00     0.157 HD
HETATM   30  H   UNK N   1      39.239  11.538  13.827  0.00  0.00     0.157 HD
ENDBRANCH  21  28
ENDBRANCH  10  16
ENDBRANCH   6   7
ENDBRANCH   5   6
ENDBRANCH   2   5
BRANCH   2  31
HETATM   31  O   UNK N   1      33.195  17.507   4.058  0.00  0.00    -0.195 OA
BRANCH  31  32
HETATM   32  P   UNK N   1      32.704  16.105   3.150  0.00  0.00     0.401 P 
HETATM   33  O   UNK N   1      33.818  15.841   2.098  0.00  0.00    -0.631 OA
BRANCH  32  34
HETATM   34  O   UNK N   1      32.681  14.698   4.163  0.00  0.00    -0.307 OA
HETATM   35  H   UNK N   1      32.896  13.826   4.529  0.00  0.00     0.222 HD
ENDBRANCH  32  34
BRANCH  32  36
HETATM   36  O   UNK N   1      31.180  16.284   2.304  0.00  0.00    -0.294 OA
BRANCH  36  37
HETATM   37  C   UNK N   1      30.350  15.258   2.761  0.00  0.00     0.215 C 
BRANCH  37  38
HETATM   38  C   UNK N   1      29.296  15.807   3.717  0.00  0.00     0.178 C 
HETATM   39  C   UNK N   1      27.894  15.243   3.550  0.00  0.00     0.180 C 
HETATM   40  C   UNK N   1      27.197  16.215   4.471  0.00  0.00     0.184 C 
HETATM   41  C   UNK N   1      27.875  17.536   4.064  0.00  0.00     0.205 C 
HETATM   42  O   UNK N   1      29.160  17.198   3.566  0.00  0.00    -0.367 OA
BRANCH  39  43
HETATM   43  O   UNK N   1      27.455  15.408   2.231  0.00  0.00    -0.390 OA
HETATM   44  H   UNK N   1      27.435  14.985   1.358  0.00  0.00     0.210 HD
ENDBRANCH  39  43
BRANCH  40  45
HETATM   45  O   UNK N   1      25.808  16.233   4.315  0.00  0.00    -0.390 OA
HETATM   46  H   UNK N   1      25.267  16.766   3.713  0.00  0.00     0.210 HD
ENDBRANCH  40  45
BRANCH  41  47
HETATM   47  C   UNK N   1      28.082  18.519   5.187  0.00  0.00     0.067 A 
HETATM   48  N   UNK N   1      28.358  18.028   6.408  0.00  0.00    -0.352 N 
HETATM   49  C   UNK N   1      28.159  18.901   7.397  0.00  0.00     0.083 A 
ATOM     50  HN  UNK N   1      28.689  17.076   6.565  1.00  0.00     0.166 HD
HETATM   51  C   UNK N   1      27.672  20.124   6.996  0.00  0.00     0.036 A 
HETATM   52 Se   UNK N   1      27.443  20.235   5.188  0.00  0.00     0.000 Se
BRANCH  49  53
HETATM   53  C   UNK N   1      28.386  18.523   8.802  0.00  0.00     0.161 C 
BRANCH  53  54
HETATM   54  N   UNK N   1      29.519  18.759   9.355  0.00  0.00    -0.378 N 
HETATM   55  H   UNK N   1      29.849  18.196  10.092  0.00  0.00     0.158 HD
ATOM     56  HN  UNK N   1      30.086  19.541   9.027  1.00  0.00     0.158 HD
ENDBRANCH  53  54
BRANCH  53  57
HETATM   57  O   UNK N   1      27.418  17.909   9.507  0.00  0.00    -0.345 OA
HETATM   58  H   UNK N   1      27.201  16.999   9.439  0.00  0.00     0.219 HD
ENDBRANCH  53  57
ENDBRANCH  49  53
ENDBRANCH  41  47
ENDBRANCH  37  38
ENDBRANCH  36  37
ENDBRANCH  32  36
ENDBRANCH  31  32
ENDBRANCH   2  31
TORSDOF 20
ENDMDL
