MODEL 1
REMARK VINA RESULT:      -6.0      0.000      0.000
REMARK  27 active torsions:
REMARK  status: ('A' for Active; 'I' for Inactive)
REMARK    1  A    between atoms: C_2  and  N_1 
REMARK    2  A    between atoms: C_2  and  C_3 
REMARK    3  A    between atoms: C_2  and  C_17 
REMARK    4  A    between atoms: C_3  and  C_4 
REMARK    5  A    between atoms: C_4  and  C_5 
REMARK       I    between atoms: C_5  and  N_7 
REMARK    6  A    between atoms: N_7  and  C_8 
REMARK    7  A    between atoms: C_8  and  C_9 
REMARK    8  A    between atoms: C_8  and  C_10 
REMARK    9  A    between atoms: C_9  and  S_40 
REMARK       I    between atoms: C_10  and  N_12 
REMARK   10  A    between atoms: N_12  and  C_13 
REMARK   11  A    between atoms: C_13  and  C_14 
REMARK   12  A    between atoms: C_14  and  O_16 
REMARK   13  A    between atoms: C_17  and  O_19 
REMARK   14  A    between atoms: C_21  and  N_20 
REMARK   15  A    between atoms: C_21  and  C_22 
REMARK   16  A    between atoms: C_21  and  C_37 
REMARK   17  A    between atoms: C_22  and  C_23 
REMARK   18  A    between atoms: C_23  and  C_24 
REMARK       I    between atoms: C_24  and  N_26 
REMARK   19  A    between atoms: N_26  and  C_27 
REMARK   20  A    between atoms: C_27  and  C_28 
REMARK   21  A    between atoms: C_27  and  C_30 
REMARK   22  A    between atoms: C_28  and  S_29 
REMARK   23  A    between atoms: S_40  and  S_29 
REMARK       I    between atoms: C_30  and  N_32 
REMARK   24  A    between atoms: N_32  and  C_33 
REMARK   25  A    between atoms: C_33  and  C_34 
REMARK   26  A    between atoms: C_34  and  O_36 
REMARK   27  A    between atoms: C_37  and  O_39 
ROOT
HETATM    1  S   UNK N   1      20.642  13.398   4.860  0.00  0.00    -0.095 SA
ENDROOT
BRANCH   1   2
HETATM    2  C   UNK N   1      22.362  13.383   5.448  0.00  0.00     0.120 C 
BRANCH   2   3
HETATM    3  C   UNK N   1      22.565  14.316   6.640  0.00  0.00     0.186 C 
BRANCH   3   4
HETATM    4  N   UNK N   1      21.428  14.459   7.535  0.00  0.00    -0.347 N 
HETATM    5  C   UNK N   1      21.058  13.623   8.542  0.00  0.00     0.218 C 
HETATM    6  O   UNK N   1      20.104  13.931   9.239  0.00  0.00    -0.274 OA
HETATM    7  H   UNK N   1      20.862  15.253   7.397  0.00  0.00     0.163 HD
BRANCH   5   8
HETATM    8  C   UNK N   1      21.810  12.363   8.859  0.00  0.00     0.105 C 
BRANCH   8   9
HETATM    9  C   UNK N   1      22.916  12.636   9.870  0.00  0.00     0.044 C 
BRANCH   9  10
HETATM   10  C   UNK N   1      22.754  11.768  11.117  0.00  0.00     0.173 C 
BRANCH  10  11
HETATM   11  N   UNK N   1      21.430  11.992  11.674  0.00  0.00    -0.418 N 
HETATM   12  H   UNK N   1      21.254  11.894  12.674  0.00  0.00     0.150 HD
HETATM   13  H   UNK N   1      20.663  12.252  11.053  0.00  0.00     0.150 HD
ENDBRANCH  10  11
BRANCH  10  14
HETATM   14  C   UNK N   1      23.814  12.048  12.158  0.00  0.00     0.163 C 
HETATM   15  O   UNK N   1      23.530  12.012  13.344  0.00  0.00    -0.648 OA
BRANCH  14  16
HETATM   16  O   UNK N   1      25.070  12.369  11.787  0.00  0.00    -0.775 OA
HETATM   17  H   UNK N   1      25.640  13.000  12.179  0.00  0.00     0.167 HD
ENDBRANCH  14  16
ENDBRANCH  10  14
ENDBRANCH   9  10
ENDBRANCH   8   9
ENDBRANCH   5   8
ENDBRANCH   3   4
BRANCH   3  18
HETATM   18  C   UNK N   1      23.166  15.635   6.245  0.00  0.00     0.241 C 
HETATM   19  O   UNK N   1      22.462  16.501   5.751  0.00  0.00    -0.271 OA
HETATM   20  N   UNK N   1      24.491  15.866   6.415  0.00  0.00    -0.349 N 
HETATM   21  H   UNK N   1      24.874  16.713   6.091  0.00  0.00     0.163 HD
BRANCH  20  22
HETATM   22  C   UNK N   1      25.358  14.904   7.059  0.00  0.00     0.232 C 
BRANCH  22  23
HETATM   23  C   UNK N   1      26.346  14.344   6.092  0.00  0.00     0.158 C 
HETATM   24  O   UNK N   1      27.364  14.965   5.839  0.00  0.00    -0.649 OA
BRANCH  23  25
HETATM   25  O   UNK N   1      26.102  13.173   5.474  0.00  0.00    -0.775 OA
HETATM   26  H   UNK N   1      26.762  12.773   4.942  0.00  0.00     0.167 HD
ENDBRANCH  23  25
ENDBRANCH  22  23
ENDBRANCH  20  22
ENDBRANCH   3  18
ENDBRANCH   2   3
ENDBRANCH   1   2
BRANCH   1  27
HETATM   27  S   UNK N   1      21.041  11.920   3.381  0.00  0.00    -0.095 SA
BRANCH  27  28
HETATM   28  C   UNK N   1      20.401  12.974   2.048  0.00  0.00     0.120 C 
BRANCH  28  29
HETATM   29  C   UNK N   1      21.422  14.020   1.607  0.00  0.00     0.186 C 
BRANCH  29  30
HETATM   30  N   UNK N   1      20.942  15.016   0.661  0.00  0.00    -0.347 N 
HETATM   31  C   UNK N   1      20.377  16.220   0.943  0.00  0.00     0.218 C 
HETATM   32  O   UNK N   1      20.086  16.961   0.018  0.00  0.00    -0.274 OA
HETATM   33  H   UNK N   1      21.039  14.792  -0.292  0.00  0.00     0.163 HD
BRANCH  31  34
HETATM   34  C   UNK N   1      20.144  16.689   2.350  0.00  0.00     0.105 C 
BRANCH  34  35
HETATM   35  C   UNK N   1      21.014  17.897   2.666  0.00  0.00     0.044 C 
BRANCH  35  36
HETATM   36  C   UNK N   1      20.214  19.197   2.576  0.00  0.00     0.173 C 
BRANCH  36  37
HETATM   37  N   UNK N   1      18.823  18.871   2.309  0.00  0.00    -0.418 N 
HETATM   38  H   UNK N   1      18.117  18.931   3.043  0.00  0.00     0.150 HD
HETATM   39  H   UNK N   1      18.548  18.578   1.372  0.00  0.00     0.150 HD
ENDBRANCH  36  37
BRANCH  36  40
HETATM   40  C   UNK N   1      20.747  20.131   1.516  0.00  0.00     0.163 C 
HETATM   41  O   UNK N   1      21.302  21.169   1.838  0.00  0.00    -0.648 OA
BRANCH  40  42
HETATM   42  O   UNK N   1      20.588  19.846   0.208  0.00  0.00    -0.775 OA
HETATM   43  H   UNK N   1      19.860  20.059  -0.342  0.00  0.00     0.167 HD
ENDBRANCH  40  42
ENDBRANCH  36  40
ENDBRANCH  35  36
ENDBRANCH  34  35
ENDBRANCH  31  34
ENDBRANCH  29  30
BRANCH  29  44
HETATM   44  C   UNK N   1      22.733  13.412   1.200  0.00  0.00     0.241 C 
HETATM   45  O   UNK N   1      22.753  12.465   0.429  0.00  0.00    -0.271 OA
HETATM   46  N   UNK N   1      23.900  13.894   1.695  0.00  0.00    -0.349 N 
HETATM   47  H   UNK N   1      24.742  13.439   1.464  0.00  0.00     0.163 HD
BRANCH  46  48
HETATM   48  C   UNK N   1      23.942  15.056   2.555  0.00  0.00     0.232 C 
BRANCH  48  49
HETATM   49  C   UNK N   1      25.347  15.393   2.926  0.00  0.00     0.158 C 
HETATM   50  O   UNK N   1      26.256  14.650   2.594  0.00  0.00    -0.649 OA
BRANCH  49  51
HETATM   51  O   UNK N   1      25.612  16.496   3.651  0.00  0.00    -0.775 OA
HETATM   52  H   UNK N   1      25.053  16.739   4.363  0.00  0.00     0.167 HD
ENDBRANCH  49  51
ENDBRANCH  48  49
ENDBRANCH  46  48
ENDBRANCH  29  44
ENDBRANCH  28  29
ENDBRANCH  27  28
ENDBRANCH   1  27
TORSDOF 27
ENDMDL
MODEL 2
REMARK VINA RESULT:      -5.9      3.630      8.573
REMARK  27 active torsions:
REMARK  status: ('A' for Active; 'I' for Inactive)
REMARK    1  A    between atoms: C_2  and  N_1 
REMARK    2  A    between atoms: C_2  and  C_3 
REMARK    3  A    between atoms: C_2  and  C_17 
REMARK    4  A    between atoms: C_3  and  C_4 
REMARK    5  A    between atoms: C_4  and  C_5 
REMARK       I    between atoms: C_5  and  N_7 
REMARK    6  A    between atoms: N_7  and  C_8 
REMARK    7  A    between atoms: C_8  and  C_9 
REMARK    8  A    between atoms: C_8  and  C_10 
REMARK    9  A    between atoms: C_9  and  S_40 
REMARK       I    between atoms: C_10  and  N_12 
REMARK   10  A    between atoms: N_12  and  C_13 
REMARK   11  A    between atoms: C_13  and  C_14 
REMARK   12  A    between atoms: C_14  and  O_16 
REMARK   13  A    between atoms: C_17  and  O_19 
REMARK   14  A    between atoms: C_21  and  N_20 
REMARK   15  A    between atoms: C_21  and  C_22 
REMARK   16  A    between atoms: C_21  and  C_37 
REMARK   17  A    between atoms: C_22  and  C_23 
REMARK   18  A    between atoms: C_23  and  C_24 
REMARK       I    between atoms: C_24  and  N_26 
REMARK   19  A    between atoms: N_26  and  C_27 
REMARK   20  A    between atoms: C_27  and  C_28 
REMARK   21  A    between atoms: C_27  and  C_30 
REMARK   22  A    between atoms: C_28  and  S_29 
REMARK   23  A    between atoms: S_40  and  S_29 
REMARK       I    between atoms: C_30  and  N_32 
REMARK   24  A    between atoms: N_32  and  C_33 
REMARK   25  A    between atoms: C_33  and  C_34 
REMARK   26  A    between atoms: C_34  and  O_36 
REMARK   27  A    between atoms: C_37  and  O_39 
ROOT
HETATM    1  S   UNK N   1      24.685  15.977   3.831  0.00  0.00    -0.095 SA
ENDROOT
BRANCH   1   2
HETATM    2  C   UNK N   1      25.645  16.956   5.023  0.00  0.00     0.120 C 
BRANCH   2   3
HETATM    3  C   UNK N   1      26.433  18.073   4.341  0.00  0.00     0.186 C 
BRANCH   3   4
HETATM    4  N   UNK N   1      27.834  17.788   4.075  0.00  0.00    -0.347 N 
HETATM    5  C   UNK N   1      28.734  17.207   4.913  0.00  0.00     0.218 C 
HETATM    6  O   UNK N   1      29.862  16.987   4.500  0.00  0.00    -0.274 OA
HETATM    7  H   UNK N   1      28.169  18.045   3.185  0.00  0.00     0.163 HD
BRANCH   5   8
HETATM    8  C   UNK N   1      28.376  16.781   6.307  0.00  0.00     0.105 C 
BRANCH   8   9
HETATM    9  C   UNK N   1      29.594  16.842   7.218  0.00  0.00     0.044 C 
BRANCH   9  10
HETATM   10  C   UNK N   1      29.497  18.014   8.195  0.00  0.00     0.173 C 
BRANCH  10  11
HETATM   11  N   UNK N   1      30.618  17.947   9.117  0.00  0.00    -0.418 N 
HETATM   12  H   UNK N   1      31.581  18.002   8.784  0.00  0.00     0.150 HD
HETATM   13  H   UNK N   1      30.439  17.842  10.116  0.00  0.00     0.150 HD
ENDBRANCH  10  11
BRANCH  10  14
HETATM   14  C   UNK N   1      28.192  18.027   8.956  0.00  0.00     0.163 C 
HETATM   15  O   UNK N   1      27.893  17.084   9.672  0.00  0.00    -0.648 OA
BRANCH  14  16
HETATM   16  O   UNK N   1      27.334  19.059   8.829  0.00  0.00    -0.775 OA
HETATM   17  H   UNK N   1      27.462  19.855   8.352  0.00  0.00     0.167 HD
ENDBRANCH  14  16
ENDBRANCH  10  14
ENDBRANCH   9  10
ENDBRANCH   8   9
ENDBRANCH   5   8
ENDBRANCH   3   4
BRANCH   3  18
HETATM   18  C   UNK N   1      26.222  19.409   4.991  0.00  0.00     0.241 C 
HETATM   19  O   UNK N   1      26.741  19.650   6.070  0.00  0.00    -0.271 OA
HETATM   20  N   UNK N   1      25.443  20.348   4.399  0.00  0.00    -0.349 N 
HETATM   21  H   UNK N   1      25.268  21.193   4.874  0.00  0.00     0.163 HD
BRANCH  20  22
HETATM   22  C   UNK N   1      24.863  20.144   3.091  0.00  0.00     0.232 C 
BRANCH  22  23
HETATM   23  C   UNK N   1      23.373  20.172   3.158  0.00  0.00     0.158 C 
HETATM   24  O   UNK N   1      22.764  19.181   3.522  0.00  0.00    -0.649 OA
BRANCH  23  25
HETATM   25  O   UNK N   1      22.697  21.277   2.788  0.00  0.00    -0.775 OA
HETATM   26  H   UNK N   1      21.902  21.514   3.224  0.00  0.00     0.167 HD
ENDBRANCH  23  25
ENDBRANCH  22  23
ENDBRANCH  20  22
ENDBRANCH   3  18
ENDBRANCH   2   3
ENDBRANCH   1   2
BRANCH   1  27
HETATM   27  S   UNK N   1      24.217  14.497   5.288  0.00  0.00    -0.095 SA
BRANCH  27  28
HETATM   28  C   UNK N   1      23.609  15.740   6.464  0.00  0.00     0.120 C 
BRANCH  28  29
HETATM   29  C   UNK N   1      22.175  15.453   6.906  0.00  0.00     0.186 C 
BRANCH  29  30
HETATM   30  N   UNK N   1      21.746  14.067   6.806  0.00  0.00    -0.347 N 
HETATM   31  C   UNK N   1      21.447  13.218   7.825  0.00  0.00     0.218 C 
HETATM   32  O   UNK N   1      21.042  12.098   7.554  0.00  0.00    -0.274 OA
HETATM   33  H   UNK N   1      21.661  13.702   5.895  0.00  0.00     0.163 HD
BRANCH  31  34
HETATM   34  C   UNK N   1      21.551  13.623   9.266  0.00  0.00     0.105 C 
BRANCH  34  35
HETATM   35  C   UNK N   1      22.873  13.161   9.862  0.00  0.00     0.044 C 
BRANCH  35  36
HETATM   36  C   UNK N   1      22.670  11.989  10.822  0.00  0.00     0.173 C 
BRANCH  36  37
HETATM   37  N   UNK N   1      21.295  12.005  11.295  0.00  0.00    -0.418 N 
HETATM   38  H   UNK N   1      21.016  12.590  12.083  0.00  0.00     0.150 HD
HETATM   39  H   UNK N   1      20.599  11.422  10.831  0.00  0.00     0.150 HD
ENDBRANCH  36  37
BRANCH  36  40
HETATM   40  C   UNK N   1      23.626  12.026  11.990  0.00  0.00     0.163 C 
HETATM   41  O   UNK N   1      23.204  11.914  13.130  0.00  0.00    -0.648 OA
BRANCH  40  42
HETATM   42  O   UNK N   1      24.946  12.215  11.791  0.00  0.00    -0.775 OA
HETATM   43  H   UNK N   1      25.636  12.156  12.422  0.00  0.00     0.167 HD
ENDBRANCH  40  42
ENDBRANCH  36  40
ENDBRANCH  35  36
ENDBRANCH  34  35
ENDBRANCH  31  34
ENDBRANCH  29  30
BRANCH  29  44
HETATM   44  C   UNK N   1      21.185  16.415   6.315  0.00  0.00     0.241 C 
HETATM   45  O   UNK N   1      21.132  16.567   5.104  0.00  0.00    -0.271 OA
HETATM   46  N   UNK N   1      20.359  17.132   7.115  0.00  0.00    -0.349 N 
HETATM   47  H   UNK N   1      19.763  17.803   6.710  0.00  0.00     0.163 HD
BRANCH  46  48
HETATM   48  C   UNK N   1      20.329  16.942   8.548  0.00  0.00     0.232 C 
BRANCH  48  49
HETATM   49  C   UNK N   1      18.941  16.667   9.021  0.00  0.00     0.158 C 
HETATM   50  O   UNK N   1      18.127  17.574   9.064  0.00  0.00    -0.649 OA
BRANCH  49  51
HETATM   51  O   UNK N   1      18.594  15.432   9.428  0.00  0.00    -0.775 OA
HETATM   52  H   UNK N   1      18.462  14.748   8.803  0.00  0.00     0.167 HD
ENDBRANCH  49  51
ENDBRANCH  48  49
ENDBRANCH  46  48
ENDBRANCH  29  44
ENDBRANCH  28  29
ENDBRANCH  27  28
ENDBRANCH   1  27
TORSDOF 27
ENDMDL
MODEL 3
REMARK VINA RESULT:      -5.8      4.254      9.717
REMARK  27 active torsions:
REMARK  status: ('A' for Active; 'I' for Inactive)
REMARK    1  A    between atoms: C_2  and  N_1 
REMARK    2  A    between atoms: C_2  and  C_3 
REMARK    3  A    between atoms: C_2  and  C_17 
REMARK    4  A    between atoms: C_3  and  C_4 
REMARK    5  A    between atoms: C_4  and  C_5 
REMARK       I    between atoms: C_5  and  N_7 
REMARK    6  A    between atoms: N_7  and  C_8 
REMARK    7  A    between atoms: C_8  and  C_9 
REMARK    8  A    between atoms: C_8  and  C_10 
REMARK    9  A    between atoms: C_9  and  S_40 
REMARK       I    between atoms: C_10  and  N_12 
REMARK   10  A    between atoms: N_12  and  C_13 
REMARK   11  A    between atoms: C_13  and  C_14 
REMARK   12  A    between atoms: C_14  and  O_16 
REMARK   13  A    between atoms: C_17  and  O_19 
REMARK   14  A    between atoms: C_21  and  N_20 
REMARK   15  A    between atoms: C_21  and  C_22 
REMARK   16  A    between atoms: C_21  and  C_37 
REMARK   17  A    between atoms: C_22  and  C_23 
REMARK   18  A    between atoms: C_23  and  C_24 
REMARK       I    between atoms: C_24  and  N_26 
REMARK   19  A    between atoms: N_26  and  C_27 
REMARK   20  A    between atoms: C_27  and  C_28 
REMARK   21  A    between atoms: C_27  and  C_30 
REMARK   22  A    between atoms: C_28  and  S_29 
REMARK   23  A    between atoms: S_40  and  S_29 
REMARK       I    between atoms: C_30  and  N_32 
REMARK   24  A    between atoms: N_32  and  C_33 
REMARK   25  A    between atoms: C_33  and  C_34 
REMARK   26  A    between atoms: C_34  and  O_36 
REMARK   27  A    between atoms: C_37  and  O_39 
ROOT
HETATM    1  S   UNK N   1      25.890  15.381   1.524  0.00  0.00    -0.095 SA
ENDROOT
BRANCH   1   2
HETATM    2  C   UNK N   1      24.663  14.615   2.624  0.00  0.00     0.120 C 
BRANCH   2   3
HETATM    3  C   UNK N   1      23.584  15.607   3.053  0.00  0.00     0.186 C 
BRANCH   3   4
HETATM    4  N   UNK N   1      24.013  16.657   3.962  0.00  0.00    -0.347 N 
HETATM    5  C   UNK N   1      23.405  17.852   4.192  0.00  0.00     0.218 C 
HETATM    6  O   UNK N   1      23.873  18.594   5.041  0.00  0.00    -0.274 OA
HETATM    7  H   UNK N   1      24.837  16.483   4.472  0.00  0.00     0.163 HD
BRANCH   5   8
HETATM    8  C   UNK N   1      22.153  18.268   3.476  0.00  0.00     0.105 C 
BRANCH   8   9
HETATM    9  C   UNK N   1      22.210  19.743   3.101  0.00  0.00     0.044 C 
BRANCH   9  10
HETATM   10  C   UNK N   1      20.831  20.269   2.705  0.00  0.00     0.173 C 
BRANCH  10  11
HETATM   11  N   UNK N   1      19.839  19.252   3.005  0.00  0.00    -0.418 N 
HETATM   12  H   UNK N   1      19.988  18.276   2.749  0.00  0.00     0.150 HD
HETATM   13  H   UNK N   1      18.976  19.518   3.481  0.00  0.00     0.150 HD
ENDBRANCH  10  11
BRANCH  10  14
HETATM   14  C   UNK N   1      20.759  20.657   1.246  0.00  0.00     0.163 C 
HETATM   15  O   UNK N   1      20.719  21.835   0.927  0.00  0.00    -0.648 OA
BRANCH  14  16
HETATM   16  O   UNK N   1      20.706  19.710   0.287  0.00  0.00    -0.775 OA
HETATM   17  H   UNK N   1      21.158  18.890   0.266  0.00  0.00     0.167 HD
ENDBRANCH  14  16
ENDBRANCH  10  14
ENDBRANCH   9  10
ENDBRANCH   8   9
ENDBRANCH   5   8
ENDBRANCH   3   4
BRANCH   3  18
HETATM   18  C   UNK N   1      22.320  14.929   3.498  0.00  0.00     0.241 C 
HETATM   19  O   UNK N   1      22.200  14.568   4.659  0.00  0.00    -0.271 OA
HETATM   20  N   UNK N   1      21.316  14.696   2.618  0.00  0.00    -0.349 N 
HETATM   21  H   UNK N   1      20.524  14.194   2.918  0.00  0.00     0.163 HD
BRANCH  20  22
HETATM   22  C   UNK N   1      21.375  15.164   1.251  0.00  0.00     0.232 C 
BRANCH  22  23
HETATM   23  C   UNK N   1      20.354  16.223   1.005  0.00  0.00     0.158 C 
HETATM   24  O   UNK N   1      20.359  16.835  -0.050  0.00  0.00    -0.649 OA
BRANCH  23  25
HETATM   25  O   UNK N   1      19.449  16.528   1.954  0.00  0.00    -0.775 OA
HETATM   26  H   UNK N   1      19.479  16.104   2.789  0.00  0.00     0.167 HD
ENDBRANCH  23  25
ENDBRANCH  22  23
ENDBRANCH  20  22
ENDBRANCH   3  18
ENDBRANCH   2   3
ENDBRANCH   1   2
BRANCH   1  27
HETATM   27  S   UNK N   1      27.518  14.627   2.669  0.00  0.00    -0.095 SA
BRANCH  27  28
HETATM   28  C   UNK N   1      27.913  16.272   3.330  0.00  0.00     0.120 C 
BRANCH  28  29
HETATM   29  C   UNK N   1      28.194  16.231   4.831  0.00  0.00     0.186 C 
BRANCH  29  30
HETATM   30  N   UNK N   1      29.019  15.125   5.292  0.00  0.00    -0.347 N 
HETATM   31  C   UNK N   1      30.331  15.163   5.644  0.00  0.00     0.218 C 
HETATM   32  O   UNK N   1      30.853  14.144   6.069  0.00  0.00    -0.274 OA
HETATM   33  H   UNK N   1      28.575  14.248   5.356  0.00  0.00     0.163 HD
BRANCH  31  34
HETATM   34  C   UNK N   1      31.146  16.422   5.577  0.00  0.00     0.105 C 
BRANCH  34  35
HETATM   35  C   UNK N   1      31.249  17.072   6.948  0.00  0.00     0.044 C 
BRANCH  35  36
HETATM   36  C   UNK N   1      32.598  16.777   7.603  0.00  0.00     0.173 C 
BRANCH  36  37
HETATM   37  N   UNK N   1      32.407  16.673   9.041  0.00  0.00    -0.418 N 
HETATM   38  H   UNK N   1      31.882  15.899   9.448  0.00  0.00     0.150 HD
HETATM   39  H   UNK N   1      32.804  17.386   9.652  0.00  0.00     0.150 HD
ENDBRANCH  36  37
BRANCH  36  40
HETATM   40  C   UNK N   1      33.635  17.829   7.288  0.00  0.00     0.163 C 
HETATM   41  O   UNK N   1      33.947  18.653   8.132  0.00  0.00    -0.648 OA
BRANCH  40  42
HETATM   42  O   UNK N   1      34.203  17.889   6.066  0.00  0.00    -0.775 OA
HETATM   43  H   UNK N   1      34.942  17.407   5.752  0.00  0.00     0.167 HD
ENDBRANCH  40  42
ENDBRANCH  36  40
ENDBRANCH  35  36
ENDBRANCH  34  35
ENDBRANCH  31  34
ENDBRANCH  29  30
BRANCH  29  44
HETATM   44  C   UNK N   1      26.953  16.417   5.656  0.00  0.00     0.241 C 
HETATM   45  O   UNK N   1      26.172  15.489   5.800  0.00  0.00    -0.271 OA
HETATM   46  N   UNK N   1      26.681  17.615   6.230  0.00  0.00    -0.349 N 
HETATM   47  H   UNK N   1      25.831  17.732   6.713  0.00  0.00     0.163 HD
BRANCH  46  48
HETATM   48  C   UNK N   1      27.603  18.726   6.152  0.00  0.00     0.232 C 
BRANCH  48  49
HETATM   49  C   UNK N   1      27.759  19.383   7.483  0.00  0.00     0.158 C 
HETATM   50  O   UNK N   1      28.734  19.130   8.171  0.00  0.00    -0.649 OA
BRANCH  49  51
HETATM   51  O   UNK N   1      26.815  20.226   7.938  0.00  0.00    -0.775 OA
HETATM   52  H   UNK N   1      26.131  20.521   7.371  0.00  0.00     0.167 HD
ENDBRANCH  49  51
ENDBRANCH  48  49
ENDBRANCH  46  48
ENDBRANCH  29  44
ENDBRANCH  28  29
ENDBRANCH  27  28
ENDBRANCH   1  27
TORSDOF 27
ENDMDL
MODEL 4
REMARK VINA RESULT:      -5.8      4.522      9.954
REMARK  27 active torsions:
REMARK  status: ('A' for Active; 'I' for Inactive)
REMARK    1  A    between atoms: C_2  and  N_1 
REMARK    2  A    between atoms: C_2  and  C_3 
REMARK    3  A    between atoms: C_2  and  C_17 
REMARK    4  A    between atoms: C_3  and  C_4 
REMARK    5  A    between atoms: C_4  and  C_5 
REMARK       I    between atoms: C_5  and  N_7 
REMARK    6  A    between atoms: N_7  and  C_8 
REMARK    7  A    between atoms: C_8  and  C_9 
REMARK    8  A    between atoms: C_8  and  C_10 
REMARK    9  A    between atoms: C_9  and  S_40 
REMARK       I    between atoms: C_10  and  N_12 
REMARK   10  A    between atoms: N_12  and  C_13 
REMARK   11  A    between atoms: C_13  and  C_14 
REMARK   12  A    between atoms: C_14  and  O_16 
REMARK   13  A    between atoms: C_17  and  O_19 
REMARK   14  A    between atoms: C_21  and  N_20 
REMARK   15  A    between atoms: C_21  and  C_22 
REMARK   16  A    between atoms: C_21  and  C_37 
REMARK   17  A    between atoms: C_22  and  C_23 
REMARK   18  A    between atoms: C_23  and  C_24 
REMARK       I    between atoms: C_24  and  N_26 
REMARK   19  A    between atoms: N_26  and  C_27 
REMARK   20  A    between atoms: C_27  and  C_28 
REMARK   21  A    between atoms: C_27  and  C_30 
REMARK   22  A    between atoms: C_28  and  S_29 
REMARK   23  A    between atoms: S_40  and  S_29 
REMARK       I    between atoms: C_30  and  N_32 
REMARK   24  A    between atoms: N_32  and  C_33 
REMARK   25  A    between atoms: C_33  and  C_34 
REMARK   26  A    between atoms: C_34  and  O_36 
REMARK   27  A    between atoms: C_37  and  O_39 
ROOT
HETATM    1  S   UNK N   1      24.572  14.859   5.568  0.00  0.00    -0.095 SA
ENDROOT
BRANCH   1   2
HETATM    2  C   UNK N   1      23.310  15.670   6.593  0.00  0.00     0.120 C 
BRANCH   2   3
HETATM    3  C   UNK N   1      22.518  16.712   5.805  0.00  0.00     0.186 C 
BRANCH   3   4
HETATM    4  N   UNK N   1      23.306  17.737   5.140  0.00  0.00    -0.347 N 
HETATM    5  C   UNK N   1      22.969  18.451   4.032  0.00  0.00     0.218 C 
HETATM    6  O   UNK N   1      23.731  19.322   3.643  0.00  0.00    -0.274 OA
HETATM    7  H   UNK N   1      24.183  17.940   5.539  0.00  0.00     0.163 HD
BRANCH   5   8
HETATM    8  C   UNK N   1      21.675  18.240   3.303  0.00  0.00     0.105 C 
BRANCH   8   9
HETATM    9  C   UNK N   1      20.822  19.500   3.343  0.00  0.00     0.044 C 
BRANCH   9  10
HETATM   10  C   UNK N   1      20.089  19.717   2.019  0.00  0.00     0.173 C 
BRANCH  10  11
HETATM   11  N   UNK N   1      20.044  18.456   1.298  0.00  0.00    -0.418 N 
HETATM   12  H   UNK N   1      20.806  18.172   0.682  0.00  0.00     0.150 HD
HETATM   13  H   UNK N   1      19.235  17.844   1.409  0.00  0.00     0.150 HD
ENDBRANCH  10  11
BRANCH  10  14
HETATM   14  C   UNK N   1      20.738  20.784   1.167  0.00  0.00     0.163 C 
HETATM   15  O   UNK N   1      21.144  20.511   0.049  0.00  0.00    -0.648 OA
BRANCH  14  16
HETATM   16  O   UNK N   1      20.903  22.034   1.644  0.00  0.00    -0.775 OA
HETATM   17  H   UNK N   1      20.275  22.564   2.094  0.00  0.00     0.167 HD
ENDBRANCH  14  16
ENDBRANCH  10  14
ENDBRANCH   9  10
ENDBRANCH   8   9
ENDBRANCH   5   8
ENDBRANCH   3   4
BRANCH   3  18
HETATM   18  C   UNK N   1      21.367  17.276   6.587  0.00  0.00     0.241 C 
HETATM   19  O   UNK N   1      21.469  18.371   7.117  0.00  0.00    -0.271 OA
HETATM   20  N   UNK N   1      20.218  16.570   6.726  0.00  0.00    -0.349 N 
HETATM   21  H   UNK N   1      19.500  16.932   7.296  0.00  0.00     0.163 HD
BRANCH  20  22
HETATM   22  C   UNK N   1      20.015  15.301   6.063  0.00  0.00     0.232 C 
BRANCH  22  23
HETATM   23  C   UNK N   1      18.908  15.390   5.068  0.00  0.00     0.158 C 
HETATM   24  O   UNK N   1      18.160  14.441   4.908  0.00  0.00    -0.649 OA
BRANCH  23  25
HETATM   25  O   UNK N   1      18.751  16.501   4.324  0.00  0.00    -0.775 OA
HETATM   26  H   UNK N   1      18.824  17.349   4.718  0.00  0.00     0.167 HD
ENDBRANCH  23  25
ENDBRANCH  22  23
ENDBRANCH  20  22
ENDBRANCH   3  18
ENDBRANCH   2   3
ENDBRANCH   1   2
BRANCH   1  27
HETATM   27  S   UNK N   1      26.158  15.595   6.781  0.00  0.00    -0.095 SA
BRANCH  27  28
HETATM   28  C   UNK N   1      27.344  15.521   5.407  0.00  0.00     0.120 C 
BRANCH  28  29
HETATM   29  C   UNK N   1      28.514  16.481   5.611  0.00  0.00     0.186 C 
BRANCH  29  30
HETATM   30  N   UNK N   1      28.771  16.885   6.984  0.00  0.00    -0.347 N 
HETATM   31  C   UNK N   1      29.976  17.139   7.560  0.00  0.00     0.218 C 
HETATM   32  O   UNK N   1      30.003  17.529   8.716  0.00  0.00    -0.274 OA
HETATM   33  H   UNK N   1      27.982  16.987   7.563  0.00  0.00     0.163 HD
BRANCH  31  34
HETATM   34  C   UNK N   1      31.270  17.005   6.810  0.00  0.00     0.105 C 
BRANCH  34  35
HETATM   35  C   UNK N   1      32.061  15.805   7.310  0.00  0.00     0.044 C 
BRANCH  35  36
HETATM   36  C   UNK N   1      33.399  16.233   7.912  0.00  0.00     0.173 C 
BRANCH  36  37
HETATM   37  N   UNK N   1      33.143  17.024   9.104  0.00  0.00    -0.418 N 
HETATM   38  H   UNK N   1      32.785  16.592   9.957  0.00  0.00     0.150 HD
HETATM   39  H   UNK N   1      33.323  18.027   9.088  0.00  0.00     0.150 HD
ENDBRANCH  36  37
BRANCH  36  40
HETATM   40  C   UNK N   1      34.247  17.014   6.937  0.00  0.00     0.163 C 
HETATM   41  O   UNK N   1      34.692  16.470   5.939  0.00  0.00    -0.648 OA
BRANCH  40  42
HETATM   42  O   UNK N   1      34.549  18.307   7.173  0.00  0.00    -0.775 OA
HETATM   43  H   UNK N   1      34.221  19.063   6.728  0.00  0.00     0.167 HD
ENDBRANCH  40  42
ENDBRANCH  36  40
ENDBRANCH  35  36
ENDBRANCH  34  35
ENDBRANCH  31  34
ENDBRANCH  29  30
BRANCH  29  44
HETATM   44  C   UNK N   1      28.482  17.641   4.658  0.00  0.00     0.241 C 
HETATM   45  O   UNK N   1      27.979  18.700   5.002  0.00  0.00    -0.271 OA
HETATM   46  N   UNK N   1      28.990  17.519   3.407  0.00  0.00    -0.349 N 
HETATM   47  H   UNK N   1      28.901  18.272   2.778  0.00  0.00     0.163 HD
BRANCH  46  48
HETATM   48  C   UNK N   1      29.659  16.314   2.969  0.00  0.00     0.232 C 
BRANCH  48  49
HETATM   49  C   UNK N   1      31.135  16.428   3.153  0.00  0.00     0.158 C 
HETATM   50  O   UNK N   1      31.782  15.444   3.471  0.00  0.00    -0.649 OA
BRANCH  49  51
HETATM   51  O   UNK N   1      31.749  17.616   3.001  0.00  0.00    -0.775 OA
HETATM   52  H   UNK N   1      32.682  17.677   3.059  0.00  0.00     0.167 HD
ENDBRANCH  49  51
ENDBRANCH  48  49
ENDBRANCH  46  48
ENDBRANCH  29  44
ENDBRANCH  28  29
ENDBRANCH  27  28
ENDBRANCH   1  27
TORSDOF 27
ENDMDL
MODEL 5
REMARK VINA RESULT:      -5.8      4.320      7.263
REMARK  27 active torsions:
REMARK  status: ('A' for Active; 'I' for Inactive)
REMARK    1  A    between atoms: C_2  and  N_1 
REMARK    2  A    between atoms: C_2  and  C_3 
REMARK    3  A    between atoms: C_2  and  C_17 
REMARK    4  A    between atoms: C_3  and  C_4 
REMARK    5  A    between atoms: C_4  and  C_5 
REMARK       I    between atoms: C_5  and  N_7 
REMARK    6  A    between atoms: N_7  and  C_8 
REMARK    7  A    between atoms: C_8  and  C_9 
REMARK    8  A    between atoms: C_8  and  C_10 
REMARK    9  A    between atoms: C_9  and  S_40 
REMARK       I    between atoms: C_10  and  N_12 
REMARK   10  A    between atoms: N_12  and  C_13 
REMARK   11  A    between atoms: C_13  and  C_14 
REMARK   12  A    between atoms: C_14  and  O_16 
REMARK   13  A    between atoms: C_17  and  O_19 
REMARK   14  A    between atoms: C_21  and  N_20 
REMARK   15  A    between atoms: C_21  and  C_22 
REMARK   16  A    between atoms: C_21  and  C_37 
REMARK   17  A    between atoms: C_22  and  C_23 
REMARK   18  A    between atoms: C_23  and  C_24 
REMARK       I    between atoms: C_24  and  N_26 
REMARK   19  A    between atoms: N_26  and  C_27 
REMARK   20  A    between atoms: C_27  and  C_28 
REMARK   21  A    between atoms: C_27  and  C_30 
REMARK   22  A    between atoms: C_28  and  S_29 
REMARK   23  A    between atoms: S_40  and  S_29 
REMARK       I    between atoms: C_30  and  N_32 
REMARK   24  A    between atoms: N_32  and  C_33 
REMARK   25  A    between atoms: C_33  and  C_34 
REMARK   26  A    between atoms: C_34  and  O_36 
REMARK   27  A    between atoms: C_37  and  O_39 
ROOT
HETATM    1  S   UNK N   1      26.578  16.030   3.393  0.00  0.00    -0.095 SA
ENDROOT
BRANCH   1   2
HETATM    2  C   UNK N   1      27.553  16.733   4.756  0.00  0.00     0.120 C 
BRANCH   2   3
HETATM    3  C   UNK N   1      28.161  18.084   4.386  0.00  0.00     0.186 C 
BRANCH   3   4
HETATM    4  N   UNK N   1      29.594  18.087   4.139  0.00  0.00    -0.347 N 
HETATM    5  C   UNK N   1      30.565  17.505   4.893  0.00  0.00     0.218 C 
HETATM    6  O   UNK N   1      31.721  17.556   4.501  0.00  0.00    -0.274 OA
HETATM    7  H   UNK N   1      29.896  18.564   3.332  0.00  0.00     0.163 HD
BRANCH   5   8
HETATM    8  C   UNK N   1      30.262  16.761   6.161  0.00  0.00     0.105 C 
BRANCH   8   9
HETATM    9  C   UNK N   1      30.908  17.447   7.356  0.00  0.00     0.044 C 
BRANCH   9  10
HETATM   10  C   UNK N   1      32.280  16.847   7.665  0.00  0.00     0.173 C 
BRANCH  10  11
HETATM   11  N   UNK N   1      32.269  16.333   9.024  0.00  0.00    -0.418 N 
HETATM   12  H   UNK N   1      31.843  16.862   9.786  0.00  0.00     0.150 HD
HETATM   13  H   UNK N   1      32.696  15.427   9.221  0.00  0.00     0.150 HD
ENDBRANCH  10  11
BRANCH  10  14
HETATM   14  C   UNK N   1      33.400  17.847   7.492  0.00  0.00     0.163 C 
HETATM   15  O   UNK N   1      33.661  18.635   8.388  0.00  0.00    -0.648 OA
BRANCH  14  16
HETATM   16  O   UNK N   1      34.099  17.900   6.340  0.00  0.00    -0.775 OA
HETATM   17  H   UNK N   1      35.029  17.935   6.235  0.00  0.00     0.167 HD
ENDBRANCH  14  16
ENDBRANCH  10  14
ENDBRANCH   9  10
ENDBRANCH   8   9
ENDBRANCH   5   8
ENDBRANCH   3   4
BRANCH   3  18
HETATM   18  C   UNK N   1      27.725  19.186   5.307  0.00  0.00     0.241 C 
HETATM   19  O   UNK N   1      27.967  19.113   6.502  0.00  0.00    -0.271 OA
HETATM   20  N   UNK N   1      27.046  20.257   4.827  0.00  0.00    -0.349 N 
HETATM   21  H   UNK N   1      26.715  20.936   5.458  0.00  0.00     0.163 HD
BRANCH  20  22
HETATM   22  C   UNK N   1      26.794  20.430   3.413  0.00  0.00     0.232 C 
BRANCH  22  23
HETATM   23  C   UNK N   1      25.355  20.200   3.096  0.00  0.00     0.158 C 
HETATM   24  O   UNK N   1      24.747  19.306   3.657  0.00  0.00    -0.649 OA
BRANCH  23  25
HETATM   25  O   UNK N   1      24.735  20.955   2.169  0.00  0.00    -0.775 OA
HETATM   26  H   UNK N   1      25.108  21.771   1.897  0.00  0.00     0.167 HD
ENDBRANCH  23  25
ENDBRANCH  22  23
ENDBRANCH  20  22
ENDBRANCH   3  18
ENDBRANCH   2   3
ENDBRANCH   1   2
BRANCH   1  27
HETATM   27  S   UNK N   1      25.539  14.709   4.698  0.00  0.00    -0.095 SA
BRANCH  27  28
HETATM   28  C   UNK N   1      24.766  16.085   5.597  0.00  0.00     0.120 C 
BRANCH  28  29
HETATM   29  C   UNK N   1      23.299  16.266   5.211  0.00  0.00     0.186 C 
BRANCH  29  30
HETATM   30  N   UNK N   1      22.552  17.235   5.997  0.00  0.00    -0.347 N 
HETATM   31  C   UNK N   1      21.725  18.212   5.538  0.00  0.00     0.218 C 
HETATM   32  O   UNK N   1      21.127  18.902   6.348  0.00  0.00    -0.274 OA
HETATM   33  H   UNK N   1      22.656  17.176   6.974  0.00  0.00     0.163 HD
BRANCH  31  34
HETATM   34  C   UNK N   1      21.484  18.439   4.073  0.00  0.00     0.105 C 
BRANCH  34  35
HETATM   35  C   UNK N   1      20.394  19.479   3.862  0.00  0.00     0.044 C 
BRANCH  35  36
HETATM   36  C   UNK N   1      20.276  19.869   2.388  0.00  0.00     0.173 C 
BRANCH  36  37
HETATM   37  N   UNK N   1      20.243  18.657   1.586  0.00  0.00    -0.418 N 
HETATM   38  H   UNK N   1      21.101  18.157   1.350  0.00  0.00     0.150 HD
HETATM   39  H   UNK N   1      19.348  18.300   1.254  0.00  0.00     0.150 HD
ENDBRANCH  36  37
BRANCH  36  40
HETATM   40  C   UNK N   1      21.404  20.766   1.936  0.00  0.00     0.163 C 
HETATM   41  O   UNK N   1      21.843  20.671   0.802  0.00  0.00    -0.648 OA
BRANCH  40  42
HETATM   42  O   UNK N   1      21.957  21.654   2.786  0.00  0.00    -0.775 OA
HETATM   43  H   UNK N   1      22.646  22.264   2.611  0.00  0.00     0.167 HD
ENDBRANCH  40  42
ENDBRANCH  36  40
ENDBRANCH  35  36
ENDBRANCH  34  35
ENDBRANCH  31  34
ENDBRANCH  29  30
BRANCH  29  44
HETATM   44  C   UNK N   1      22.577  14.959   5.055  0.00  0.00     0.241 C 
HETATM   45  O   UNK N   1      22.379  14.251   6.030  0.00  0.00    -0.271 OA
HETATM   46  N   UNK N   1      22.156  14.546   3.834  0.00  0.00    -0.349 N 
HETATM   47  H   UNK N   1      21.742  13.657   3.746  0.00  0.00     0.163 HD
BRANCH  46  48
HETATM   48  C   UNK N   1      22.300  15.373   2.656  0.00  0.00     0.232 C 
BRANCH  48  49
HETATM   49  C   UNK N   1      21.068  15.324   1.817  0.00  0.00     0.158 C 
HETATM   50  O   UNK N   1      21.154  15.053   0.631  0.00  0.00    -0.649 OA
BRANCH  49  51
HETATM   51  O   UNK N   1      19.867  15.609   2.356  0.00  0.00    -0.775 OA
HETATM   52  H   UNK N   1      19.082  15.450   1.871  0.00  0.00     0.167 HD
ENDBRANCH  49  51
ENDBRANCH  48  49
ENDBRANCH  46  48
ENDBRANCH  29  44
ENDBRANCH  28  29
ENDBRANCH  27  28
ENDBRANCH   1  27
TORSDOF 27
ENDMDL
MODEL 6
REMARK VINA RESULT:      -5.7      4.759      7.078
REMARK  27 active torsions:
REMARK  status: ('A' for Active; 'I' for Inactive)
REMARK    1  A    between atoms: C_2  and  N_1 
REMARK    2  A    between atoms: C_2  and  C_3 
REMARK    3  A    between atoms: C_2  and  C_17 
REMARK    4  A    between atoms: C_3  and  C_4 
REMARK    5  A    between atoms: C_4  and  C_5 
REMARK       I    between atoms: C_5  and  N_7 
REMARK    6  A    between atoms: N_7  and  C_8 
REMARK    7  A    between atoms: C_8  and  C_9 
REMARK    8  A    between atoms: C_8  and  C_10 
REMARK    9  A    between atoms: C_9  and  S_40 
REMARK       I    between atoms: C_10  and  N_12 
REMARK   10  A    between atoms: N_12  and  C_13 
REMARK   11  A    between atoms: C_13  and  C_14 
REMARK   12  A    between atoms: C_14  and  O_16 
REMARK   13  A    between atoms: C_17  and  O_19 
REMARK   14  A    between atoms: C_21  and  N_20 
REMARK   15  A    between atoms: C_21  and  C_22 
REMARK   16  A    between atoms: C_21  and  C_37 
REMARK   17  A    between atoms: C_22  and  C_23 
REMARK   18  A    between atoms: C_23  and  C_24 
REMARK       I    between atoms: C_24  and  N_26 
REMARK   19  A    between atoms: N_26  and  C_27 
REMARK   20  A    between atoms: C_27  and  C_28 
REMARK   21  A    between atoms: C_27  and  C_30 
REMARK   22  A    between atoms: C_28  and  S_29 
REMARK   23  A    between atoms: S_40  and  S_29 
REMARK       I    between atoms: C_30  and  N_32 
REMARK   24  A    between atoms: N_32  and  C_33 
REMARK   25  A    between atoms: C_33  and  C_34 
REMARK   26  A    between atoms: C_34  and  O_36 
REMARK   27  A    between atoms: C_37  and  O_39 
ROOT
HETATM    1  S   UNK N   1      27.243  14.829   5.719  0.00  0.00    -0.095 SA
ENDROOT
BRANCH   1   2
HETATM    2  C   UNK N   1      26.872  16.439   6.477  0.00  0.00     0.120 C 
BRANCH   2   3
HETATM    3  C   UNK N   1      28.108  17.332   6.553  0.00  0.00     0.186 C 
BRANCH   3   4
HETATM    4  N   UNK N   1      28.311  18.029   7.813  0.00  0.00    -0.347 N 
HETATM    5  C   UNK N   1      29.445  18.070   8.563  0.00  0.00     0.218 C 
HETATM    6  O   UNK N   1      29.456  18.760   9.571  0.00  0.00    -0.274 OA
HETATM    7  H   UNK N   1      27.539  18.531   8.163  0.00  0.00     0.163 HD
BRANCH   5   8
HETATM    8  C   UNK N   1      30.696  17.339   8.170  0.00  0.00     0.105 C 
BRANCH   8   9
HETATM    9  C   UNK N   1      31.932  18.125   8.585  0.00  0.00     0.044 C 
BRANCH   9  10
HETATM   10  C   UNK N   1      33.203  17.297   8.401  0.00  0.00     0.173 C 
BRANCH  10  11
HETATM   11  N   UNK N   1      33.656  16.840   9.704  0.00  0.00    -0.418 N 
HETATM   12  H   UNK N   1      33.744  17.485  10.489  0.00  0.00     0.150 HD
HETATM   13  H   UNK N   1      33.890  15.856   9.836  0.00  0.00     0.150 HD
ENDBRANCH  10  11
BRANCH  10  14
HETATM   14  C   UNK N   1      34.301  18.071   7.707  0.00  0.00     0.163 C 
HETATM   15  O   UNK N   1      34.917  18.934   8.312  0.00  0.00    -0.648 OA
BRANCH  14  16
HETATM   16  O   UNK N   1      34.589  17.837   6.411  0.00  0.00    -0.775 OA
HETATM   17  H   UNK N   1      34.533  18.437   5.694  0.00  0.00     0.167 HD
ENDBRANCH  14  16
ENDBRANCH  10  14
ENDBRANCH   9  10
ENDBRANCH   8   9
ENDBRANCH   5   8
ENDBRANCH   3   4
BRANCH   3  18
HETATM   18  C   UNK N   1      28.245  18.233   5.360  0.00  0.00     0.241 C 
HETATM   19  O   UNK N   1      27.490  19.183   5.225  0.00  0.00    -0.271 OA
HETATM   20  N   UNK N   1      29.189  17.990   4.417  0.00  0.00    -0.349 N 
HETATM   21  H   UNK N   1      29.218  18.556   3.612  0.00  0.00     0.163 HD
BRANCH  20  22
HETATM   22  C   UNK N   1      30.153  16.922   4.561  0.00  0.00     0.232 C 
BRANCH  22  23
HETATM   23  C   UNK N   1      31.482  17.327   4.017  0.00  0.00     0.158 C 
HETATM   24  O   UNK N   1      32.361  17.694   4.777  0.00  0.00    -0.649 OA
BRANCH  23  25
HETATM   25  O   UNK N   1      31.703  17.317   2.688  0.00  0.00    -0.775 OA
HETATM   26  H   UNK N   1      32.320  17.912   2.307  0.00  0.00     0.167 HD
ENDBRANCH  23  25
ENDBRANCH  22  23
ENDBRANCH  20  22
ENDBRANCH   3  18
ENDBRANCH   2   3
ENDBRANCH   1   2
BRANCH   1  27
HETATM   27  S   UNK N   1      25.186  14.287   5.649  0.00  0.00    -0.095 SA
BRANCH  27  28
HETATM   28  C   UNK N   1      25.246  14.001   3.856  0.00  0.00     0.120 C 
BRANCH  28  29
HETATM   29  C   UNK N   1      24.723  15.201   3.069  0.00  0.00     0.186 C 
BRANCH  29  30
HETATM   30  N   UNK N   1      24.005  14.890   1.843  0.00  0.00    -0.347 N 
HETATM   31  C   UNK N   1      22.664  14.729   1.687  0.00  0.00     0.218 C 
HETATM   32  O   UNK N   1      22.224  14.530   0.566  0.00  0.00    -0.274 OA
HETATM   33  H   UNK N   1      24.553  14.785   1.032  0.00  0.00     0.163 HD
BRANCH  31  34
HETATM   34  C   UNK N   1      21.702  14.837   2.835  0.00  0.00     0.105 C 
BRANCH  34  35
HETATM   35  C   UNK N   1      21.331  16.290   3.094  0.00  0.00     0.044 C 
BRANCH  35  36
HETATM   36  C   UNK N   1      20.081  16.692   2.312  0.00  0.00     0.173 C 
BRANCH  36  37
HETATM   37  N   UNK N   1      19.485  15.496   1.738  0.00  0.00    -0.418 N 
HETATM   38  H   UNK N   1      18.723  15.560   1.063  0.00  0.00     0.150 HD
HETATM   39  H   UNK N   1      19.834  14.580   2.016  0.00  0.00     0.150 HD
ENDBRANCH  36  37
BRANCH  36  40
HETATM   40  C   UNK N   1      20.378  17.701   1.228  0.00  0.00     0.163 C 
HETATM   41  O   UNK N   1      20.369  17.360   0.056  0.00  0.00    -0.648 OA
BRANCH  40  42
HETATM   42  O   UNK N   1      20.684  18.976   1.542  0.00  0.00    -0.775 OA
HETATM   43  H   UNK N   1      20.478  19.751   1.059  0.00  0.00     0.167 HD
ENDBRANCH  40  42
ENDBRANCH  36  40
ENDBRANCH  35  36
ENDBRANCH  34  35
ENDBRANCH  31  34
ENDBRANCH  29  30
BRANCH  29  44
HETATM   44  C   UNK N   1      25.763  16.267   2.882  0.00  0.00     0.241 C 
HETATM   45  O   UNK N   1      26.815  16.001   2.321  0.00  0.00    -0.271 OA
HETATM   46  N   UNK N   1      25.554  17.523   3.349  0.00  0.00    -0.349 N 
HETATM   47  H   UNK N   1      26.275  18.189   3.272  0.00  0.00     0.163 HD
BRANCH  46  48
HETATM   48  C   UNK N   1      24.301  17.913   3.957  0.00  0.00     0.232 C 
BRANCH  48  49
HETATM   49  C   UNK N   1      24.034  19.365   3.745  0.00  0.00     0.158 C 
HETATM   50  O   UNK N   1      22.887  19.756   3.610  0.00  0.00    -0.649 OA
BRANCH  49  51
HETATM   51  O   UNK N   1      25.056  20.239   3.671  0.00  0.00    -0.775 OA
HETATM   52  H   UNK N   1      25.811  20.130   4.213  0.00  0.00     0.167 HD
ENDBRANCH  49  51
ENDBRANCH  48  49
ENDBRANCH  46  48
ENDBRANCH  29  44
ENDBRANCH  28  29
ENDBRANCH  27  28
ENDBRANCH   1  27
TORSDOF 27
ENDMDL
MODEL 7
REMARK VINA RESULT:      -5.7      4.537      9.003
REMARK  27 active torsions:
REMARK  status: ('A' for Active; 'I' for Inactive)
REMARK    1  A    between atoms: C_2  and  N_1 
REMARK    2  A    between atoms: C_2  and  C_3 
REMARK    3  A    between atoms: C_2  and  C_17 
REMARK    4  A    between atoms: C_3  and  C_4 
REMARK    5  A    between atoms: C_4  and  C_5 
REMARK       I    between atoms: C_5  and  N_7 
REMARK    6  A    between atoms: N_7  and  C_8 
REMARK    7  A    between atoms: C_8  and  C_9 
REMARK    8  A    between atoms: C_8  and  C_10 
REMARK    9  A    between atoms: C_9  and  S_40 
REMARK       I    between atoms: C_10  and  N_12 
REMARK   10  A    between atoms: N_12  and  C_13 
REMARK   11  A    between atoms: C_13  and  C_14 
REMARK   12  A    between atoms: C_14  and  O_16 
REMARK   13  A    between atoms: C_17  and  O_19 
REMARK   14  A    between atoms: C_21  and  N_20 
REMARK   15  A    between atoms: C_21  and  C_22 
REMARK   16  A    between atoms: C_21  and  C_37 
REMARK   17  A    between atoms: C_22  and  C_23 
REMARK   18  A    between atoms: C_23  and  C_24 
REMARK       I    between atoms: C_24  and  N_26 
REMARK   19  A    between atoms: N_26  and  C_27 
REMARK   20  A    between atoms: C_27  and  C_28 
REMARK   21  A    between atoms: C_27  and  C_30 
REMARK   22  A    between atoms: C_28  and  S_29 
REMARK   23  A    between atoms: S_40  and  S_29 
REMARK       I    between atoms: C_30  and  N_32 
REMARK   24  A    between atoms: N_32  and  C_33 
REMARK   25  A    between atoms: C_33  and  C_34 
REMARK   26  A    between atoms: C_34  and  O_36 
REMARK   27  A    between atoms: C_37  and  O_39 
ROOT
HETATM    1  S   UNK N   1      26.633  15.285   5.177  0.00  0.00    -0.095 SA
ENDROOT
BRANCH   1   2
HETATM    2  C   UNK N   1      26.567  17.045   5.626  0.00  0.00     0.120 C 
BRANCH   2   3
HETATM    3  C   UNK N   1      27.924  17.565   6.095  0.00  0.00     0.186 C 
BRANCH   3   4
HETATM    4  N   UNK N   1      27.982  18.041   7.468  0.00  0.00    -0.347 N 
HETATM    5  C   UNK N   1      29.007  17.899   8.351  0.00  0.00     0.218 C 
HETATM    6  O   UNK N   1      28.909  18.418   9.451  0.00  0.00    -0.274 OA
HETATM    7  H   UNK N   1      27.188  18.522   7.796  0.00  0.00     0.163 HD
BRANCH   5   8
HETATM    8  C   UNK N   1      30.273  17.172   8.002  0.00  0.00     0.105 C 
BRANCH   8   9
HETATM    9  C   UNK N   1      31.492  18.005   8.371  0.00  0.00     0.044 C 
BRANCH   9  10
HETATM   10  C   UNK N   1      32.784  17.206   8.200  0.00  0.00     0.173 C 
BRANCH  10  11
HETATM   11  N   UNK N   1      33.181  16.676   9.494  0.00  0.00    -0.418 N 
HETATM   12  H   UNK N   1      32.552  16.085  10.037  0.00  0.00     0.150 HD
HETATM   13  H   UNK N   1      34.104  16.899   9.865  0.00  0.00     0.150 HD
ENDBRANCH  10  11
BRANCH  10  14
HETATM   14  C   UNK N   1      33.902  18.034   7.608  0.00  0.00     0.163 C 
HETATM   15  O   UNK N   1      34.490  18.850   8.299  0.00  0.00    -0.648 OA
BRANCH  14  16
HETATM   16  O   UNK N   1      34.238  17.902   6.309  0.00  0.00    -0.775 OA
HETATM   17  H   UNK N   1      35.098  17.849   5.942  0.00  0.00     0.167 HD
ENDBRANCH  14  16
ENDBRANCH  10  14
ENDBRANCH   9  10
ENDBRANCH   8   9
ENDBRANCH   5   8
ENDBRANCH   3   4
BRANCH   3  18
HETATM   18  C   UNK N   1      28.545  18.523   5.120  0.00  0.00     0.241 C 
HETATM   19  O   UNK N   1      28.146  19.676   5.061  0.00  0.00    -0.271 OA
HETATM   20  N   UNK N   1      29.533  18.115   4.286  0.00  0.00    -0.349 N 
HETATM   21  H   UNK N   1      29.880  18.742   3.611  0.00  0.00     0.163 HD
BRANCH  20  22
HETATM   22  C   UNK N   1      30.091  16.783   4.359  0.00  0.00     0.232 C 
BRANCH  22  23
HETATM   23  C   UNK N   1      31.573  16.833   4.520  0.00  0.00     0.158 C 
HETATM   24  O   UNK N   1      32.161  15.887   5.015  0.00  0.00    -0.649 OA
BRANCH  23  25
HETATM   25  O   UNK N   1      32.259  17.932   4.151  0.00  0.00    -0.775 OA
HETATM   26  H   UNK N   1      33.193  17.906   4.084  0.00  0.00     0.167 HD
ENDBRANCH  23  25
ENDBRANCH  22  23
ENDBRANCH  20  22
ENDBRANCH   3  18
ENDBRANCH   2   3
ENDBRANCH   1   2
BRANCH   1  27
HETATM   27  S   UNK N   1      24.659  15.322   4.384  0.00  0.00    -0.095 SA
BRANCH  27  28
HETATM   28  C   UNK N   1      23.942  15.782   5.988  0.00  0.00     0.120 C 
BRANCH  28  29
HETATM   29  C   UNK N   1      22.745  14.907   6.350  0.00  0.00     0.186 C 
BRANCH  29  30
HETATM   30  N   UNK N   1      22.911  13.479   6.122  0.00  0.00    -0.347 N 
HETATM   31  C   UNK N   1      23.483  12.570   6.955  0.00  0.00     0.218 C 
HETATM   32  O   UNK N   1      23.483  11.394   6.627  0.00  0.00    -0.274 OA
HETATM   33  H   UNK N   1      22.569  13.132   5.267  0.00  0.00     0.163 HD
BRANCH  31  34
HETATM   34  C   UNK N   1      24.069  12.953   8.283  0.00  0.00     0.105 C 
BRANCH  34  35
HETATM   35  C   UNK N   1      23.990  11.790   9.262  0.00  0.00     0.044 C 
BRANCH  35  36
HETATM   36  C   UNK N   1      22.935  12.042  10.339  0.00  0.00     0.173 C 
BRANCH  36  37
HETATM   37  N   UNK N   1      22.402  13.384  10.167  0.00  0.00    -0.418 N 
HETATM   38  H   UNK N   1      21.561  13.684  10.660  0.00  0.00     0.150 HD
HETATM   39  H   UNK N   1      22.877  14.035   9.543  0.00  0.00     0.150 HD
ENDBRANCH  36  37
BRANCH  36  40
HETATM   40  C   UNK N   1      23.483  11.871  11.736  0.00  0.00     0.163 C 
HETATM   41  O   UNK N   1      24.677  12.011  11.946  0.00  0.00    -0.648 OA
BRANCH  40  42
HETATM   42  O   UNK N   1      22.669  11.534  12.756  0.00  0.00    -0.775 OA
HETATM   43  H   UNK N   1      21.901  10.998  12.725  0.00  0.00     0.167 HD
ENDBRANCH  40  42
ENDBRANCH  36  40
ENDBRANCH  35  36
ENDBRANCH  34  35
ENDBRANCH  31  34
ENDBRANCH  29  30
BRANCH  29  44
HETATM   44  C   UNK N   1      21.452  15.438   5.801  0.00  0.00     0.241 C 
HETATM   45  O   UNK N   1      21.201  15.320   4.611  0.00  0.00    -0.271 OA
HETATM   46  N   UNK N   1      20.567  16.069   6.612  0.00  0.00    -0.349 N 
HETATM   47  H   UNK N   1      19.756  16.465   6.218  0.00  0.00     0.163 HD
BRANCH  46  48
HETATM   48  C   UNK N   1      20.779  16.175   8.038  0.00  0.00     0.232 C 
BRANCH  48  49
HETATM   49  C   UNK N   1      19.734  15.422   8.790  0.00  0.00     0.158 C 
HETATM   50  O   UNK N   1      18.749  16.007   9.207  0.00  0.00    -0.649 OA
BRANCH  49  51
HETATM   51  O   UNK N   1      19.891  14.108   9.038  0.00  0.00    -0.775 OA
HETATM   52  H   UNK N   1      20.735  13.766   9.256  0.00  0.00     0.167 HD
ENDBRANCH  49  51
ENDBRANCH  48  49
ENDBRANCH  46  48
ENDBRANCH  29  44
ENDBRANCH  28  29
ENDBRANCH  27  28
ENDBRANCH   1  27
TORSDOF 27
ENDMDL
MODEL 8
REMARK VINA RESULT:      -5.7      3.738      6.465
REMARK  27 active torsions:
REMARK  status: ('A' for Active; 'I' for Inactive)
REMARK    1  A    between atoms: C_2  and  N_1 
REMARK    2  A    between atoms: C_2  and  C_3 
REMARK    3  A    between atoms: C_2  and  C_17 
REMARK    4  A    between atoms: C_3  and  C_4 
REMARK    5  A    between atoms: C_4  and  C_5 
REMARK       I    between atoms: C_5  and  N_7 
REMARK    6  A    between atoms: N_7  and  C_8 
REMARK    7  A    between atoms: C_8  and  C_9 
REMARK    8  A    between atoms: C_8  and  C_10 
REMARK    9  A    between atoms: C_9  and  S_40 
REMARK       I    between atoms: C_10  and  N_12 
REMARK   10  A    between atoms: N_12  and  C_13 
REMARK   11  A    between atoms: C_13  and  C_14 
REMARK   12  A    between atoms: C_14  and  O_16 
REMARK   13  A    between atoms: C_17  and  O_19 
REMARK   14  A    between atoms: C_21  and  N_20 
REMARK   15  A    between atoms: C_21  and  C_22 
REMARK   16  A    between atoms: C_21  and  C_37 
REMARK   17  A    between atoms: C_22  and  C_23 
REMARK   18  A    between atoms: C_23  and  C_24 
REMARK       I    between atoms: C_24  and  N_26 
REMARK   19  A    between atoms: N_26  and  C_27 
REMARK   20  A    between atoms: C_27  and  C_28 
REMARK   21  A    between atoms: C_27  and  C_30 
REMARK   22  A    between atoms: C_28  and  S_29 
REMARK   23  A    between atoms: S_40  and  S_29 
REMARK       I    between atoms: C_30  and  N_32 
REMARK   24  A    between atoms: N_32  and  C_33 
REMARK   25  A    between atoms: C_33  and  C_34 
REMARK   26  A    between atoms: C_34  and  O_36 
REMARK   27  A    between atoms: C_37  and  O_39 
ROOT
HETATM    1  S   UNK N   1      26.295  15.639   3.797  0.00  0.00    -0.095 SA
ENDROOT
BRANCH   1   2
HETATM    2  C   UNK N   1      26.844  16.703   5.163  0.00  0.00     0.120 C 
BRANCH   2   3
HETATM    3  C   UNK N   1      27.405  18.032   4.661  0.00  0.00     0.186 C 
BRANCH   3   4
HETATM    4  N   UNK N   1      28.849  18.092   4.503  0.00  0.00    -0.347 N 
HETATM    5  C   UNK N   1      29.792  17.493   5.280  0.00  0.00     0.218 C 
HETATM    6  O   UNK N   1      30.966  17.600   4.963  0.00  0.00    -0.274 OA
HETATM    7  H   UNK N   1      29.183  18.625   3.745  0.00  0.00     0.163 HD
BRANCH   5   8
HETATM    8  C   UNK N   1      29.437  16.665   6.480  0.00  0.00     0.105 C 
BRANCH   8   9
HETATM    9  C   UNK N   1      30.335  17.012   7.659  0.00  0.00     0.044 C 
BRANCH   9  10
HETATM   10  C   UNK N   1      29.765  18.178   8.467  0.00  0.00     0.173 C 
BRANCH  10  11
HETATM   11  N   UNK N   1      30.832  18.761   9.263  0.00  0.00    -0.418 N 
HETATM   12  H   UNK N   1      31.502  18.173   9.759  0.00  0.00     0.150 HD
HETATM   13  H   UNK N   1      30.913  19.776   9.327  0.00  0.00     0.150 HD
ENDBRANCH  10  11
BRANCH  10  14
HETATM   14  C   UNK N   1      28.618  17.758   9.356  0.00  0.00     0.163 C 
HETATM   15  O   UNK N   1      28.777  16.875  10.184  0.00  0.00    -0.648 OA
BRANCH  14  16
HETATM   16  O   UNK N   1      27.404  18.329   9.224  0.00  0.00    -0.775 OA
HETATM   17  H   UNK N   1      27.193  19.241   9.258  0.00  0.00     0.167 HD
ENDBRANCH  14  16
ENDBRANCH  10  14
ENDBRANCH   9  10
ENDBRANCH   8   9
ENDBRANCH   5   8
ENDBRANCH   3   4
BRANCH   3  18
HETATM   18  C   UNK N   1      26.850  19.212   5.405  0.00  0.00     0.241 C 
HETATM   19  O   UNK N   1      27.416  19.620   6.408  0.00  0.00    -0.271 OA
HETATM   20  N   UNK N   1      25.714  19.820   4.985  0.00  0.00    -0.349 N 
HETATM   21  H   UNK N   1      25.334  20.550   5.525  0.00  0.00     0.163 HD
BRANCH  20  22
HETATM   22  C   UNK N   1      25.042  19.424   3.767  0.00  0.00     0.232 C 
BRANCH  22  23
HETATM   23  C   UNK N   1      25.100  20.513   2.749  0.00  0.00     0.158 C 
HETATM   24  O   UNK N   1      26.171  21.023   2.468  0.00  0.00    -0.649 OA
BRANCH  23  25
HETATM   25  O   UNK N   1      23.971  20.955   2.163  0.00  0.00    -0.775 OA
HETATM   26  H   UNK N   1      23.161  20.502   2.294  0.00  0.00     0.167 HD
ENDBRANCH  23  25
ENDBRANCH  22  23
ENDBRANCH  20  22
ENDBRANCH   3  18
ENDBRANCH   2   3
ENDBRANCH   1   2
BRANCH   1  27
HETATM   27  S   UNK N   1      25.367  14.259   5.126  0.00  0.00    -0.095 SA
BRANCH  27  28
HETATM   28  C   UNK N   1      24.561  15.590   6.064  0.00  0.00     0.120 C 
BRANCH  28  29
HETATM   29  C   UNK N   1      23.169  15.908   5.522  0.00  0.00     0.186 C 
BRANCH  29  30
HETATM   30  N   UNK N   1      22.471  17.005   6.173  0.00  0.00    -0.347 N 
HETATM   31  C   UNK N   1      21.773  18.009   5.580  0.00  0.00     0.218 C 
HETATM   32  O   UNK N   1      21.194  18.819   6.287  0.00  0.00    -0.274 OA
HETATM   33  H   UNK N   1      22.507  17.021   7.157  0.00  0.00     0.163 HD
BRANCH  31  34
HETATM   34  C   UNK N   1      21.648  18.130   4.088  0.00  0.00     0.105 C 
BRANCH  34  35
HETATM   35  C   UNK N   1      20.202  17.946   3.652  0.00  0.00     0.044 C 
BRANCH  35  36
HETATM   36  C   UNK N   1      19.814  18.957   2.573  0.00  0.00     0.173 C 
BRANCH  36  37
HETATM   37  N   UNK N   1      20.202  18.428   1.276  0.00  0.00    -0.418 N 
HETATM   38  H   UNK N   1      21.129  18.029   1.125  0.00  0.00     0.150 HD
HETATM   39  H   UNK N   1      19.537  18.456   0.504  0.00  0.00     0.150 HD
ENDBRANCH  36  37
BRANCH  36  40
HETATM   40  C   UNK N   1      20.444  20.311   2.797  0.00  0.00     0.163 C 
HETATM   41  O   UNK N   1      20.220  20.928   3.825  0.00  0.00    -0.648 OA
BRANCH  40  42
HETATM   42  O   UNK N   1      21.233  20.865   1.853  0.00  0.00    -0.775 OA
HETATM   43  H   UNK N   1      21.049  20.970   0.941  0.00  0.00     0.167 HD
ENDBRANCH  40  42
ENDBRANCH  36  40
ENDBRANCH  35  36
ENDBRANCH  34  35
ENDBRANCH  31  34
ENDBRANCH  29  30
BRANCH  29  44
HETATM   44  C   UNK N   1      22.316  14.683   5.367  0.00  0.00     0.241 C 
HETATM   45  O   UNK N   1      21.919  14.086   6.357  0.00  0.00    -0.271 OA
HETATM   46  N   UNK N   1      21.995  14.218   4.134  0.00  0.00    -0.349 N 
HETATM   47  H   UNK N   1      21.488  13.377   4.057  0.00  0.00     0.163 HD
BRANCH  46  48
HETATM   48  C   UNK N   1      22.376  14.921   2.930  0.00  0.00     0.232 C 
BRANCH  48  49
HETATM   49  C   UNK N   1      21.260  14.929   1.941  0.00  0.00     0.158 C 
HETATM   50  O   UNK N   1      21.370  15.569   0.909  0.00  0.00    -0.649 OA
BRANCH  49  51
HETATM   51  O   UNK N   1      20.121  14.259   2.198  0.00  0.00    -0.775 OA
HETATM   52  H   UNK N   1      20.123  13.324   2.246  0.00  0.00     0.167 HD
ENDBRANCH  49  51
ENDBRANCH  48  49
ENDBRANCH  46  48
ENDBRANCH  29  44
ENDBRANCH  28  29
ENDBRANCH  27  28
ENDBRANCH   1  27
TORSDOF 27
ENDMDL
MODEL 9
REMARK VINA RESULT:      -5.7      4.816      9.792
REMARK  27 active torsions:
REMARK  status: ('A' for Active; 'I' for Inactive)
REMARK    1  A    between atoms: C_2  and  N_1 
REMARK    2  A    between atoms: C_2  and  C_3 
REMARK    3  A    between atoms: C_2  and  C_17 
REMARK    4  A    between atoms: C_3  and  C_4 
REMARK    5  A    between atoms: C_4  and  C_5 
REMARK       I    between atoms: C_5  and  N_7 
REMARK    6  A    between atoms: N_7  and  C_8 
REMARK    7  A    between atoms: C_8  and  C_9 
REMARK    8  A    between atoms: C_8  and  C_10 
REMARK    9  A    between atoms: C_9  and  S_40 
REMARK       I    between atoms: C_10  and  N_12 
REMARK   10  A    between atoms: N_12  and  C_13 
REMARK   11  A    between atoms: C_13  and  C_14 
REMARK   12  A    between atoms: C_14  and  O_16 
REMARK   13  A    between atoms: C_17  and  O_19 
REMARK   14  A    between atoms: C_21  and  N_20 
REMARK   15  A    between atoms: C_21  and  C_22 
REMARK   16  A    between atoms: C_21  and  C_37 
REMARK   17  A    between atoms: C_22  and  C_23 
REMARK   18  A    between atoms: C_23  and  C_24 
REMARK       I    between atoms: C_24  and  N_26 
REMARK   19  A    between atoms: N_26  and  C_27 
REMARK   20  A    between atoms: C_27  and  C_28 
REMARK   21  A    between atoms: C_27  and  C_30 
REMARK   22  A    between atoms: C_28  and  S_29 
REMARK   23  A    between atoms: S_40  and  S_29 
REMARK       I    between atoms: C_30  and  N_32 
REMARK   24  A    between atoms: N_32  and  C_33 
REMARK   25  A    between atoms: C_33  and  C_34 
REMARK   26  A    between atoms: C_34  and  O_36 
REMARK   27  A    between atoms: C_37  and  O_39 
ROOT
HETATM    1  S   UNK N   1      24.409  15.459   6.421  0.00  0.00    -0.095 SA
ENDROOT
BRANCH   1   2
HETATM    2  C   UNK N   1      25.205  15.287   4.797  0.00  0.00     0.120 C 
BRANCH   2   3
HETATM    3  C   UNK N   1      24.647  16.281   3.780  0.00  0.00     0.186 C 
BRANCH   3   4
HETATM    4  N   UNK N   1      23.684  15.745   2.832  0.00  0.00    -0.347 N 
HETATM    5  C   UNK N   1      22.331  15.693   2.967  0.00  0.00     0.218 C 
HETATM    6  O   UNK N   1      21.665  15.262   2.039  0.00  0.00    -0.274 OA
HETATM    7  H   UNK N   1      24.052  15.378   1.996  0.00  0.00     0.163 HD
BRANCH   5   8
HETATM    8  C   UNK N   1      21.625  16.194   4.194  0.00  0.00     0.105 C 
BRANCH   8   9
HETATM    9  C   UNK N   1      20.523  17.174   3.818  0.00  0.00     0.044 C 
BRANCH   9  10
HETATM   10  C   UNK N   1      21.101  18.466   3.240  0.00  0.00     0.173 C 
BRANCH  10  11
HETATM   11  N   UNK N   1      20.888  19.541   4.194  0.00  0.00    -0.418 N 
HETATM   12  H   UNK N   1      20.015  19.619   4.716  0.00  0.00     0.150 HD
HETATM   13  H   UNK N   1      21.625  20.230   4.345  0.00  0.00     0.150 HD
ENDBRANCH  10  11
BRANCH  10  14
HETATM   14  C   UNK N   1      20.492  18.824   1.904  0.00  0.00     0.163 C 
HETATM   15  O   UNK N   1      20.334  19.995   1.598  0.00  0.00    -0.648 OA
BRANCH  14  16
HETATM   16  O   UNK N   1      20.092  17.858   1.053  0.00  0.00    -0.775 OA
HETATM   17  H   UNK N   1      19.630  17.068   1.257  0.00  0.00     0.167 HD
ENDBRANCH  14  16
ENDBRANCH  10  14
ENDBRANCH   9  10
ENDBRANCH   8   9
ENDBRANCH   5   8
ENDBRANCH   3   4
BRANCH   3  18
HETATM   18  C   UNK N   1      25.721  17.098   3.121  0.00  0.00     0.241 C 
HETATM   19  O   UNK N   1      26.680  16.544   2.608  0.00  0.00    -0.271 OA
HETATM   20  N   UNK N   1      25.645  18.452   3.108  0.00  0.00    -0.349 N 
HETATM   21  H   UNK N   1      26.391  18.969   2.727  0.00  0.00     0.163 HD
BRANCH  20  22
HETATM   22  C   UNK N   1      24.500  19.158   3.638  0.00  0.00     0.232 C 
BRANCH  22  23
HETATM   23  C   UNK N   1      24.288  20.448   2.919  0.00  0.00     0.158 C 
HETATM   24  O   UNK N   1      23.223  21.031   3.021  0.00  0.00    -0.649 OA
BRANCH  23  25
HETATM   25  O   UNK N   1      25.257  20.953   2.132  0.00  0.00    -0.775 OA
HETATM   26  H   UNK N   1      25.131  21.771   1.692  0.00  0.00     0.167 HD
ENDBRANCH  23  25
ENDBRANCH  22  23
ENDBRANCH  20  22
ENDBRANCH   3  18
ENDBRANCH   2   3
ENDBRANCH   1   2
BRANCH   1  27
HETATM   27  S   UNK N   1      26.262  15.266   7.450  0.00  0.00    -0.095 SA
BRANCH  27  28
HETATM   28  C   UNK N   1      27.216  15.715   5.970  0.00  0.00     0.120 C 
BRANCH  28  29
HETATM   29  C   UNK N   1      28.332  16.707   6.290  0.00  0.00     0.186 C 
BRANCH  29  30
HETATM   30  N   UNK N   1      28.428  17.127   7.680  0.00  0.00    -0.347 N 
HETATM   31  C   UNK N   1      29.554  17.453   8.369  0.00  0.00     0.218 C 
HETATM   32  O   UNK N   1      29.442  17.845   9.520  0.00  0.00    -0.274 OA
HETATM   33  H   UNK N   1      27.581  17.182   8.178  0.00  0.00     0.163 HD
BRANCH  31  34
HETATM   34  C   UNK N   1      30.920  17.396   7.751  0.00  0.00     0.105 C 
BRANCH  34  35
HETATM   35  C   UNK N   1      31.967  17.950   8.706  0.00  0.00     0.044 C 
BRANCH  35  36
HETATM   36  C   UNK N   1      33.322  17.274   8.498  0.00  0.00     0.173 C 
BRANCH  36  37
HETATM   37  N   UNK N   1      33.870  16.917   9.797  0.00  0.00    -0.418 N 
HETATM   38  H   UNK N   1      33.259  16.715  10.589  0.00  0.00     0.150 HD
HETATM   39  H   UNK N   1      34.881  16.868   9.918  0.00  0.00     0.150 HD
ENDBRANCH  36  37
BRANCH  36  40
HETATM   40  C   UNK N   1      34.295  18.150   7.743  0.00  0.00     0.163 C 
HETATM   41  O   UNK N   1      34.552  17.911   6.574  0.00  0.00    -0.648 OA
BRANCH  40  42
HETATM   42  O   UNK N   1      34.910  19.180   8.357  0.00  0.00    -0.775 OA
HETATM   43  H   UNK N   1      35.237  19.213   9.234  0.00  0.00     0.167 HD
ENDBRANCH  40  42
ENDBRANCH  36  40
ENDBRANCH  35  36
ENDBRANCH  34  35
ENDBRANCH  31  34
ENDBRANCH  29  30
BRANCH  29  44
HETATM   44  C   UNK N   1      28.375  17.859   5.328  0.00  0.00     0.241 C 
HETATM   45  O   UNK N   1      27.680  18.844   5.526  0.00  0.00    -0.271 OA
HETATM   46  N   UNK N   1      29.165  17.809   4.228  0.00  0.00    -0.349 N 
HETATM   47  H   UNK N   1      29.129  18.548   3.579  0.00  0.00     0.163 HD
BRANCH  46  48
HETATM   48  C   UNK N   1      30.061  16.701   3.981  0.00  0.00     0.232 C 
BRANCH  48  49
HETATM   49  C   UNK N   1      31.415  17.187   3.587  0.00  0.00     0.158 C 
HETATM   50  O   UNK N   1      32.146  17.687   4.425  0.00  0.00    -0.649 OA
BRANCH  49  51
HETATM   51  O   UNK N   1      31.819  17.104   2.305  0.00  0.00    -0.775 OA
HETATM   52  H   UNK N   1      32.732  17.094   2.097  0.00  0.00     0.167 HD
ENDBRANCH  49  51
ENDBRANCH  48  49
ENDBRANCH  46  48
ENDBRANCH  29  44
ENDBRANCH  28  29
ENDBRANCH  27  28
ENDBRANCH   1  27
TORSDOF 27
ENDMDL
