MODEL 1
REMARK VINA RESULT:      -6.1      0.000      0.000
REMARK  6 active torsions:
REMARK  status: ('A' for Active; 'I' for Inactive)
REMARK    1  A    between atoms: C_6  and  C_3 
REMARK    2  A    between atoms: O_18  and  C_3 
REMARK    3  A    between atoms: C_7  and  O_19 
REMARK    4  A    between atoms: C_8  and  O_20 
REMARK    5  A    between atoms: N_12  and  C_9 
REMARK    6  A    between atoms: C_11  and  N_17 
ROOT
HETATM    1  C   UNK N   1      29.828  16.260   6.298  0.00  0.00     0.036 A 
HETATM    2  C   UNK N   1      31.053  15.615   6.504  0.00  0.00     0.096 A 
HETATM    3  C   UNK N   1      30.037  18.684   9.581  0.00  0.00     0.183 A 
HETATM    4  C   UNK N   1      29.708  17.150   7.349  0.00  0.00     0.053 A 
HETATM    5  C   UNK N   1      28.722  18.064   7.693  0.00  0.00     0.113 A 
HETATM    6  C   UNK N   1      30.808  17.021   8.128  0.00  0.00     0.124 A 
HETATM    7  N   UNK N   1      28.909  18.824   8.811  0.00  0.00    -0.338 N 
ATOM      8  HN  UNK N   1      28.200  19.505   9.080  1.00  0.00     0.168 HD
HETATM    9  N   UNK N   1      30.997  17.769   9.244  0.00  0.00    -0.338 N 
ATOM     10  HN  UNK N   1      31.833  17.653   9.817  1.00  0.00     0.168 HD
HETATM   11  N   UNK N   1      31.637  16.090   7.634  0.00  0.00    -0.312 N 
ENDROOT
BRANCH  11  12
HETATM   12  C   UNK N   1      32.909  15.635   8.207  0.00  0.00     0.261 C 
HETATM   13  C   UNK N   1      32.739  14.629   9.339  0.00  0.00     0.198 C 
HETATM   14  C   UNK N   1      34.039  14.803  10.115  0.00  0.00     0.182 C 
HETATM   15  C   UNK N   1      34.672  16.036   9.456  0.00  0.00     0.179 C 
HETATM   16  O   UNK N   1      33.638  16.704   8.771  0.00  0.00    -0.353 OA
BRANCH  13  17
HETATM   17  O   UNK N   1      31.673  15.032  10.152  0.00  0.00    -0.388 OA
HETATM   18  H   UNK N   1      30.804  15.042  10.584  0.00  0.00     0.210 HD
ENDBRANCH  13  17
BRANCH  14  19
HETATM   19  O   UNK N   1      34.882  13.697   9.986  0.00  0.00    -0.390 OA
HETATM   20  H   UNK N   1      35.006  13.044   9.280  0.00  0.00     0.210 HD
ENDBRANCH  14  19
BRANCH  15  21
HETATM   21  C   UNK N   1      35.366  16.947  10.460  0.00  0.00     0.198 C 
BRANCH  21  22
HETATM   22  O   UNK N   1      36.571  16.378  10.876  0.00  0.00    -0.398 OA
HETATM   23  H   UNK N   1      36.692  15.415  10.896  0.00  0.00     0.209 HD
ENDBRANCH  21  22
ENDBRANCH  15  21
ENDBRANCH  11  12
BRANCH   5  24
HETATM   24  N   UNK N   1      27.556  18.209   6.915  0.00  0.00    -0.385 N 
HETATM   25  H   UNK N   1      27.361  19.039   6.421  0.00  0.00     0.157 HD
HETATM   26  H   UNK N   1      26.918  17.460   6.863  0.00  0.00     0.157 HD
ENDBRANCH   5  24
TORSDOF 6
ENDMDL
MODEL 2
REMARK VINA RESULT:      -5.9      9.645     12.101
REMARK  6 active torsions:
REMARK  status: ('A' for Active; 'I' for Inactive)
REMARK    1  A    between atoms: C_6  and  C_3 
REMARK    2  A    between atoms: O_18  and  C_3 
REMARK    3  A    between atoms: C_7  and  O_19 
REMARK    4  A    between atoms: C_8  and  O_20 
REMARK    5  A    between atoms: N_12  and  C_9 
REMARK    6  A    between atoms: C_11  and  N_17 
ROOT
HETATM    1  C   UNK N   1      20.721  12.843  10.711  0.00  0.00     0.036 A 
HETATM    2  C   UNK N   1      20.277  13.519   9.568  0.00  0.00     0.096 A 
HETATM    3  C   UNK N   1      24.699  12.957   9.788  0.00  0.00     0.183 A 
HETATM    4  C   UNK N   1      22.094  12.772  10.577  0.00  0.00     0.053 A 
HETATM    5  C   UNK N   1      23.085  12.226  11.381  0.00  0.00     0.113 A 
HETATM    6  C   UNK N   1      22.429  13.374   9.411  0.00  0.00     0.124 A 
HETATM    7  N   UNK N   1      24.382  12.333  10.968  0.00  0.00    -0.338 N 
ATOM      8  HN  UNK N   1      25.127  11.944  11.545  1.00  0.00     0.168 HD
HETATM    9  N   UNK N   1      23.715  13.479   8.993  0.00  0.00    -0.338 N 
ATOM     10  HN  UNK N   1      23.942  13.935   8.109  1.00  0.00     0.168 HD
HETATM   11  N   UNK N   1      21.338  13.832   8.780  0.00  0.00    -0.312 N 
ENDROOT
BRANCH  11  12
HETATM   12  C   UNK N   1      21.279  14.507   7.478  0.00  0.00     0.261 C 
HETATM   13  C   UNK N   1      21.516  16.010   7.563  0.00  0.00     0.198 C 
HETATM   14  C   UNK N   1      20.819  16.511   6.303  0.00  0.00     0.182 C 
HETATM   15  C   UNK N   1      20.089  15.261   5.792  0.00  0.00     0.179 C 
HETATM   16  O   UNK N   1      20.010  14.367   6.877  0.00  0.00    -0.353 OA
BRANCH  13  17
HETATM   17  O   UNK N   1      20.843  16.517   8.680  0.00  0.00    -0.388 OA
HETATM   18  H   UNK N   1      20.263  16.562   9.458  0.00  0.00     0.210 HD
ENDBRANCH  13  17
BRANCH  14  19
HETATM   19  O   UNK N   1      21.726  16.970   5.345  0.00  0.00    -0.390 OA
HETATM   20  H   UNK N   1      22.695  16.967   5.304  0.00  0.00     0.210 HD
ENDBRANCH  14  19
BRANCH  15  21
HETATM   21  C   UNK N   1      18.714  15.578   5.218  0.00  0.00     0.198 C 
BRANCH  21  22
HETATM   22  O   UNK N   1      18.811  16.596   4.267  0.00  0.00    -0.398 OA
HETATM   23  H   UNK N   1      19.531  16.609   3.617  0.00  0.00     0.209 HD
ENDBRANCH  21  22
ENDBRANCH  15  21
ENDBRANCH  11  12
BRANCH   5  24
HETATM   24  N   UNK N   1      22.769  11.575  12.591  0.00  0.00    -0.385 N 
HETATM   25  H   UNK N   1      21.841  11.486  12.906  0.00  0.00     0.157 HD
HETATM   26  H   UNK N   1      23.498  11.199  13.136  0.00  0.00     0.157 HD
ENDBRANCH   5  24
TORSDOF 6
ENDMDL
MODEL 3
REMARK VINA RESULT:      -5.9      7.491      9.906
REMARK  6 active torsions:
REMARK  status: ('A' for Active; 'I' for Inactive)
REMARK    1  A    between atoms: C_6  and  C_3 
REMARK    2  A    between atoms: O_18  and  C_3 
REMARK    3  A    between atoms: C_7  and  O_19 
REMARK    4  A    between atoms: C_8  and  O_20 
REMARK    5  A    between atoms: N_12  and  C_9 
REMARK    6  A    between atoms: C_11  and  N_17 
ROOT
HETATM    1  C   UNK N   1      35.222  10.258  17.640  0.00  0.00     0.036 A 
HETATM    2  C   UNK N   1      35.252  10.156  16.244  0.00  0.00     0.096 A 
HETATM    3  C   UNK N   1      35.392  14.337  17.799  0.00  0.00     0.183 A 
HETATM    4  C   UNK N   1      35.280  11.613  17.904  0.00  0.00     0.053 A 
HETATM    5  C   UNK N   1      35.283  12.336  19.088  0.00  0.00     0.113 A 
HETATM    6  C   UNK N   1      35.346  12.264  16.718  0.00  0.00     0.124 A 
HETATM    7  N   UNK N   1      35.336  13.698  19.012  0.00  0.00    -0.338 N 
ATOM      8  HN  UNK N   1      35.335  14.250  19.870  1.00  0.00     0.168 HD
HETATM    9  N   UNK N   1      35.405  13.616  16.636  0.00  0.00    -0.338 N 
ATOM     10  HN  UNK N   1      35.457  14.084  15.731  1.00  0.00     0.168 HD
HETATM   11  N   UNK N   1      35.334  11.396  15.696  0.00  0.00    -0.312 N 
ENDROOT
BRANCH  11  12
HETATM   12  C   UNK N   1      35.429  11.703  14.264  0.00  0.00     0.261 C 
HETATM   13  C   UNK N   1      36.863  11.811  13.761  0.00  0.00     0.198 C 
HETATM   14  C   UNK N   1      36.701  12.694  12.530  0.00  0.00     0.182 C 
HETATM   15  C   UNK N   1      35.240  13.154  12.625  0.00  0.00     0.179 C 
HETATM   16  O   UNK N   1      34.838  12.948  13.959  0.00  0.00    -0.353 OA
BRANCH  13  17
HETATM   17  O   UNK N   1      37.631  12.498  14.709  0.00  0.00    -0.388 OA
HETATM   18  H   UNK N   1      38.005  12.768  15.563  0.00  0.00     0.210 HD
ENDBRANCH  13  17
BRANCH  14  19
HETATM   19  O   UNK N   1      36.911  11.989  11.343  0.00  0.00    -0.390 OA
HETATM   20  H   UNK N   1      36.787  12.222  10.409  0.00  0.00     0.210 HD
ENDBRANCH  14  19
BRANCH  15  21
HETATM   21  C   UNK N   1      35.052  14.604  12.196  0.00  0.00     0.198 C 
BRANCH  21  22
HETATM   22  O   UNK N   1      33.835  14.754  11.526  0.00  0.00    -0.398 OA
HETATM   23  H   UNK N   1      33.610  14.200  10.762  0.00  0.00     0.209 HD
ENDBRANCH  21  22
ENDBRANCH  15  21
ENDBRANCH  11  12
BRANCH   5  24
HETATM   24  N   UNK N   1      35.235  11.689  20.340  0.00  0.00    -0.385 N 
HETATM   25  H   UNK N   1      35.800  11.975  21.094  0.00  0.00     0.157 HD
HETATM   26  H   UNK N   1      34.618  10.931  20.464  0.00  0.00     0.157 HD
ENDBRANCH   5  24
TORSDOF 6
ENDMDL
MODEL 4
REMARK VINA RESULT:      -5.7      1.047      2.107
REMARK  6 active torsions:
REMARK  status: ('A' for Active; 'I' for Inactive)
REMARK    1  A    between atoms: C_6  and  C_3 
REMARK    2  A    between atoms: O_18  and  C_3 
REMARK    3  A    between atoms: C_7  and  O_19 
REMARK    4  A    between atoms: C_8  and  O_20 
REMARK    5  A    between atoms: N_12  and  C_9 
REMARK    6  A    between atoms: C_11  and  N_17 
ROOT
HETATM    1  C   UNK N   1      29.692  18.328   8.394  0.00  0.00     0.036 A 
HETATM    2  C   UNK N   1      30.947  18.000   8.919  0.00  0.00     0.096 A 
HETATM    3  C   UNK N   1      29.607  15.391   5.556  0.00  0.00     0.183 A 
HETATM    4  C   UNK N   1      29.477  17.417   7.378  0.00  0.00     0.053 A 
HETATM    5  C   UNK N   1      28.421  17.231   6.497  0.00  0.00     0.113 A 
HETATM    6  C   UNK N   1      30.558  16.604   7.314  0.00  0.00     0.124 A 
HETATM    7  N   UNK N   1      28.505  16.209   5.595  0.00  0.00    -0.338 N 
ATOM      8  HN  UNK N   1      27.740  16.051   4.941  1.00  0.00     0.168 HD
HETATM    9  N   UNK N   1      30.650  15.590   6.418  0.00  0.00    -0.338 N 
ATOM     10  HN  UNK N   1      31.476  14.993   6.387  1.00  0.00     0.168 HD
HETATM   11  N   UNK N   1      31.466  16.943   8.240  0.00  0.00    -0.312 N 
ENDROOT
BRANCH  11  12
HETATM   12  C   UNK N   1      32.781  16.332   8.466  0.00  0.00     0.261 C 
HETATM   13  C   UNK N   1      32.713  15.017   9.234  0.00  0.00     0.198 C 
HETATM   14  C   UNK N   1      34.107  14.937   9.846  0.00  0.00     0.182 C 
HETATM   15  C   UNK N   1      34.701  16.317   9.534  0.00  0.00     0.179 C 
HETATM   16  O   UNK N   1      33.617  17.167   9.238  0.00  0.00    -0.353 OA
BRANCH  13  17
HETATM   17  O   UNK N   1      31.775  15.137  10.266  0.00  0.00    -0.388 OA
HETATM   18  H   UNK N   1      31.384  15.123  11.154  0.00  0.00     0.210 HD
ENDBRANCH  13  17
BRANCH  14  19
HETATM   19  O   UNK N   1      34.882  13.932   9.264  0.00  0.00    -0.390 OA
HETATM   20  H   UNK N   1      35.325  13.149   9.629  0.00  0.00     0.210 HD
ENDBRANCH  14  19
BRANCH  15  21
HETATM   21  C   UNK N   1      35.551  16.863  10.674  0.00  0.00     0.198 C 
BRANCH  21  22
HETATM   22  O   UNK N   1      36.740  16.138  10.778  0.00  0.00    -0.398 OA
HETATM   23  H   UNK N   1      36.879  15.499  11.495  0.00  0.00     0.209 HD
ENDBRANCH  21  22
ENDBRANCH  15  21
ENDBRANCH  11  12
BRANCH   5  24
HETATM   24  N   UNK N   1      27.289  18.072   6.523  0.00  0.00    -0.385 N 
HETATM   25  H   UNK N   1      26.738  18.174   7.332  0.00  0.00     0.157 HD
HETATM   26  H   UNK N   1      27.044  18.569   5.710  0.00  0.00     0.157 HD
ENDBRANCH   5  24
TORSDOF 6
ENDMDL
MODEL 5
REMARK VINA RESULT:      -5.6      3.852      6.975
REMARK  6 active torsions:
REMARK  status: ('A' for Active; 'I' for Inactive)
REMARK    1  A    between atoms: C_6  and  C_3 
REMARK    2  A    between atoms: O_18  and  C_3 
REMARK    3  A    between atoms: C_7  and  O_19 
REMARK    4  A    between atoms: C_8  and  O_20 
REMARK    5  A    between atoms: N_12  and  C_9 
REMARK    6  A    between atoms: C_11  and  N_17 
ROOT
HETATM    1  C   UNK N   1      35.007  13.816  12.042  0.00  0.00     0.036 A 
HETATM    2  C   UNK N   1      34.209  14.556  11.160  0.00  0.00     0.096 A 
HETATM    3  C   UNK N   1      38.376  13.840   9.732  0.00  0.00     0.183 A 
HETATM    4  C   UNK N   1      36.232  13.706  11.413  0.00  0.00     0.053 A 
HETATM    5  C   UNK N   1      37.421  13.094  11.783  0.00  0.00     0.113 A 
HETATM    6  C   UNK N   1      36.146  14.347  10.223  0.00  0.00     0.124 A 
HETATM    7  N   UNK N   1      38.482  13.176  10.928  0.00  0.00    -0.338 N 
ATOM      8  HN  UNK N   1      39.367  12.737  11.181  1.00  0.00     0.168 HD
HETATM    9  N   UNK N   1      37.195  14.428   9.367  0.00  0.00    -0.338 N 
ATOM     10  HN  UNK N   1      37.106  14.914   8.475  1.00  0.00     0.168 HD
HETATM   11  N   UNK N   1      34.924  14.868  10.048  0.00  0.00    -0.312 N 
ENDROOT
BRANCH  11  12
HETATM   12  C   UNK N   1      34.425  15.600   8.878  0.00  0.00     0.261 C 
HETATM   13  C   UNK N   1      34.958  17.025   8.783  0.00  0.00     0.198 C 
HETATM   14  C   UNK N   1      33.886  17.707   7.940  0.00  0.00     0.182 C 
HETATM   15  C   UNK N   1      32.782  16.644   7.860  0.00  0.00     0.179 C 
HETATM   16  O   UNK N   1      33.021  15.733   8.907  0.00  0.00    -0.353 OA
BRANCH  13  17
HETATM   17  O   UNK N   1      34.958  17.599  10.059  0.00  0.00    -0.388 OA
HETATM   18  H   UNK N   1      34.904  18.265  10.764  0.00  0.00     0.210 HD
ENDBRANCH  13  17
BRANCH  14  19
HETATM   19  O   UNK N   1      34.346  18.027   6.661  0.00  0.00    -0.390 OA
HETATM   20  H   UNK N   1      35.235  18.157   6.295  0.00  0.00     0.210 HD
ENDBRANCH  14  19
BRANCH  15  21
HETATM   21  C   UNK N   1      31.384  17.243   7.939  0.00  0.00     0.198 C 
BRANCH  21  22
HETATM   22  O   UNK N   1      31.227  17.943   9.137  0.00  0.00    -0.398 OA
HETATM   23  H   UNK N   1      31.989  18.325   9.600  0.00  0.00     0.209 HD
ENDBRANCH  21  22
ENDBRANCH  15  21
ENDBRANCH  11  12
BRANCH   5  24
HETATM   24  N   UNK N   1      37.538  12.401  13.006  0.00  0.00    -0.385 N 
HETATM   25  H   UNK N   1      37.720  12.870  13.852  0.00  0.00     0.157 HD
HETATM   26  H   UNK N   1      37.435  11.422  13.013  0.00  0.00     0.157 HD
ENDBRANCH   5  24
TORSDOF 6
ENDMDL
MODEL 6
REMARK VINA RESULT:      -5.6      2.447      3.882
REMARK  6 active torsions:
REMARK  status: ('A' for Active; 'I' for Inactive)
REMARK    1  A    between atoms: C_6  and  C_3 
REMARK    2  A    between atoms: O_18  and  C_3 
REMARK    3  A    between atoms: C_7  and  O_19 
REMARK    4  A    between atoms: C_8  and  O_20 
REMARK    5  A    between atoms: N_12  and  C_9 
REMARK    6  A    between atoms: C_11  and  N_17 
ROOT
HETATM    1  C   UNK N   1      30.487  17.253   5.708  0.00  0.00     0.036 A 
HETATM    2  C   UNK N   1      30.935  17.186   7.033  0.00  0.00     0.096 A 
HETATM    3  C   UNK N   1      33.794  15.544   4.026  0.00  0.00     0.183 A 
HETATM    4  C   UNK N   1      31.508  16.707   4.954  0.00  0.00     0.053 A 
HETATM    5  C   UNK N   1      31.654  16.497   3.591  0.00  0.00     0.113 A 
HETATM    6  C   UNK N   1      32.502  16.348   5.801  0.00  0.00     0.124 A 
HETATM    7  N   UNK N   1      32.804  15.910   3.148  0.00  0.00    -0.338 N 
ATOM      8  HN  UNK N   1      32.931  15.742   2.151  1.00  0.00     0.168 HD
HETATM    9  N   UNK N   1      33.649  15.769   5.367  0.00  0.00    -0.338 N 
ATOM     10  HN  UNK N   1      34.385  15.509   6.024  1.00  0.00     0.168 HD
HETATM   11  N   UNK N   1      32.175  16.633   7.070  0.00  0.00    -0.312 N 
ENDROOT
BRANCH  11  12
HETATM   12  C   UNK N   1      32.996  16.432   8.269  0.00  0.00     0.261 C 
HETATM   13  C   UNK N   1      33.927  17.600   8.570  0.00  0.00     0.198 C 
HETATM   14  C   UNK N   1      35.021  16.929   9.391  0.00  0.00     0.182 C 
HETATM   15  C   UNK N   1      34.688  15.437   9.257  0.00  0.00     0.179 C 
HETATM   16  O   UNK N   1      33.843  15.311   8.137  0.00  0.00    -0.353 OA
BRANCH  13  17
HETATM   17  O   UNK N   1      34.483  18.062   7.372  0.00  0.00    -0.388 OA
HETATM   18  H   UNK N   1      35.099  18.167   6.628  0.00  0.00     0.210 HD
ENDBRANCH  13  17
BRANCH  14  19
HETATM   19  O   UNK N   1      34.987  17.315  10.733  0.00  0.00    -0.390 OA
HETATM   20  H   UNK N   1      34.592  16.912  11.523  0.00  0.00     0.210 HD
ENDBRANCH  14  19
BRANCH  15  21
HETATM   21  C   UNK N   1      35.931  14.567   9.128  0.00  0.00     0.198 C 
BRANCH  21  22
HETATM   22  O   UNK N   1      36.976  15.104   9.884  0.00  0.00    -0.398 OA
HETATM   23  H   UNK N   1      37.079  14.889  10.824  0.00  0.00     0.209 HD
ENDBRANCH  21  22
ENDBRANCH  15  21
ENDBRANCH  11  12
BRANCH   5  24
HETATM   24  N   UNK N   1      30.647  16.877   2.680  0.00  0.00    -0.385 N 
HETATM   25  H   UNK N   1      30.616  17.780   2.288  0.00  0.00     0.157 HD
HETATM   26  H   UNK N   1      29.956  16.222   2.429  0.00  0.00     0.157 HD
ENDBRANCH   5  24
TORSDOF 6
ENDMDL
MODEL 7
REMARK VINA RESULT:      -5.6      7.831     10.340
REMARK  6 active torsions:
REMARK  status: ('A' for Active; 'I' for Inactive)
REMARK    1  A    between atoms: C_6  and  C_3 
REMARK    2  A    between atoms: O_18  and  C_3 
REMARK    3  A    between atoms: C_7  and  O_19 
REMARK    4  A    between atoms: C_8  and  O_20 
REMARK    5  A    between atoms: N_12  and  C_9 
REMARK    6  A    between atoms: C_11  and  N_17 
ROOT
HETATM    1  C   UNK N   1      35.060  13.262  18.045  0.00  0.00     0.036 A 
HETATM    2  C   UNK N   1      35.042  13.564  16.678  0.00  0.00     0.096 A 
HETATM    3  C   UNK N   1      36.031   9.317  17.623  0.00  0.00     0.183 A 
HETATM    4  C   UNK N   1      35.375  11.918  18.113  0.00  0.00     0.053 A 
HETATM    5  C   UNK N   1      35.539  11.050  19.182  0.00  0.00     0.113 A 
HETATM    6  C   UNK N   1      35.528  11.464  16.847  0.00  0.00     0.124 A 
HETATM    7  N   UNK N   1      35.871   9.753  18.915  0.00  0.00    -0.338 N 
ATOM      8  HN  UNK N   1      36.002   9.098  19.685  1.00  0.00     0.168 HD
HETATM    9  N   UNK N   1      35.852  10.176  16.574  0.00  0.00    -0.338 N 
ATOM     10  HN  UNK N   1      35.959   9.856  15.611  1.00  0.00     0.168 HD
HETATM   11  N   UNK N   1      35.326  12.448  15.959  0.00  0.00    -0.312 N 
ENDROOT
BRANCH  11  12
HETATM   12  C   UNK N   1      35.363  12.349  14.495  0.00  0.00     0.261 C 
HETATM   13  C   UNK N   1      36.775  12.256  13.929  0.00  0.00     0.198 C 
HETATM   14  C   UNK N   1      36.582  12.777  12.510  0.00  0.00     0.182 C 
HETATM   15  C   UNK N   1      35.141  13.305  12.529  0.00  0.00     0.179 C 
HETATM   16  O   UNK N   1      34.795  13.487  13.882  0.00  0.00    -0.353 OA
BRANCH  13  17
HETATM   17  O   UNK N   1      37.606  13.144  14.624  0.00  0.00    -0.388 OA
HETATM   18  H   UNK N   1      38.008  13.973  14.929  0.00  0.00     0.210 HD
ENDBRANCH  13  17
BRANCH  14  19
HETATM   19  O   UNK N   1      36.715  11.767  11.554  0.00  0.00    -0.390 OA
HETATM   20  H   UNK N   1      36.779  10.801  11.624  0.00  0.00     0.210 HD
ENDBRANCH  14  19
BRANCH  15  21
HETATM   21  C   UNK N   1      34.976  14.589  11.726  0.00  0.00     0.198 C 
BRANCH  21  22
HETATM   22  O   UNK N   1      33.633  14.780  11.393  0.00  0.00    -0.398 OA
HETATM   23  H   UNK N   1      33.127  14.092  10.932  0.00  0.00     0.209 HD
ENDBRANCH  21  22
ENDBRANCH  15  21
ENDBRANCH  11  12
BRANCH   5  24
HETATM   24  N   UNK N   1      35.369  11.486  20.512  0.00  0.00    -0.385 N 
HETATM   25  H   UNK N   1      34.549  11.290  21.021  0.00  0.00     0.157 HD
HETATM   26  H   UNK N   1      36.089  12.000  20.944  0.00  0.00     0.157 HD
ENDBRANCH   5  24
TORSDOF 6
ENDMDL
MODEL 8
REMARK VINA RESULT:      -5.5      1.459      2.246
REMARK  6 active torsions:
REMARK  status: ('A' for Active; 'I' for Inactive)
REMARK    1  A    between atoms: C_6  and  C_3 
REMARK    2  A    between atoms: O_18  and  C_3 
REMARK    3  A    between atoms: C_7  and  O_19 
REMARK    4  A    between atoms: C_8  and  O_20 
REMARK    5  A    between atoms: N_12  and  C_9 
REMARK    6  A    between atoms: C_11  and  N_17 
ROOT
HETATM    1  C   UNK N   1      30.047  17.052   6.039  0.00  0.00     0.036 A 
HETATM    2  C   UNK N   1      31.327  16.648   6.438  0.00  0.00     0.096 A 
HETATM    3  C   UNK N   1      28.846  18.420   9.696  0.00  0.00     0.183 A 
HETATM    4  C   UNK N   1      29.456  17.557   7.182  0.00  0.00     0.053 A 
HETATM    5  C   UNK N   1      28.205  18.105   7.423  0.00  0.00     0.113 A 
HETATM    6  C   UNK N   1      30.349  17.444   8.194  0.00  0.00     0.124 A 
HETATM    7  N   UNK N   1      27.922  18.534   8.688  0.00  0.00    -0.338 N 
ATOM      8  HN  UNK N   1      27.010  18.944   8.887  1.00  0.00     0.168 HD
HETATM    9  N   UNK N   1      30.072  17.864   9.453  0.00  0.00    -0.338 N 
ATOM     10  HN  UNK N   1      30.760  17.766  10.200  1.00  0.00     0.168 HD
HETATM   11  N   UNK N   1      31.492  16.891   7.763  0.00  0.00    -0.312 N 
ENDROOT
BRANCH  11  12
HETATM   12  C   UNK N   1      32.682  16.569   8.560  0.00  0.00     0.261 C 
HETATM   13  C   UNK N   1      33.697  17.703   8.618  0.00  0.00     0.198 C 
HETATM   14  C   UNK N   1      34.990  16.955   8.918  0.00  0.00     0.182 C 
HETATM   15  C   UNK N   1      34.581  15.484   8.768  0.00  0.00     0.179 C 
HETATM   16  O   UNK N   1      33.386  15.471   8.021  0.00  0.00    -0.353 OA
BRANCH  13  17
HETATM   17  O   UNK N   1      33.802  18.290   7.351  0.00  0.00    -0.388 OA
HETATM   18  H   UNK N   1      33.797  18.960   6.649  0.00  0.00     0.210 HD
ENDBRANCH  13  17
BRANCH  14  19
HETATM   19  O   UNK N   1      35.453  17.200  10.213  0.00  0.00    -0.390 OA
HETATM   20  H   UNK N   1      36.143  16.784  10.754  0.00  0.00     0.210 HD
ENDBRANCH  14  19
BRANCH  15  21
HETATM   21  C   UNK N   1      35.665  14.636   8.114  0.00  0.00     0.198 C 
BRANCH  21  22
HETATM   22  O   UNK N   1      35.720  14.899   6.743  0.00  0.00    -0.398 OA
HETATM   23  H   UNK N   1      34.916  15.078   6.233  0.00  0.00     0.209 HD
ENDBRANCH  21  22
ENDBRANCH  15  21
ENDBRANCH  11  12
BRANCH   5  24
HETATM   24  N   UNK N   1      27.245  18.218   6.396  0.00  0.00    -0.385 N 
HETATM   25  H   UNK N   1      27.069  19.074   5.943  0.00  0.00     0.157 HD
HETATM   26  H   UNK N   1      26.737  17.419   6.126  0.00  0.00     0.157 HD
ENDBRANCH   5  24
TORSDOF 6
ENDMDL
MODEL 9
REMARK VINA RESULT:      -5.5      9.280     12.197
REMARK  6 active torsions:
REMARK  status: ('A' for Active; 'I' for Inactive)
REMARK    1  A    between atoms: C_6  and  C_3 
REMARK    2  A    between atoms: O_18  and  C_3 
REMARK    3  A    between atoms: C_7  and  O_19 
REMARK    4  A    between atoms: C_8  and  O_20 
REMARK    5  A    between atoms: N_12  and  C_9 
REMARK    6  A    between atoms: C_11  and  N_17 
ROOT
HETATM    1  C   UNK N   1      22.951  15.880   6.381  0.00  0.00     0.036 A 
HETATM    2  C   UNK N   1      21.763  16.492   5.966  0.00  0.00     0.096 A 
HETATM    3  C   UNK N   1      25.400  17.811   3.742  0.00  0.00     0.183 A 
HETATM    4  C   UNK N   1      23.935  16.417   5.572  0.00  0.00     0.053 A 
HETATM    5  C   UNK N   1      25.305  16.209   5.503  0.00  0.00     0.113 A 
HETATM    6  C   UNK N   1      23.343  17.293   4.727  0.00  0.00     0.124 A 
HETATM    7  N   UNK N   1      26.019  16.920   4.583  0.00  0.00    -0.338 N 
ATOM      8  HN  UNK N   1      27.028  16.787   4.517  1.00  0.00     0.168 HD
HETATM    9  N   UNK N   1      24.047  17.999   3.806  0.00  0.00    -0.338 N 
ATOM     10  HN  UNK N   1      23.578  18.652   3.178  1.00  0.00     0.168 HD
HETATM   11  N   UNK N   1      22.022  17.352   4.947  0.00  0.00    -0.312 N 
ENDROOT
BRANCH  11  12
HETATM   12  C   UNK N   1      21.031  18.151   4.216  0.00  0.00     0.261 C 
HETATM   13  C   UNK N   1      20.164  17.326   3.274  0.00  0.00     0.198 C 
HETATM   14  C   UNK N   1      19.717  18.372   2.259  0.00  0.00     0.182 C 
HETATM   15  C   UNK N   1      20.566  19.596   2.628  0.00  0.00     0.179 C 
HETATM   16  O   UNK N   1      21.646  19.121   3.397  0.00  0.00    -0.353 OA
BRANCH  13  17
HETATM   17  O   UNK N   1      20.966  16.382   2.622  0.00  0.00    -0.388 OA
HETATM   18  H   UNK N   1      21.669  16.002   2.071  0.00  0.00     0.210 HD
ENDBRANCH  13  17
BRANCH  14  19
HETATM   19  O   UNK N   1      18.358  18.672   2.374  0.00  0.00    -0.390 OA
HETATM   20  H   UNK N   1      17.792  18.877   3.135  0.00  0.00     0.210 HD
ENDBRANCH  14  19
BRANCH  15  21
HETATM   21  C   UNK N   1      21.040  20.372   1.406  0.00  0.00     0.198 C 
BRANCH  21  22
HETATM   22  O   UNK N   1      20.562  19.772   0.239  0.00  0.00    -0.398 OA
HETATM   23  H   UNK N   1      20.220  20.304  -0.496  0.00  0.00     0.209 HD
ENDBRANCH  21  22
ENDBRANCH  15  21
ENDBRANCH  11  12
BRANCH   5  24
HETATM   24  N   UNK N   1      25.950  15.289   6.356  0.00  0.00    -0.385 N 
HETATM   25  H   UNK N   1      26.788  14.841   6.097  0.00  0.00     0.157 HD
HETATM   26  H   UNK N   1      25.551  15.089   7.234  0.00  0.00     0.157 HD
ENDBRANCH   5  24
TORSDOF 6
ENDMDL
