MODEL 1
REMARK VINA RESULT:      -4.4      0.000      0.000
REMARK  1 active torsions:
REMARK  status: ('A' for Active; 'I' for Inactive)
REMARK    1  A    between atoms: O_1  and  C_2 
ROOT
HETATM    1  C   UNK N   1      30.881  17.533   8.038  0.00  0.00     0.103 A 
HETATM    2  C   UNK N   1      29.523  17.345   7.756  0.00  0.00     0.064 A 
HETATM    3 Br   UNK N   1      28.251  17.497   9.192  0.00  0.00    -0.047 Br
HETATM    4  C   UNK N   1      29.111  17.056   6.440  0.00  0.00     0.050 A 
HETATM    5 Br   UNK N   1      27.243  16.789   6.046  0.00  0.00    -0.048 Br
HETATM    6  C   UNK N   1      30.071  16.961   5.412  0.00  0.00     0.048 A 
HETATM    7 Br   UNK N   1      29.521  16.575   3.606  0.00  0.00    -0.048 Br
HETATM    8  C   UNK N   1      31.435  17.154   5.703  0.00  0.00     0.050 A 
HETATM    9 Br   UNK N   1      32.755  17.032   4.306  0.00  0.00    -0.048 Br
HETATM   10  C   UNK N   1      31.836  17.438   7.021  0.00  0.00     0.064 A 
HETATM   11 Br   UNK N   1      33.690  17.705   7.453  0.00  0.00    -0.047 Br
ENDROOT
BRANCH   1  12
HETATM   12  O   UNK N   1      31.272  17.808   9.297  0.00  0.00    -0.358 OA
HETATM   13  H   UNK N   1      30.785  18.417   9.816  0.00  0.00     0.217 HD
ENDBRANCH   1  12
TORSDOF 1
ENDMDL
MODEL 2
REMARK VINA RESULT:      -4.4      0.031      3.605
REMARK  1 active torsions:
REMARK  status: ('A' for Active; 'I' for Inactive)
REMARK    1  A    between atoms: O_1  and  C_2 
ROOT
HETATM    1  C   UNK N   1      30.885  17.540   8.045  0.00  0.00     0.103 A 
HETATM    2  C   UNK N   1      31.846  17.443   7.033  0.00  0.00     0.064 A 
HETATM    3 Br   UNK N   1      33.696  17.720   7.484  0.00  0.00    -0.047 Br
HETATM    4  C   UNK N   1      31.451  17.142   5.714  0.00  0.00     0.050 A 
HETATM    5 Br   UNK N   1      32.768  17.014   4.313  0.00  0.00    -0.048 Br
HETATM    6  C   UNK N   1      30.087  16.937   5.422  0.00  0.00     0.048 A 
HETATM    7 Br   UNK N   1      29.533  16.517   3.625  0.00  0.00    -0.048 Br
HETATM    8  C   UNK N   1      29.126  17.034   6.448  0.00  0.00     0.050 A 
HETATM    9 Br   UNK N   1      27.260  16.751   6.063  0.00  0.00    -0.048 Br
HETATM   10  C   UNK N   1      29.530  17.339   7.760  0.00  0.00     0.064 A 
HETATM   11 Br   UNK N   1      28.245  17.480   9.182  0.00  0.00    -0.047 Br
ENDROOT
BRANCH   1  12
HETATM   12  O   UNK N   1      31.265  17.829   9.304  0.00  0.00    -0.358 OA
HETATM   13  H   UNK N   1      31.898  18.502   9.459  0.00  0.00     0.217 HD
ENDBRANCH   1  12
TORSDOF 1
ENDMDL
MODEL 3
REMARK VINA RESULT:      -4.3      8.187      9.344
REMARK  1 active torsions:
REMARK  status: ('A' for Active; 'I' for Inactive)
REMARK    1  A    between atoms: O_1  and  C_2 
ROOT
HETATM    1  C   UNK N   1      36.060  13.866  13.176  0.00  0.00     0.103 A 
HETATM    2  C   UNK N   1      35.555  12.962  14.118  0.00  0.00     0.064 A 
HETATM    3 Br   UNK N   1      35.809  13.338  15.987  0.00  0.00    -0.047 Br
HETATM    4  C   UNK N   1      34.873  11.806  13.689  0.00  0.00     0.050 A 
HETATM    5 Br   UNK N   1      34.182  10.554  14.980  0.00  0.00    -0.048 Br
HETATM    6  C   UNK N   1      34.698  11.568  12.310  0.00  0.00     0.048 A 
HETATM    7 Br   UNK N   1      33.760   9.996  11.709  0.00  0.00    -0.048 Br
HETATM    8  C   UNK N   1      35.208  12.484  11.368  0.00  0.00     0.050 A 
HETATM    9 Br   UNK N   1      34.971  12.172   9.483  0.00  0.00    -0.048 Br
HETATM   10  C   UNK N   1      35.890  13.632  11.807  0.00  0.00     0.064 A 
HETATM   11 Br   UNK N   1      36.598  14.901  10.548  0.00  0.00    -0.047 Br
ENDROOT
BRANCH   1  12
HETATM   12  O   UNK N   1      36.713  14.969  13.588  0.00  0.00    -0.358 OA
HETATM   13  H   UNK N   1      37.581  14.897  13.932  0.00  0.00     0.217 HD
ENDBRANCH   1  12
TORSDOF 1
ENDMDL
MODEL 4
REMARK VINA RESULT:      -4.3      8.177      9.627
REMARK  1 active torsions:
REMARK  status: ('A' for Active; 'I' for Inactive)
REMARK    1  A    between atoms: O_1  and  C_2 
ROOT
HETATM    1  C   UNK N   1      36.056  13.865  13.153  0.00  0.00     0.103 A 
HETATM    2  C   UNK N   1      35.887  13.631  11.784  0.00  0.00     0.064 A 
HETATM    3 Br   UNK N   1      36.611  14.901  10.533  0.00  0.00    -0.047 Br
HETATM    4  C   UNK N   1      35.203  12.480  11.346  0.00  0.00     0.050 A 
HETATM    5 Br   UNK N   1      34.961  12.155   9.462  0.00  0.00    -0.048 Br
HETATM    6  C   UNK N   1      34.693  11.567  12.292  0.00  0.00     0.048 A 
HETATM    7 Br   UNK N   1      33.762   9.984  11.707  0.00  0.00    -0.048 Br
HETATM    8  C   UNK N   1      34.868  11.809  13.669  0.00  0.00     0.050 A 
HETATM    9 Br   UNK N   1      34.182  10.567  14.970  0.00  0.00    -0.048 Br
HETATM   10  C   UNK N   1      35.550  12.963  14.095  0.00  0.00     0.064 A 
HETATM   11 Br   UNK N   1      35.806  13.324  15.966  0.00  0.00    -0.047 Br
ENDROOT
BRANCH   1  12
HETATM   12  O   UNK N   1      36.709  14.967  13.569  0.00  0.00    -0.358 OA
HETATM   13  H   UNK N   1      36.895  15.657  12.964  0.00  0.00     0.217 HD
ENDBRANCH   1  12
TORSDOF 1
ENDMDL
MODEL 5
REMARK VINA RESULT:      -4.3      6.711      8.205
REMARK  1 active torsions:
REMARK  status: ('A' for Active; 'I' for Inactive)
REMARK    1  A    between atoms: O_1  and  C_2 
ROOT
HETATM    1  C   UNK N   1      23.378  20.005   3.306  0.00  0.00     0.103 A 
HETATM    2  C   UNK N   1      22.181  19.295   3.453  0.00  0.00     0.064 A 
HETATM    3 Br   UNK N   1      20.520  20.202   3.104  0.00  0.00    -0.047 Br
HETATM    4  C   UNK N   1      22.208  17.942   3.845  0.00  0.00     0.050 A 
HETATM    5 Br   UNK N   1      20.564  16.961   4.056  0.00  0.00    -0.048 Br
HETATM    6  C   UNK N   1      23.445  17.308   4.084  0.00  0.00     0.048 A 
HETATM    7 Br   UNK N   1      23.499  15.456   4.612  0.00  0.00    -0.048 Br
HETATM    8  C   UNK N   1      24.646  18.029   3.932  0.00  0.00     0.050 A 
HETATM    9 Br   UNK N   1      26.341  17.173   4.250  0.00  0.00    -0.048 Br
HETATM   10  C   UNK N   1      24.607  19.380   3.544  0.00  0.00     0.064 A 
HETATM   11 Br   UNK N   1      26.227  20.393   3.328  0.00  0.00    -0.047 Br
ENDROOT
BRANCH   1  12
HETATM   12  O   UNK N   1      23.349  21.298   2.933  0.00  0.00    -0.358 OA
HETATM   13  H   UNK N   1      22.541  21.773   2.951  0.00  0.00     0.217 HD
ENDBRANCH   1  12
TORSDOF 1
ENDMDL
MODEL 6
REMARK VINA RESULT:      -4.3      6.704      8.912
REMARK  1 active torsions:
REMARK  status: ('A' for Active; 'I' for Inactive)
REMARK    1  A    between atoms: O_1  and  C_2 
ROOT
HETATM    1  C   UNK N   1      23.405  19.992   3.306  0.00  0.00     0.103 A 
HETATM    2  C   UNK N   1      24.625  19.353   3.556  0.00  0.00     0.064 A 
HETATM    3 Br   UNK N   1      26.252  20.361   3.370  0.00  0.00    -0.047 Br
HETATM    4  C   UNK N   1      24.643  17.997   3.940  0.00  0.00     0.050 A 
HETATM    5 Br   UNK N   1      26.318  17.108   4.279  0.00  0.00    -0.048 Br
HETATM    6  C   UNK N   1      23.429  17.292   4.074  0.00  0.00     0.048 A 
HETATM    7 Br   UNK N   1      23.437  15.440   4.607  0.00  0.00    -0.048 Br
HETATM    8  C   UNK N   1      22.205  17.944   3.823  0.00  0.00     0.050 A 
HETATM    9 Br   UNK N   1      20.541  16.993   4.008  0.00  0.00    -0.048 Br
HETATM   10  C   UNK N   1      22.199  19.296   3.436  0.00  0.00     0.064 A 
HETATM   11 Br   UNK N   1      20.547  20.215   3.085  0.00  0.00    -0.047 Br
ENDROOT
BRANCH   1  12
HETATM   12  O   UNK N   1      23.391  21.287   2.938  0.00  0.00    -0.358 OA
HETATM   13  H   UNK N   1      23.924  21.577   2.224  0.00  0.00     0.217 HD
ENDBRANCH   1  12
TORSDOF 1
ENDMDL
MODEL 7
REMARK VINA RESULT:      -4.2      1.758      3.417
REMARK  1 active torsions:
REMARK  status: ('A' for Active; 'I' for Inactive)
REMARK    1  A    between atoms: O_1  and  C_2 
ROOT
HETATM    1  C   UNK N   1      32.915  17.058   5.816  0.00  0.00     0.103 A 
HETATM    2  C   UNK N   1      32.343  17.330   7.064  0.00  0.00     0.064 A 
HETATM    3 Br   UNK N   1      33.504  17.712   8.549  0.00  0.00    -0.047 Br
HETATM    4  C   UNK N   1      30.942  17.324   7.212  0.00  0.00     0.050 A 
HETATM    5 Br   UNK N   1      30.148  17.691   8.929  0.00  0.00    -0.048 Br
HETATM    6  C   UNK N   1      30.122  17.048   6.098  0.00  0.00     0.048 A 
HETATM    7 Br   UNK N   1      28.204  17.045   6.284  0.00  0.00    -0.048 Br
HETATM    8  C   UNK N   1      30.706  16.777   4.845  0.00  0.00     0.050 A 
HETATM    9 Br   UNK N   1      29.596  16.403   3.316  0.00  0.00    -0.048 Br
HETATM   10  C   UNK N   1      32.105  16.782   4.709  0.00  0.00     0.064 A 
HETATM   11 Br   UNK N   1      32.934  16.416   3.014  0.00  0.00    -0.047 Br
ENDROOT
BRANCH   1  12
HETATM   12  O   UNK N   1      34.255  17.063   5.677  0.00  0.00    -0.358 OA
HETATM   13  H   UNK N   1      34.685  17.812   5.315  0.00  0.00     0.217 HD
ENDBRANCH   1  12
TORSDOF 1
ENDMDL
MODEL 8
REMARK VINA RESULT:      -4.2      2.454      3.756
REMARK  1 active torsions:
REMARK  status: ('A' for Active; 'I' for Inactive)
REMARK    1  A    between atoms: O_1  and  C_2 
ROOT
HETATM    1  C   UNK N   1      30.316  16.922   3.899  0.00  0.00     0.103 A 
HETATM    2  C   UNK N   1      29.297  17.213   4.812  0.00  0.00     0.064 A 
HETATM    3 Br   UNK N   1      27.485  17.318   4.173  0.00  0.00    -0.047 Br
HETATM    4  C   UNK N   1      29.607  17.419   6.171  0.00  0.00     0.050 A 
HETATM    5 Br   UNK N   1      28.210  17.827   7.433  0.00  0.00    -0.048 Br
HETATM    6  C   UNK N   1      30.946  17.326   6.605  0.00  0.00     0.048 A 
HETATM    7 Br   UNK N   1      31.384  17.596   8.461  0.00  0.00    -0.048 Br
HETATM    8  C   UNK N   1      31.966  17.030   5.679  0.00  0.00     0.050 A 
HETATM    9 Br   UNK N   1      33.797  16.896   6.260  0.00  0.00    -0.048 Br
HETATM   10  C   UNK N   1      31.646  16.831   4.324  0.00  0.00     0.064 A 
HETATM   11 Br   UNK N   1      33.013  16.428   3.035  0.00  0.00    -0.047 Br
ENDROOT
BRANCH   1  12
HETATM   12  O   UNK N   1      30.017  16.728   2.600  0.00  0.00    -0.358 OA
HETATM   13  H   UNK N   1      30.423  16.030   2.126  0.00  0.00     0.217 HD
ENDBRANCH   1  12
TORSDOF 1
ENDMDL
MODEL 9
REMARK VINA RESULT:      -4.2      1.574      3.408
REMARK  1 active torsions:
REMARK  status: ('A' for Active; 'I' for Inactive)
REMARK    1  A    between atoms: O_1  and  C_2 
ROOT
HETATM    1  C   UNK N   1      28.649  17.392   6.831  0.00  0.00     0.103 A 
HETATM    2  C   UNK N   1      28.827  17.032   5.491  0.00  0.00     0.064 A 
HETATM    3 Br   UNK N   1      27.272  16.756   4.393  0.00  0.00    -0.047 Br
HETATM    4  C   UNK N   1      30.128  16.884   4.969  0.00  0.00     0.050 A 
HETATM    5 Br   UNK N   1      30.380  16.382   3.126  0.00  0.00    -0.048 Br
HETATM    6  C   UNK N   1      31.245  17.103   5.801  0.00  0.00     0.048 A 
HETATM    7 Br   UNK N   1      33.029  16.913   5.099  0.00  0.00    -0.048 Br
HETATM    8  C   UNK N   1      31.057  17.467   7.149  0.00  0.00     0.050 A 
HETATM    9 Br   UNK N   1      32.574  17.774   8.294  0.00  0.00    -0.048 Br
HETATM   10  C   UNK N   1      29.755  17.608   7.661  0.00  0.00     0.064 A 
HETATM   11 Br   UNK N   1      29.463  18.103   9.495  0.00  0.00    -0.047 Br
ENDROOT
BRANCH   1  12
HETATM   12  O   UNK N   1      27.405  17.531   7.328  0.00  0.00    -0.358 OA
HETATM   13  H   UNK N   1      27.176  18.303   7.806  0.00  0.00     0.217 HD
ENDBRANCH   1  12
TORSDOF 1
ENDMDL
