MODEL 1
REMARK VINA RESULT:      -6.6      0.000      0.000
REMARK  8 active torsions:
REMARK  status: ('A' for Active; 'I' for Inactive)
REMARK    1  A    between atoms: C_6  and  C_2 
REMARK    2  A    between atoms: O_23  and  C_2 
REMARK    3  A    between atoms: C_7  and  O_18 
REMARK    4  A    between atoms: C_8  and  O_19 
REMARK    5  A    between atoms: C_10  and  N_17 
REMARK    6  A    between atoms: P_25  and  O_20 
REMARK    7  A    between atoms: P_25  and  O_21 
REMARK    8  A    between atoms: P_25  and  O_23 
ROOT
HETATM    1  C   UNK N   1      34.623  15.374  10.823  0.00  0.00     0.180 C 
HETATM    2  C   UNK N   1      35.836  15.746  11.679  0.00  0.00     0.182 C 
HETATM    3  C   UNK N   1      35.945  14.550  12.638  0.00  0.00     0.198 C 
HETATM    4  C   UNK N   1      34.820  13.633  12.139  0.00  0.00     0.261 C 
HETATM    5  O   UNK N   1      34.629  13.965  10.782  0.00  0.00    -0.353 OA
ENDROOT
BRANCH   4   6
HETATM    6  N   UNK N   1      35.060  12.196  12.319  0.00  0.00    -0.308 N 
HETATM    7  C   UNK N   1      35.544  11.314  11.404  0.00  0.00     0.187 A 
HETATM    8  N   UNK N   1      35.734  10.081  11.951  0.00  0.00    -0.336 N 
HETATM    9  C   UNK N   1      35.377  10.235  13.237  0.00  0.00     0.136 A 
ATOM     10  HN  UNK N   1      36.070   9.235  11.490  1.00  0.00     0.168 HD
HETATM   11  C   UNK N   1      34.979  11.501  13.466  0.00  0.00     0.097 A 
HETATM   12  N   UNK N   1      35.420   9.300  14.215  0.00  0.00    -0.337 N 
HETATM   13  C   UNK N   1      34.598  11.899  14.738  0.00  0.00     0.122 A 
HETATM   14  N   UNK N   1      34.633  10.960  15.731  0.00  0.00    -0.360 N 
HETATM   15  C   UNK N   1      35.040   9.672  15.477  0.00  0.00     0.182 A 
ATOM     16  HN  UNK N   1      34.355  11.221  16.678  1.00  0.00     0.166 HD
ATOM     17  HN  UNK N   1      35.726   8.347  14.018  1.00  0.00     0.168 HD
ENDBRANCH   4   6
BRANCH   3  18
HETATM   18  O   UNK N   1      37.195  13.931  12.495  0.00  0.00    -0.388 OA
HETATM   19  H   UNK N   1      38.008  13.513  12.820  0.00  0.00     0.210 HD
ENDBRANCH   3  18
BRANCH   2  20
HETATM   20  O   UNK N   1      36.979  15.800  10.866  0.00  0.00    -0.390 OA
HETATM   21  H   UNK N   1      37.750  16.076  10.346  0.00  0.00     0.210 HD
ENDBRANCH   2  20
BRANCH   1  22
HETATM   22  C   UNK N   1      34.688  15.994   9.427  0.00  0.00     0.215 C 
BRANCH  22  23
HETATM   23  O   UNK N   1      34.829  17.389   9.493  0.00  0.00    -0.294 OA
BRANCH  23  24
HETATM   24  P   UNK N   1      33.882  18.055   8.191  0.00  0.00     0.390 P 
HETATM   25  O   UNK N   1      35.025  19.108   8.233  0.00  0.00    -0.632 OA
BRANCH  24  26
HETATM   26  O   UNK N   1      34.454  18.055   6.552  0.00  0.00    -0.307 OA
HETATM   27  H   UNK N   1      34.375  18.819   5.960  0.00  0.00     0.222 HD
ENDBRANCH  24  26
BRANCH  24  28
HETATM   28  O   UNK N   1      34.578  16.529   7.740  0.00  0.00    -0.307 OA
HETATM   29  H   UNK N   1      34.907  16.393   6.838  0.00  0.00     0.222 HD
ENDBRANCH  24  28
ENDBRANCH  23  24
ENDBRANCH  22  23
ENDBRANCH   1  22
TORSDOF 8
ENDMDL
MODEL 2
REMARK VINA RESULT:      -6.5     14.831     16.299
REMARK  8 active torsions:
REMARK  status: ('A' for Active; 'I' for Inactive)
REMARK    1  A    between atoms: C_6  and  C_2 
REMARK    2  A    between atoms: O_23  and  C_2 
REMARK    3  A    between atoms: C_7  and  O_18 
REMARK    4  A    between atoms: C_8  and  O_19 
REMARK    5  A    between atoms: C_10  and  N_17 
REMARK    6  A    between atoms: P_25  and  O_20 
REMARK    7  A    between atoms: P_25  and  O_21 
REMARK    8  A    between atoms: P_25  and  O_23 
ROOT
HETATM    1  C   UNK N   1      21.239  17.524   3.962  0.00  0.00     0.180 C 
HETATM    2  C   UNK N   1      20.072  16.661   3.475  0.00  0.00     0.182 C 
HETATM    3  C   UNK N   1      19.891  15.664   4.631  0.00  0.00     0.198 C 
HETATM    4  C   UNK N   1      20.937  16.151   5.643  0.00  0.00     0.261 C 
HETATM    5  O   UNK N   1      21.129  17.521   5.366  0.00  0.00    -0.353 OA
ENDROOT
BRANCH   4   6
HETATM    6  N   UNK N   1      20.594  15.924   7.053  0.00  0.00    -0.308 N 
HETATM    7  C   UNK N   1      19.828  16.707   7.857  0.00  0.00     0.187 A 
HETATM    8  N   UNK N   1      19.638  16.133   9.078  0.00  0.00    -0.336 N 
HETATM    9  C   UNK N   1      20.289  14.961   8.993  0.00  0.00     0.136 A 
ATOM     10  HN  UNK N   1      19.120  16.507   9.874  1.00  0.00     0.168 HD
HETATM   11  C   UNK N   1      20.858  14.826   7.781  0.00  0.00     0.097 A 
HETATM   12  N   UNK N   1      20.369  13.999   9.944  0.00  0.00    -0.337 N 
HETATM   13  C   UNK N   1      21.555  13.672   7.456  0.00  0.00     0.122 A 
HETATM   14  N   UNK N   1      21.645  12.699   8.410  0.00  0.00    -0.360 N 
HETATM   15  C   UNK N   1      21.060  12.856   9.643  0.00  0.00     0.182 A 
ATOM     16  HN  UNK N   1      22.155  11.839   8.203  1.00  0.00     0.166 HD
ATOM     17  HN  UNK N   1      19.928  14.124  10.855  1.00  0.00     0.168 HD
ENDBRANCH   4   6
BRANCH   3  18
HETATM   18  O   UNK N   1      18.596  15.770   5.159  0.00  0.00    -0.388 OA
HETATM   19  H   UNK N   1      17.864  15.514   5.742  0.00  0.00     0.210 HD
ENDBRANCH   3  18
BRANCH   2  20
HETATM   20  O   UNK N   1      18.922  17.458   3.361  0.00  0.00    -0.390 OA
HETATM   21  H   UNK N   1      18.015  17.798   3.323  0.00  0.00     0.210 HD
ENDBRANCH   2  20
BRANCH   1  22
HETATM   22  C   UNK N   1      21.196  18.937   3.380  0.00  0.00     0.215 C 
BRANCH  22  23
HETATM   23  O   UNK N   1      21.204  18.912   1.977  0.00  0.00    -0.294 OA
BRANCH  23  24
HETATM   24  P   UNK N   1      20.619  20.463   1.440  0.00  0.00     0.390 P 
HETATM   25  O   UNK N   1      22.121  20.817   1.638  0.00  0.00    -0.632 OA
BRANCH  24  26
HETATM   26  O   UNK N   1      21.057  21.121  -0.106  0.00  0.00    -0.307 OA
HETATM   27  H   UNK N   1      20.570  20.930  -0.923  0.00  0.00     0.222 HD
ENDBRANCH  24  26
BRANCH  24  28
HETATM   28  O   UNK N   1      20.511  19.282   0.172  0.00  0.00    -0.307 OA
HETATM   29  H   UNK N   1      21.234  18.650   0.035  0.00  0.00     0.222 HD
ENDBRANCH  24  28
ENDBRANCH  23  24
ENDBRANCH  22  23
ENDBRANCH   1  22
TORSDOF 8
ENDMDL
MODEL 3
REMARK VINA RESULT:      -6.5      4.126      7.092
REMARK  8 active torsions:
REMARK  status: ('A' for Active; 'I' for Inactive)
REMARK    1  A    between atoms: C_6  and  C_2 
REMARK    2  A    between atoms: O_23  and  C_2 
REMARK    3  A    between atoms: C_7  and  O_18 
REMARK    4  A    between atoms: C_8  and  O_19 
REMARK    5  A    between atoms: C_10  and  N_17 
REMARK    6  A    between atoms: P_25  and  O_20 
REMARK    7  A    between atoms: P_25  and  O_21 
REMARK    8  A    between atoms: P_25  and  O_23 
ROOT
HETATM    1  C   UNK N   1      35.547  12.442  11.650  0.00  0.00     0.180 C 
HETATM    2  C   UNK N   1      36.982  12.612  11.144  0.00  0.00     0.182 C 
HETATM    3  C   UNK N   1      36.820  13.659  10.030  0.00  0.00     0.198 C 
HETATM    4  C   UNK N   1      35.322  13.988  10.113  0.00  0.00     0.261 C 
HETATM    5  O   UNK N   1      34.939  13.695  11.438  0.00  0.00    -0.353 OA
ENDROOT
BRANCH   4   6
HETATM    6  N   UNK N   1      34.962  15.359   9.733  0.00  0.00    -0.308 N 
HETATM    7  C   UNK N   1      35.024  16.478  10.504  0.00  0.00     0.187 A 
HETATM    8  N   UNK N   1      34.710  17.594   9.789  0.00  0.00    -0.336 N 
HETATM    9  C   UNK N   1      34.478  17.134   8.549  0.00  0.00     0.136 A 
ATOM     10  HN  UNK N   1      34.663  18.559  10.120  1.00  0.00     0.168 HD
HETATM   11  C   UNK N   1      34.633  15.797   8.506  0.00  0.00     0.097 A 
HETATM   12  N   UNK N   1      34.160  17.863   7.452  0.00  0.00    -0.337 N 
HETATM   13  C   UNK N   1      34.477  15.109   7.313  0.00  0.00     0.122 A 
HETATM   14  N   UNK N   1      34.152  15.835   6.202  0.00  0.00    -0.360 N 
HETATM   15  C   UNK N   1      33.994  17.199   6.266  0.00  0.00     0.182 A 
ATOM     16  HN  UNK N   1      34.026  15.358   5.309  1.00  0.00     0.166 HD
ATOM     17  HN  UNK N   1      34.049  18.875   7.509  1.00  0.00     0.168 HD
ENDBRANCH   4   6
BRANCH   3  18
HETATM   18  O   UNK N   1      37.596  14.791  10.316  0.00  0.00    -0.388 OA
HETATM   19  H   UNK N   1      38.164  15.543  10.090  0.00  0.00     0.210 HD
ENDBRANCH   3  18
BRANCH   2  20
HETATM   20  O   UNK N   1      37.776  13.143  12.172  0.00  0.00    -0.390 OA
HETATM   21  H   UNK N   1      38.242  13.722  12.795  0.00  0.00     0.210 HD
ENDBRANCH   2  20
BRANCH   1  22
HETATM   22  C   UNK N   1      35.498  12.014  13.117  0.00  0.00     0.215 C 
BRANCH  22  23
HETATM   23  O   UNK N   1      34.917  13.008  13.919  0.00  0.00    -0.294 OA
BRANCH  23  24
HETATM   24  P   UNK N   1      35.977  13.241  15.283  0.00  0.00     0.390 P 
HETATM   25  O   UNK N   1      36.564  11.909  14.735  0.00  0.00    -0.632 OA
BRANCH  24  26
HETATM   26  O   UNK N   1      37.658  13.626  15.079  0.00  0.00    -0.307 OA
HETATM   27  H   UNK N   1      38.175  14.120  15.735  0.00  0.00     0.222 HD
ENDBRANCH  24  26
BRANCH  24  28
HETATM   28  O   UNK N   1      36.226  14.469  14.081  0.00  0.00    -0.307 OA
HETATM   29  H   UNK N   1      36.550  14.227  13.199  0.00  0.00     0.222 HD
ENDBRANCH  24  28
ENDBRANCH  23  24
ENDBRANCH  22  23
ENDBRANCH   1  22
TORSDOF 8
ENDMDL
MODEL 4
REMARK VINA RESULT:      -6.5      5.668      8.465
REMARK  8 active torsions:
REMARK  status: ('A' for Active; 'I' for Inactive)
REMARK    1  A    between atoms: C_6  and  C_2 
REMARK    2  A    between atoms: O_23  and  C_2 
REMARK    3  A    between atoms: C_7  and  O_18 
REMARK    4  A    between atoms: C_8  and  O_19 
REMARK    5  A    between atoms: C_10  and  N_17 
REMARK    6  A    between atoms: P_25  and  O_20 
REMARK    7  A    between atoms: P_25  and  O_21 
REMARK    8  A    between atoms: P_25  and  O_23 
ROOT
HETATM    1  C   UNK N   1      33.075  15.011   8.524  0.00  0.00     0.180 C 
HETATM    2  C   UNK N   1      33.751  16.102   7.691  0.00  0.00     0.182 C 
HETATM    3  C   UNK N   1      32.561  16.965   7.244  0.00  0.00     0.198 C 
HETATM    4  C   UNK N   1      31.383  16.280   7.951  0.00  0.00     0.261 C 
HETATM    5  O   UNK N   1      31.936  15.631   9.074  0.00  0.00    -0.353 OA
ENDROOT
BRANCH   4   6
HETATM    6  N   UNK N   1      30.276  17.169   8.326  0.00  0.00    -0.308 N 
HETATM    7  C   UNK N   1      29.997  17.672   9.558  0.00  0.00     0.187 A 
HETATM    8  N   UNK N   1      28.953  18.547   9.515  0.00  0.00    -0.336 N 
HETATM    9  C   UNK N   1      28.614  18.588   8.215  0.00  0.00     0.136 A 
ATOM     10  HN  UNK N   1      28.526  19.054  10.291  1.00  0.00     0.168 HD
HETATM   11  C   UNK N   1      29.407  17.770   7.497  0.00  0.00     0.097 A 
HETATM   12  N   UNK N   1      27.647  19.345   7.646  0.00  0.00    -0.337 N 
HETATM   13  C   UNK N   1      29.261  17.680   6.121  0.00  0.00     0.122 A 
HETATM   14  N   UNK N   1      28.284  18.437   5.538  0.00  0.00    -0.360 N 
HETATM   15  C   UNK N   1      27.482  19.263   6.289  0.00  0.00     0.182 A 
ATOM     16  HN  UNK N   1      28.148  18.390   4.528  1.00  0.00     0.166 HD
ATOM     17  HN  UNK N   1      27.059  19.958   8.211  1.00  0.00     0.168 HD
ENDBRANCH   4   6
BRANCH   3  18
HETATM   18  O   UNK N   1      32.722  18.281   7.702  0.00  0.00    -0.388 OA
HETATM   19  H   UNK N   1      32.873  18.961   8.377  0.00  0.00     0.210 HD
ENDBRANCH   3  18
BRANCH   2  20
HETATM   20  O   UNK N   1      34.595  16.861   8.517  0.00  0.00    -0.390 OA
HETATM   21  H   UNK N   1      35.288  17.170   9.120  0.00  0.00     0.210 HD
ENDBRANCH   2  20
BRANCH   1  22
HETATM   22  C   UNK N   1      34.003  14.445   9.600  0.00  0.00     0.215 C 
BRANCH  22  23
HETATM   23  O   UNK N   1      33.952  15.213  10.774  0.00  0.00    -0.294 OA
BRANCH  23  24
HETATM   24  P   UNK N   1      35.557  15.204  11.453  0.00  0.00     0.390 P 
HETATM   25  O   UNK N   1      35.869  14.573  10.067  0.00  0.00    -0.632 OA
BRANCH  24  26
HETATM   26  O   UNK N   1      36.813  16.236  10.845  0.00  0.00    -0.307 OA
HETATM   27  H   UNK N   1      36.774  17.205  10.888  0.00  0.00     0.222 HD
ENDBRANCH  24  26
BRANCH  24  28
HETATM   28  O   UNK N   1      34.999  16.827  11.188  0.00  0.00    -0.307 OA
HETATM   29  H   UNK N   1      35.572  17.470  10.741  0.00  0.00     0.222 HD
ENDBRANCH  24  28
ENDBRANCH  23  24
ENDBRANCH  22  23
ENDBRANCH   1  22
TORSDOF 8
ENDMDL
MODEL 5
REMARK VINA RESULT:      -6.4      8.064     10.579
REMARK  8 active torsions:
REMARK  status: ('A' for Active; 'I' for Inactive)
REMARK    1  A    between atoms: C_6  and  C_2 
REMARK    2  A    between atoms: O_23  and  C_2 
REMARK    3  A    between atoms: C_7  and  O_18 
REMARK    4  A    between atoms: C_8  and  O_19 
REMARK    5  A    between atoms: C_10  and  N_17 
REMARK    6  A    between atoms: P_25  and  O_20 
REMARK    7  A    between atoms: P_25  and  O_21 
REMARK    8  A    between atoms: P_25  and  O_23 
ROOT
HETATM    1  C   UNK N   1      30.745  18.078   8.446  0.00  0.00     0.180 C 
HETATM    2  C   UNK N   1      29.765  18.411   9.574  0.00  0.00     0.182 C 
HETATM    3  C   UNK N   1      28.458  18.677   8.810  0.00  0.00     0.198 C 
HETATM    4  C   UNK N   1      28.867  18.385   7.360  0.00  0.00     0.261 C 
HETATM    5  O   UNK N   1      29.952  17.489   7.441  0.00  0.00    -0.353 OA
ENDROOT
BRANCH   4   6
HETATM    6  N   UNK N   1      27.795  17.865   6.502  0.00  0.00    -0.308 N 
HETATM    7  C   UNK N   1      27.374  16.577   6.387  0.00  0.00     0.187 A 
HETATM    8  N   UNK N   1      26.286  16.478   5.572  0.00  0.00    -0.336 N 
HETATM    9  C   UNK N   1      26.034  17.747   5.209  0.00  0.00     0.136 A 
ATOM     10  HN  UNK N   1      25.780  15.635   5.301  1.00  0.00     0.168 HD
HETATM   11  C   UNK N   1      26.929  18.583   5.767  0.00  0.00     0.097 A 
HETATM   12  N   UNK N   1      25.022  18.186   4.423  0.00  0.00    -0.337 N 
HETATM   13  C   UNK N   1      26.839  19.950   5.557  0.00  0.00     0.122 A 
HETATM   14  N   UNK N   1      25.824  20.403   4.762  0.00  0.00    -0.360 N 
HETATM   15  C   UNK N   1      24.922  19.532   4.198  0.00  0.00     0.182 A 
ATOM     16  HN  UNK N   1      25.733  21.403   4.585  1.00  0.00     0.166 HD
ATOM     17  HN  UNK N   1      24.355  17.532   4.011  1.00  0.00     0.168 HD
ENDBRANCH   4   6
BRANCH   3  18
HETATM   18  O   UNK N   1      27.461  17.788   9.238  0.00  0.00    -0.388 OA
HETATM   19  H   UNK N   1      26.679  17.227   9.120  0.00  0.00     0.210 HD
ENDBRANCH   3  18
BRANCH   2  20
HETATM   20  O   UNK N   1      29.605  17.284  10.396  0.00  0.00    -0.390 OA
HETATM   21  H   UNK N   1      29.342  16.437  10.787  0.00  0.00     0.210 HD
ENDBRANCH   2  20
BRANCH   1  22
HETATM   22  C   UNK N   1      31.871  17.154   8.912  0.00  0.00     0.215 C 
BRANCH  22  23
HETATM   23  O   UNK N   1      31.588  15.813   8.611  0.00  0.00    -0.294 OA
BRANCH  23  24
HETATM   24  P   UNK N   1      32.804  14.850   9.406  0.00  0.00     0.390 P 
HETATM   25  O   UNK N   1      33.591  16.184   9.270  0.00  0.00    -0.632 OA
BRANCH  24  26
HETATM   26  O   UNK N   1      33.295  15.165  11.042  0.00  0.00    -0.307 OA
HETATM   27  H   UNK N   1      33.084  14.578  11.784  0.00  0.00     0.222 HD
ENDBRANCH  24  26
BRANCH  24  28
HETATM   28  O   UNK N   1      31.449  15.135  10.454  0.00  0.00    -0.307 OA
HETATM   29  H   UNK N   1      31.527  14.965  11.406  0.00  0.00     0.222 HD
ENDBRANCH  24  28
ENDBRANCH  23  24
ENDBRANCH  22  23
ENDBRANCH   1  22
TORSDOF 8
ENDMDL
MODEL 6
REMARK VINA RESULT:      -6.2      5.950      7.989
REMARK  8 active torsions:
REMARK  status: ('A' for Active; 'I' for Inactive)
REMARK    1  A    between atoms: C_6  and  C_2 
REMARK    2  A    between atoms: O_23  and  C_2 
REMARK    3  A    between atoms: C_7  and  O_18 
REMARK    4  A    between atoms: C_8  and  O_19 
REMARK    5  A    between atoms: C_10  and  N_17 
REMARK    6  A    between atoms: P_25  and  O_20 
REMARK    7  A    between atoms: P_25  and  O_21 
REMARK    8  A    between atoms: P_25  and  O_23 
ROOT
HETATM    1  C   UNK N   1      33.758  15.145   6.911  0.00  0.00     0.180 C 
HETATM    2  C   UNK N   1      34.000  16.049   5.699  0.00  0.00     0.182 C 
HETATM    3  C   UNK N   1      32.574  16.315   5.192  0.00  0.00     0.198 C 
HETATM    4  C   UNK N   1      31.719  15.580   6.234  0.00  0.00     0.261 C 
HETATM    5  O   UNK N   1      32.499  15.538   7.408  0.00  0.00    -0.353 OA
ENDROOT
BRANCH   4   6
HETATM    6  N   UNK N   1      30.395  16.165   6.481  0.00  0.00    -0.308 N 
HETATM    7  C   UNK N   1      29.246  15.939   5.790  0.00  0.00     0.187 A 
HETATM    8  N   UNK N   1      28.186  16.575   6.365  0.00  0.00    -0.336 N 
HETATM    9  C   UNK N   1      28.712  17.178   7.444  0.00  0.00     0.136 A 
ATOM     10  HN  UNK N   1      27.216  16.589   6.048  1.00  0.00     0.168 HD
HETATM   11  C   UNK N   1      30.033  16.932   7.523  0.00  0.00     0.097 A 
HETATM   12  N   UNK N   1      28.053  17.914   8.371  0.00  0.00    -0.337 N 
HETATM   13  C   UNK N   1      30.778  17.428   8.582  0.00  0.00     0.122 A 
HETATM   14  N   UNK N   1      30.123  18.175   9.520  0.00  0.00    -0.360 N 
HETATM   15  C   UNK N   1      28.774  18.418   9.419  0.00  0.00     0.182 A 
ATOM     16  HN  UNK N   1      30.644  18.558  10.310  1.00  0.00     0.166 HD
ATOM     17  HN  UNK N   1      27.051  18.086   8.289  1.00  0.00     0.168 HD
ENDBRANCH   4   6
BRANCH   3  18
HETATM   18  O   UNK N   1      32.306  17.691   5.206  0.00  0.00    -0.388 OA
HETATM   19  H   UNK N   1      32.047  18.529   5.621  0.00  0.00     0.210 HD
ENDBRANCH   3  18
BRANCH   2  20
HETATM   20  O   UNK N   1      34.575  17.255   6.130  0.00  0.00    -0.390 OA
HETATM   21  H   UNK N   1      34.960  18.144   6.190  0.00  0.00     0.210 HD
ENDBRANCH   2  20
BRANCH   1  22
HETATM   22  C   UNK N   1      34.862  15.275   7.960  0.00  0.00     0.215 C 
BRANCH  22  23
HETATM   23  O   UNK N   1      34.581  16.303   8.873  0.00  0.00    -0.294 OA
BRANCH  23  24
HETATM   24  P   UNK N   1      35.220  15.800  10.414  0.00  0.00     0.390 P 
HETATM   25  O   UNK N   1      36.135  14.960   9.477  0.00  0.00    -0.632 OA
BRANCH  24  26
HETATM   26  O   UNK N   1      36.812  16.255  10.937  0.00  0.00    -0.307 OA
HETATM   27  H   UNK N   1      36.976  16.879  11.662  0.00  0.00     0.222 HD
ENDBRANCH  24  26
BRANCH  24  28
HETATM   28  O   UNK N   1      35.551  17.479  10.119  0.00  0.00    -0.307 OA
HETATM   29  H   UNK N   1      34.819  18.111  10.041  0.00  0.00     0.222 HD
ENDBRANCH  24  28
ENDBRANCH  23  24
ENDBRANCH  22  23
ENDBRANCH   1  22
TORSDOF 8
ENDMDL
MODEL 7
REMARK VINA RESULT:      -6.1      2.734      4.253
REMARK  8 active torsions:
REMARK  status: ('A' for Active; 'I' for Inactive)
REMARK    1  A    between atoms: C_6  and  C_2 
REMARK    2  A    between atoms: O_23  and  C_2 
REMARK    3  A    between atoms: C_7  and  O_18 
REMARK    4  A    between atoms: C_8  and  O_19 
REMARK    5  A    between atoms: C_10  and  N_17 
REMARK    6  A    between atoms: P_25  and  O_20 
REMARK    7  A    between atoms: P_25  and  O_21 
REMARK    8  A    between atoms: P_25  and  O_23 
ROOT
HETATM    1  C   UNK N   1      33.818  16.311   7.304  0.00  0.00     0.180 C 
HETATM    2  C   UNK N   1      33.865  17.484   8.286  0.00  0.00     0.182 C 
HETATM    3  C   UNK N   1      34.441  16.834   9.553  0.00  0.00     0.198 C 
HETATM    4  C   UNK N   1      34.708  15.396   9.085  0.00  0.00     0.261 C 
HETATM    5  O   UNK N   1      34.885  15.475   7.688  0.00  0.00    -0.353 OA
ENDROOT
BRANCH   4   6
HETATM    6  N   UNK N   1      35.838  14.725   9.740  0.00  0.00    -0.308 N 
HETATM    7  C   UNK N   1      37.118  14.628   9.292  0.00  0.00     0.187 A 
HETATM    8  N   UNK N   1      37.923  14.023  10.210  0.00  0.00    -0.336 N 
HETATM    9  C   UNK N   1      37.106  13.773  11.247  0.00  0.00     0.136 A 
ATOM     10  HN  UNK N   1      38.918  13.809  10.128  1.00  0.00     0.168 HD
HETATM   11  C   UNK N   1      35.858  14.197  10.975  0.00  0.00     0.097 A 
HETATM   12  N   UNK N   1      37.440  13.209  12.432  0.00  0.00    -0.337 N 
HETATM   13  C   UNK N   1      34.852  14.073  11.921  0.00  0.00     0.122 A 
HETATM   14  N   UNK N   1      35.177  13.501  13.118  0.00  0.00    -0.360 N 
HETATM   15  C   UNK N   1      36.457  13.071  13.376  0.00  0.00     0.182 A 
ATOM     16  HN  UNK N   1      34.458  13.392  13.834  1.00  0.00     0.166 HD
ATOM     17  HN  UNK N   1      38.393  12.896  12.616  1.00  0.00     0.168 HD
ENDBRANCH   4   6
BRANCH   3  18
HETATM   18  O   UNK N   1      35.636  17.469   9.920  0.00  0.00    -0.388 OA
HETATM   19  H   UNK N   1      36.480  17.543  10.391  0.00  0.00     0.210 HD
ENDBRANCH   3  18
BRANCH   2  20
HETATM   20  O   UNK N   1      34.762  18.452   7.808  0.00  0.00    -0.390 OA
HETATM   21  H   UNK N   1      35.425  18.953   7.307  0.00  0.00     0.210 HD
ENDBRANCH   2  20
BRANCH   1  22
HETATM   22  C   UNK N   1      33.934  16.768   5.850  0.00  0.00     0.215 C 
BRANCH  22  23
HETATM   23  O   UNK N   1      32.910  17.666   5.513  0.00  0.00    -0.294 OA
BRANCH  23  24
HETATM   24  P   UNK N   1      31.624  16.724   4.807  0.00  0.00     0.390 P 
HETATM   25  O   UNK N   1      30.846  17.360   5.994  0.00  0.00    -0.632 OA
BRANCH  24  26
HETATM   26  O   UNK N   1      30.274  17.472   4.013  0.00  0.00    -0.307 OA
HETATM   27  H   UNK N   1      30.052  18.412   4.108  0.00  0.00     0.222 HD
ENDBRANCH  24  26
BRANCH  24  28
HETATM   28  O   UNK N   1      32.117  18.006   3.743  0.00  0.00    -0.307 OA
HETATM   29  H   UNK N   1      31.595  18.206   2.950  0.00  0.00     0.222 HD
ENDBRANCH  24  28
ENDBRANCH  23  24
ENDBRANCH  22  23
ENDBRANCH   1  22
TORSDOF 8
ENDMDL
MODEL 8
REMARK VINA RESULT:      -5.9      5.817      8.275
REMARK  8 active torsions:
REMARK  status: ('A' for Active; 'I' for Inactive)
REMARK    1  A    between atoms: C_6  and  C_2 
REMARK    2  A    between atoms: O_23  and  C_2 
REMARK    3  A    between atoms: C_7  and  O_18 
REMARK    4  A    between atoms: C_8  and  O_19 
REMARK    5  A    between atoms: C_10  and  N_17 
REMARK    6  A    between atoms: P_25  and  O_20 
REMARK    7  A    between atoms: P_25  and  O_21 
REMARK    8  A    between atoms: P_25  and  O_23 
ROOT
HETATM    1  C   UNK N   1      34.436  17.254   8.403  0.00  0.00     0.180 C 
HETATM    2  C   UNK N   1      32.948  17.286   8.761  0.00  0.00     0.182 C 
HETATM    3  C   UNK N   1      32.284  17.533   7.397  0.00  0.00     0.198 C 
HETATM    4  C   UNK N   1      33.489  17.534   6.446  0.00  0.00     0.261 C 
HETATM    5  O   UNK N   1      34.480  16.759   7.084  0.00  0.00    -0.353 OA
ENDROOT
BRANCH   4   6
HETATM    6  N   UNK N   1      33.213  17.052   5.087  0.00  0.00    -0.308 N 
HETATM    7  C   UNK N   1      32.514  17.686   4.108  0.00  0.00     0.187 A 
HETATM    8  N   UNK N   1      32.547  16.986   2.939  0.00  0.00    -0.336 N 
HETATM    9  C   UNK N   1      33.307  15.915   3.220  0.00  0.00     0.136 A 
ATOM     10  HN  UNK N   1      32.097  17.222   2.054  1.00  0.00     0.168 HD
HETATM   11  C   UNK N   1      33.715  15.952   4.503  0.00  0.00     0.097 A 
HETATM   12  N   UNK N   1      33.672  14.926   2.370  0.00  0.00    -0.337 N 
HETATM   13  C   UNK N   1      34.544  14.961   5.005  0.00  0.00     0.122 A 
HETATM   14  N   UNK N   1      34.914  13.956   4.156  0.00  0.00    -0.360 N 
HETATM   15  C   UNK N   1      34.484  13.935   2.850  0.00  0.00     0.182 A 
ATOM     16  HN  UNK N   1      35.521  13.209   4.496  1.00  0.00     0.166 HD
ATOM     17  HN  UNK N   1      33.351  14.921   1.402  1.00  0.00     0.168 HD
ENDBRANCH   4   6
BRANCH   3  18
HETATM   18  O   UNK N   1      31.407  16.482   7.091  0.00  0.00    -0.388 OA
HETATM   19  H   UNK N   1      30.557  16.101   6.822  0.00  0.00     0.210 HD
ENDBRANCH   3  18
BRANCH   2  20
HETATM   20  O   UNK N   1      32.562  16.027   9.248  0.00  0.00    -0.390 OA
HETATM   21  H   UNK N   1      32.521  15.158   9.676  0.00  0.00     0.210 HD
ENDBRANCH   2  20
BRANCH   1  22
HETATM   22  C   UNK N   1      35.247  16.394   9.372  0.00  0.00     0.215 C 
BRANCH  22  23
HETATM   23  O   UNK N   1      35.085  16.826  10.697  0.00  0.00    -0.294 OA
BRANCH  23  24
HETATM   24  P   UNK N   1      35.652  15.537  11.723  0.00  0.00     0.390 P 
HETATM   25  O   UNK N   1      34.802  14.705  10.722  0.00  0.00    -0.632 OA
BRANCH  24  26
HETATM   26  O   UNK N   1      36.789  14.353  11.159  0.00  0.00    -0.307 OA
HETATM   27  H   UNK N   1      36.561  13.653  10.527  0.00  0.00     0.222 HD
ENDBRANCH  24  26
BRANCH  24  28
HETATM   28  O   UNK N   1      36.963  16.256  10.841  0.00  0.00    -0.307 OA
HETATM   29  H   UNK N   1      37.686  15.702  10.507  0.00  0.00     0.222 HD
ENDBRANCH  24  28
ENDBRANCH  23  24
ENDBRANCH  22  23
ENDBRANCH   1  22
TORSDOF 8
ENDMDL
MODEL 9
REMARK VINA RESULT:      -5.8      4.286      7.036
REMARK  8 active torsions:
REMARK  status: ('A' for Active; 'I' for Inactive)
REMARK    1  A    between atoms: C_6  and  C_2 
REMARK    2  A    between atoms: O_23  and  C_2 
REMARK    3  A    between atoms: C_7  and  O_18 
REMARK    4  A    between atoms: C_8  and  O_19 
REMARK    5  A    between atoms: C_10  and  N_17 
REMARK    6  A    between atoms: P_25  and  O_20 
REMARK    7  A    between atoms: P_25  and  O_21 
REMARK    8  A    between atoms: P_25  and  O_23 
ROOT
HETATM    1  C   UNK N   1      36.631  13.379  12.079  0.00  0.00     0.180 C 
HETATM    2  C   UNK N   1      35.461  14.084  12.771  0.00  0.00     0.182 C 
HETATM    3  C   UNK N   1      34.960  15.044  11.680  0.00  0.00     0.198 C 
HETATM    4  C   UNK N   1      35.875  14.694  10.498  0.00  0.00     0.261 C 
HETATM    5  O   UNK N   1      36.286  13.362  10.713  0.00  0.00    -0.353 OA
ENDROOT
BRANCH   4   6
HETATM    6  N   UNK N   1      35.273  14.869   9.170  0.00  0.00    -0.308 N 
HETATM    7  C   UNK N   1      34.947  13.902   8.272  0.00  0.00     0.187 A 
HETATM    8  N   UNK N   1      34.311  14.423   7.185  0.00  0.00    -0.336 N 
HETATM    9  C   UNK N   1      34.233  15.738   7.452  0.00  0.00     0.136 A 
ATOM     10  HN  UNK N   1      33.972  13.929   6.359  1.00  0.00     0.168 HD
HETATM   11  C   UNK N   1      34.801  16.011   8.642  0.00  0.00     0.097 A 
HETATM   12  N   UNK N   1      33.650  16.693   6.689  0.00  0.00    -0.337 N 
HETATM   13  C   UNK N   1      34.804  17.305   9.139  0.00  0.00     0.122 A 
HETATM   14  N   UNK N   1      34.223  18.277   8.374  0.00  0.00    -0.360 N 
HETATM   15  C   UNK N   1      33.651  17.979   7.160  0.00  0.00     0.182 A 
ATOM     16  HN  UNK N   1      34.212  19.240   8.710  1.00  0.00     0.166 HD
ATOM     17  HN  UNK N   1      33.225  16.462   5.791  1.00  0.00     0.168 HD
ENDBRANCH   4   6
BRANCH   3  18
HETATM   18  O   UNK N   1      33.620  14.768  11.374  0.00  0.00    -0.388 OA
HETATM   19  H   UNK N   1      32.861  14.188  11.206  0.00  0.00     0.210 HD
ENDBRANCH   3  18
BRANCH   2  20
HETATM   20  O   UNK N   1      34.460  13.144  13.061  0.00  0.00    -0.390 OA
HETATM   21  H   UNK N   1      33.675  12.679  13.390  0.00  0.00     0.210 HD
ENDBRANCH   2  20
BRANCH   1  22
HETATM   22  C   UNK N   1      36.870  11.975  12.634  0.00  0.00     0.215 C 
BRANCH  22  23
HETATM   23  O   UNK N   1      36.552  10.990  11.686  0.00  0.00    -0.294 OA
BRANCH  23  24
HETATM   24  P   UNK N   1      35.557   9.811  12.495  0.00  0.00     0.390 P 
HETATM   25  O   UNK N   1      35.965  10.677  13.720  0.00  0.00    -0.632 OA
BRANCH  24  26
HETATM   26  O   UNK N   1      34.020  10.231  13.186  0.00  0.00    -0.307 OA
HETATM   27  H   UNK N   1      33.925  10.781  13.979  0.00  0.00     0.222 HD
ENDBRANCH  24  26
BRANCH  24  28
HETATM   28  O   UNK N   1      34.609  10.804  11.430  0.00  0.00    -0.307 OA
HETATM   29  H   UNK N   1      34.042  11.502  11.794  0.00  0.00     0.222 HD
ENDBRANCH  24  28
ENDBRANCH  23  24
ENDBRANCH  22  23
ENDBRANCH   1  22
TORSDOF 8
ENDMDL
