REMARK  17 active torsions:
REMARK  status: ('A' for Active; 'I' for Inactive)
REMARK    1  A    between atoms: C_3  and  C_1 
REMARK    2  A    between atoms: C_5  and  C_1 
REMARK    3  A    between atoms: C_4  and  C_2 
REMARK    4  A    between atoms: C_6  and  C_2 
REMARK    5  A    between atoms: N_24  and  C_3 
REMARK    6  A    between atoms: N_25  and  C_4 
REMARK    7  A    between atoms: N_27  and  C_5 
REMARK    8  A    between atoms: N_28  and  C_6 
REMARK    9  A    between atoms: C_18  and  C_14 
REMARK   10  A    between atoms: O_30  and  C_14 
REMARK   11  A    between atoms: C_22  and  C_15 
REMARK   12  A    between atoms: N_29  and  C_16 
REMARK   13  A    between atoms: O_37  and  C_17 
REMARK   14  A    between atoms: C_19  and  O_31 
REMARK   15  A    between atoms: C_20  and  O_32 
REMARK   16  A    between atoms: O_34  and  C_22 
REMARK   17  A    between atoms: C_23  and  O_37 
ROOT
HETATM    1  C   UNK N   1       0.460  17.371  -0.013  0.00  0.00     0.179 C 
HETATM    2  C   UNK N   1      -1.020  17.148  -0.385  0.00  0.00     0.180 C 
HETATM    3  C   UNK N   1      -1.362  15.699  -0.030  0.00  0.00     0.183 C 
HETATM    4  C   UNK N   1      -0.408  14.762  -0.749  0.00  0.00     0.205 C 
HETATM    5  C   UNK N   1       1.063  15.200  -0.499  0.00  0.00     0.298 C 
HETATM    6  O   UNK N   1      -0.664  14.755  -2.123  0.00  0.00    -0.388 OA
HETATM    7  O   UNK N   1       1.268  16.553  -0.843  0.00  0.00    -0.348 OA
HETATM    8  H   UNK N   1      -0.758  14.906  -3.077  0.00  0.00     0.210 HD
ENDROOT
BRANCH   3   9
HETATM    9  O   UNK N   1      -2.682  15.390  -0.370  0.00  0.00    -0.390 OA
HETATM   10  H   UNK N   1      -3.325  16.076  -0.607  0.00  0.00     0.210 HD
ENDBRANCH   3   9
BRANCH   5  11
HETATM   11  O   UNK N   1       1.934  14.418  -1.227  0.00  0.00    -0.318 OA
BRANCH  11  12
HETATM   12  C   UNK N   1       2.169  13.182  -0.780  0.00  0.00     0.075 A 
HETATM   13  C   UNK N   1       3.348  12.949  -0.119  0.00  0.00     0.052 A 
HETATM   14  C   UNK N   1       3.535  11.774   0.582  0.00  0.00     0.019 A 
HETATM   15  C   UNK N   1       2.491  10.823   0.662  0.00  0.00     0.052 A 
HETATM   16  C   UNK N   1       1.272  11.076  -0.004  0.00  0.00     0.106 A 
HETATM   17  C   UNK N   1       1.150  12.238  -0.748  0.00  0.00     0.073 A 
BRANCH  14  18
HETATM   18  C   UNK N   1       4.878  11.544   1.094  0.00  0.00     0.146 C 
HETATM   19  N   UNK N   1       5.272  10.346   1.309  0.00  0.00    -0.370 N 
ATOM     20  HN  UNK N   1       4.585   9.594   1.359  1.00  0.00     0.161 HD
BRANCH  19  21
HETATM   21  C   UNK N   1       6.667  10.041   1.481  0.00  0.00     0.123 C 
BRANCH  21  22
HETATM   22  C   UNK N   1       7.416  10.241   0.145  0.00  0.00     0.050 C 
BRANCH  22  23
HETATM   23  C   UNK N   1       6.696   9.717  -1.126  0.00  0.00     0.274 C 
BRANCH  23  24
HETATM   24  N   UNK N   1       6.140   8.356  -1.060  0.00  0.00     0.091 N 
HETATM   25  C   UNK N   1       6.819   7.502  -0.080  0.00  0.00     0.302 C 
HETATM   26  C   UNK N   1       6.185   6.115  -0.067  0.00  0.00     0.302 C 
HETATM   27  N   UNK N   1       4.751   6.193   0.221  0.00  0.00     0.091 N 
HETATM   28  C   UNK N   1       4.095   7.060  -0.757  0.00  0.00     0.302 C 
HETATM   29  C   UNK N   1       4.715   8.449  -0.752  0.00  0.00     0.302 C 
BRANCH  27  30
HETATM   30  C   UNK N   1       4.222   4.871  -0.051  0.00  0.00     0.274 C 
BRANCH  30  31
HETATM   31  C   UNK N   1       4.045   4.075   1.226  0.00  0.00     0.049 C 
BRANCH  31  32
HETATM   32  C   UNK N   1       3.378   2.752   0.893  0.00  0.00     0.112 C 
BRANCH  32  33
HETATM   33  N   UNK N   1       2.035   2.983   0.387  0.00  0.00    -0.430 N 
HETATM   34  H   UNK N   1       1.704   3.880   0.032  0.00  0.00     0.149 HD
HETATM   35  H   UNK N   1       1.382   2.198   0.387  0.00  0.00     0.149 HD
ENDBRANCH  32  33
ENDBRANCH  31  32
ENDBRANCH  30  31
ENDBRANCH  27  30
ENDBRANCH  23  24
ENDBRANCH  22  23
ENDBRANCH  21  22
ENDBRANCH  19  21
BRANCH  18  36
HETATM   36  O   UNK N   1       5.752  12.576   1.155  0.00  0.00    -0.346 OA
HETATM   37  H   UNK N   1       6.673  12.409   1.197  0.00  0.00     0.219 HD
ENDBRANCH  18  36
ENDBRANCH  14  18
BRANCH  16  38
HETATM   38  N   UNK N   1       0.131  10.241   0.166  0.00  0.00    -0.116 N 
HETATM   39  O   UNK N   1      -0.888  10.503  -0.413  0.00  0.00    -0.532 OA
HETATM   40  O   UNK N   1       0.125   9.392   0.998  0.00  0.00    -0.532 OA
ENDBRANCH  16  38
ENDBRANCH  11  12
ENDBRANCH   5  11
BRANCH   2  41
HETATM   41  O   UNK N   1      -1.849  18.010   0.333  0.00  0.00    -0.390 OA
HETATM   42  H   UNK N   1      -1.618  18.809   0.833  0.00  0.00     0.210 HD
ENDBRANCH   2  41
BRANCH   1  43
HETATM   43  C   UNK N   1       0.906  18.820  -0.148  0.00  0.00     0.198 C 
BRANCH  43  44
HETATM   44  O   UNK N   1       0.935  19.213  -1.484  0.00  0.00    -0.398 OA
HETATM   45  H   UNK N   1       1.183  19.332  -2.414  0.00  0.00     0.209 HD
ENDBRANCH  43  44
ENDBRANCH   1  43
TORSDOF 17
