REMARK  6 active torsions:
REMARK  status: ('A' for Active; 'I' for Inactive)
REMARK    1  A    between atoms: C_8  and  C_5 
REMARK    2  A    between atoms: O_14  and  C_5 
REMARK    3  A    between atoms: N_13  and  C_6 
REMARK    4  A    between atoms: O_18  and  C_7 
REMARK    5  A    between atoms: C_9  and  O_15 
REMARK    6  A    between atoms: C_12  and  O_18 
ROOT
HETATM    1  C   UNK N   1       0.684   7.260   0.329  0.00  0.00     0.179 C 
HETATM    2  C   UNK N   1      -0.729   6.887  -0.180  0.00  0.00     0.180 C 
HETATM    3  C   UNK N   1      -1.053   5.452   0.241  0.00  0.00     0.183 C 
HETATM    4  C   UNK N   1       0.055   4.516  -0.258  0.00  0.00     0.205 C 
HETATM    5  C   UNK N   1       1.427   5.023   0.259  0.00  0.00     0.298 C 
HETATM    6  O   UNK N   1      -1.142   5.374   1.637  0.00  0.00    -0.390 OA
HETATM    7  O   UNK N   1       0.059   4.475  -1.655  0.00  0.00    -0.388 OA
HETATM    8  O   UNK N   1       1.647   6.355  -0.188  0.00  0.00    -0.348 OA
HETATM    9  H   UNK N   1      -1.220   5.400   2.603  0.00  0.00     0.210 HD
HETATM   10  H   UNK N   1       0.036   4.458  -2.625  0.00  0.00     0.210 HD
ENDROOT
BRANCH   2  11
HETATM   11  O   UNK N   1      -1.698   7.754   0.333  0.00  0.00    -0.390 OA
HETATM   12  H   UNK N   1      -1.513   8.638   0.689  0.00  0.00     0.210 HD
ENDBRANCH   2  11
BRANCH   1  13
HETATM   13  C   UNK N   1       1.079   8.658  -0.146  0.00  0.00     0.198 C 
BRANCH  13  14
HETATM   14  O   UNK N   1       0.268   9.639   0.428  0.00  0.00    -0.398 OA
HETATM   15  H   UNK N   1       0.577  10.468   0.826  0.00  0.00     0.209 HD
ENDBRANCH  13  14
ENDBRANCH   1  13
BRANCH   5  16
HETATM   16  O   UNK N   1       2.517   4.271  -0.174  0.00  0.00    -0.318 OA
BRANCH  16  17
HETATM   17  C   UNK N   1       2.723   2.929  -0.095  0.00  0.00     0.072 A 
HETATM   18  C   UNK N   1       4.029   2.458   0.091  0.00  0.00     0.039 A 
HETATM   19  C   UNK N   1       4.287   1.084   0.144  0.00  0.00     0.031 A 
HETATM   20  C   UNK N   1       3.242   0.170  -0.012  0.00  0.00     0.025 A 
HETATM   21  C   UNK N   1       1.939   0.629  -0.211  0.00  0.00     0.031 A 
HETATM   22  C   UNK N   1       1.683   2.000  -0.247  0.00  0.00     0.039 A 
BRANCH  20  23
HETATM   23  N   UNK N   1       3.501  -1.213   0.028  0.00  0.00    -0.399 N 
HETATM   24  H   UNK N   1       2.755  -1.854   0.056  0.00  0.00     0.156 HD
HETATM   25  H   UNK N   1       4.430  -1.540   0.028  0.00  0.00     0.156 HD
ENDBRANCH  20  23
ENDBRANCH  16  17
ENDBRANCH   5  16
TORSDOF 6
