REMARK  26 active torsions:
REMARK  status: ('A' for Active; 'I' for Inactive)
REMARK    1  A    between atoms: C_10  and  C_4 
REMARK    2  A    between atoms: O_47  and  C_4 
REMARK    3  A    between atoms: C_11  and  C_5 
REMARK    4  A    between atoms: O_48  and  C_5 
REMARK    5  A    between atoms: C_9  and  O_32 
REMARK    6  A    between atoms: C_12  and  N_30 
REMARK    7  A    between atoms: C_14  and  O_33 
REMARK    8  A    between atoms: C_15  and  O_34 
REMARK    9  A    between atoms: N_21  and  C_16 
REMARK   10  A    between atoms: O_35  and  C_18 
REMARK   11  A    between atoms: C_19  and  N_31 
REMARK   12  A    between atoms: P_55  and  O_37 
REMARK   13  A    between atoms: P_56  and  O_39 
REMARK   14  A    between atoms: P_57  and  O_41 
REMARK   15  A    between atoms: P_58  and  O_43 
REMARK   16  A    between atoms: P_59  and  O_45 
REMARK   17  A    between atoms: P_55  and  O_47 
REMARK   18  A    between atoms: P_56  and  O_48 
REMARK   19  A    between atoms: P_55  and  O_51 
REMARK   20  A    between atoms: P_57  and  O_51 
REMARK   21  A    between atoms: P_56  and  O_52 
REMARK   22  A    between atoms: P_58  and  O_52 
REMARK   23  A    between atoms: P_57  and  O_53 
REMARK   24  A    between atoms: P_59  and  O_53 
REMARK   25  A    between atoms: P_58  and  O_54 
REMARK   26  A    between atoms: P_59  and  O_54 
ROOT
HETATM    1  O   UNK N   1      -3.376  -1.716   0.633  0.00  0.00    -0.195 OA
ENDROOT
BRANCH   1   2
HETATM    2  P   UNK N   1      -3.605  -3.331   1.276  0.00  0.00     0.410 P 
HETATM    3  O   UNK N   1      -5.120  -3.598   1.478  0.00  0.00    -0.631 OA
BRANCH   2   4
HETATM    4  O   UNK N   1      -2.906  -3.454   2.860  0.00  0.00    -0.307 OA
HETATM    5  H   UNK N   1      -2.769  -3.827   3.745  0.00  0.00     0.222 HD
ENDBRANCH   2   4
BRANCH   2   6
HETATM    6  O   UNK N   1      -2.990  -4.586   0.236  0.00  0.00    -0.195 OA
BRANCH   6   7
HETATM    7  P   UNK N   1      -1.377  -4.106  -0.214  0.00  0.00     0.401 P 
HETATM    8  O   UNK N   1      -0.715  -5.353  -0.856  0.00  0.00    -0.631 OA
BRANCH   7   9
HETATM    9  O   UNK N   1      -1.382  -2.893  -1.459  0.00  0.00    -0.307 OA
HETATM   10  H   UNK N   1      -0.797  -2.552  -2.154  0.00  0.00     0.222 HD
ENDBRANCH   7   9
BRANCH   7  11
HETATM   11  O   UNK N   1      -0.378  -3.669   1.147  0.00  0.00    -0.294 OA
BRANCH  11  12
HETATM   12  C   UNK N   1      -0.584  -2.296   1.282  0.00  0.00     0.215 C 
BRANCH  12  13
HETATM   13  C   UNK N   1       0.681  -1.483   1.091  0.00  0.00     0.180 C 
HETATM   14  C   UNK N   1       1.597  -2.021  -0.004  0.00  0.00     0.182 C 
HETATM   15  C   UNK N   1       2.389  -0.782  -0.244  0.00  0.00     0.198 C 
HETATM   16  C   UNK N   1       1.229   0.210  -0.311  0.00  0.00     0.262 C 
HETATM   17  O   UNK N   1       0.333  -0.160   0.723  0.00  0.00    -0.353 OA
BRANCH  14  18
HETATM   18  O   UNK N   1       2.381  -3.096   0.421  0.00  0.00    -0.390 OA
HETATM   19  H   UNK N   1       2.006  -3.941   0.717  0.00  0.00     0.210 HD
ENDBRANCH  14  18
BRANCH  15  20
HETATM   20  O   UNK N   1       3.135  -0.834  -1.424  0.00  0.00    -0.388 OA
HETATM   21  H   UNK N   1       3.363  -1.301  -2.243  0.00  0.00     0.210 HD
ENDBRANCH  15  20
BRANCH  16  22
HETATM   22  N   UNK N   1       1.608   1.620  -0.169  0.00  0.00    -0.297 N 
HETATM   23  C   UNK N   1       0.726   2.654  -0.224  0.00  0.00     0.188 A 
HETATM   24  N   UNK N   1       1.348   3.853  -0.047  0.00  0.00    -0.346 N 
HETATM   25  C   UNK N   1       2.643   3.534   0.123  0.00  0.00     0.122 A 
ATOM     26  HN  UNK N   1       0.927   4.782  -0.045  1.00  0.00     0.167 HD
HETATM   27  C   UNK N   1       3.734   4.354   0.357  0.00  0.00     0.131 A 
HETATM   28  C   UNK N   1       2.802   2.198   0.046  0.00  0.00     0.142 A 
HETATM   29  N   UNK N   1       4.958   3.765   0.506  0.00  0.00    -0.337 N 
HETATM   30  C   UNK N   1       5.099   2.401   0.423  0.00  0.00     0.183 A 
ATOM     31  HN  UNK N   1       5.777   4.346   0.682  1.00  0.00     0.168 HD
HETATM   32  N   UNK N   1       4.012   1.605   0.190  0.00  0.00    -0.336 N 
ATOM     33  HN  UNK N   1       4.109   0.592   0.126  1.00  0.00     0.168 HD
BRANCH  27  34
HETATM   34  N   UNK N   1       3.593   5.752   0.447  0.00  0.00    -0.383 N 
HETATM   35  H   UNK N   1       4.391   6.326   0.510  0.00  0.00     0.157 HD
HETATM   36  H   UNK N   1       2.696   6.157   0.447  0.00  0.00     0.157 HD
ENDBRANCH  27  34
ENDBRANCH  16  22
ENDBRANCH  12  13
ENDBRANCH  11  12
ENDBRANCH   7  11
ENDBRANCH   6   7
ENDBRANCH   2   6
ENDBRANCH   1   2
BRANCH   1  37
HETATM   37  P   UNK N   1      -4.455  -1.522  -0.720  0.00  0.00     0.410 P 
HETATM   38  O   UNK N   1      -4.131  -2.613  -1.775  0.00  0.00    -0.631 OA
BRANCH  37  39
HETATM   39  O   UNK N   1      -4.255   0.006  -1.521  0.00  0.00    -0.307 OA
HETATM   40  H   UNK N   1      -3.460   0.336  -1.968  0.00  0.00     0.222 HD
ENDBRANCH  37  39
BRANCH  37  41
HETATM   41  O   UNK N   1      -6.098  -1.768  -0.251  0.00  0.00    -0.195 OA
BRANCH  41  42
HETATM   42  P   UNK N   1      -6.525  -0.534   0.913  0.00  0.00     0.410 P 
HETATM   43  O   UNK N   1      -6.522  -1.211   2.310  0.00  0.00    -0.631 OA
BRANCH  42  44
HETATM   44  O   UNK N   1      -5.405   0.791   0.999  0.00  0.00    -0.307 OA
HETATM   45  H   UNK N   1      -4.451   0.619   1.047  0.00  0.00     0.222 HD
ENDBRANCH  42  44
BRANCH  42  46
HETATM   46  O   UNK N   1      -8.155   0.039   0.666  0.00  0.00    -0.195 OA
BRANCH  46  47
HETATM   47  P   UNK N   1      -8.848  -0.920  -0.619  0.00  0.00     0.401 P 
HETATM   48  O   UNK N   1      -8.170  -0.450  -1.935  0.00  0.00    -0.631 OA
BRANCH  47  49
HETATM   49  O   UNK N   1     -10.540  -0.597  -0.822  0.00  0.00    -0.307 OA
HETATM   50  H   UNK N   1     -10.857   0.313  -0.935  0.00  0.00     0.222 HD
ENDBRANCH  47  49
BRANCH  47  51
HETATM   51  O   UNK N   1      -8.528  -2.633  -0.490  0.00  0.00    -0.294 OA
BRANCH  51  52
HETATM   52  C   UNK N   1      -8.674  -2.987   0.860  0.00  0.00     0.215 C 
BRANCH  52  53
HETATM   53  C   UNK N   1      -9.913  -3.847   1.031  0.00  0.00     0.177 C 
HETATM   54  C   UNK N   1      -9.826  -5.122   0.195  0.00  0.00     0.153 C 
HETATM   55  C   UNK N   1     -11.271  -5.355  -0.076  0.00  0.00     0.088 C 
HETATM   56  C   UNK N   1     -11.684  -3.915  -0.362  0.00  0.00     0.235 C 
HETATM   57  O   UNK N   1     -11.043  -3.118   0.606  0.00  0.00    -0.356 OA
BRANCH  54  58
HETATM   58  O   UNK N   1      -9.226  -6.176   0.884  0.00  0.00    -0.393 OA
HETATM   59  H   UNK N   1      -9.652  -6.904   1.363  0.00  0.00     0.210 HD
ENDBRANCH  54  58
BRANCH  56  60
HETATM   60  N   UNK N   1     -13.131  -3.625  -0.382  0.00  0.00    -0.282 N 
HETATM   61  C   UNK N   1     -13.477  -2.331  -0.646  0.00  0.00     0.109 A 
HETATM   62  C   UNK N   1     -14.807  -1.942  -0.727  0.00  0.00     0.005 A 
HETATM   63  C   UNK N   1     -15.146  -0.520  -1.020  0.00  0.00     0.054 C 
HETATM   64  C   UNK N   1     -15.799  -2.901  -0.540  0.00  0.00     0.151 A 
HETATM   65  N   UNK N   1     -15.451  -4.184  -0.271  0.00  0.00    -0.288 N 
HETATM   66  C   UNK N   1     -14.137  -4.563  -0.187  0.00  0.00     0.330 A 
ATOM     67  HN  UNK N   1     -16.182  -4.881  -0.128  1.00  0.00     0.172 HD
HETATM   68  O   UNK N   1     -13.876  -5.729   0.050  0.00  0.00    -0.246 OA
BRANCH  64  69
HETATM   69  O   UNK N   1     -17.098  -2.567  -0.625  0.00  0.00    -0.346 OA
HETATM   70  H   UNK N   1     -17.350  -1.667  -0.684  0.00  0.00     0.219 HD
ENDBRANCH  64  69
ENDBRANCH  56  60
ENDBRANCH  52  53
ENDBRANCH  51  52
ENDBRANCH  47  51
ENDBRANCH  46  47
ENDBRANCH  42  46
ENDBRANCH  41  42
ENDBRANCH  37  41
ENDBRANCH   1  37
TORSDOF 26
