REMARK WARNING: 32 MAX_TORS EXCEEDED!!!
REMARK  37 active torsions:
REMARK  status: ('A' for Active; 'I' for Inactive)
REMARK    1  A    between atoms: S_1  and  C_34 
REMARK    2  A    between atoms: S_1  and  C_57 
REMARK    3  A    between atoms: P_2  and  O_5 
REMARK    4  A    between atoms: P_2  and  O_6 
REMARK    5  A    between atoms: P_2  and  O_9 
REMARK    6  A    between atoms: P_3  and  O_5 
REMARK    7  A    between atoms: P_3  and  O_7 
REMARK    8  A    between atoms: P_3  and  O_10 
REMARK    9  A    between atoms: P_4  and  O_8 
REMARK   10  A    between atoms: P_4  and  O_11 
REMARK   11  A    between atoms: P_4  and  O_12 
REMARK   12  A    between atoms: O_6  and  C_35 
REMARK   13  A    between atoms: O_7  and  C_47 
REMARK   14  A    between atoms: C_56  and  O_8 
REMARK   15  A    between atoms: C_33  and  O_13 
REMARK   16  A    between atoms: C_55  and  O_14 
REMARK   17  A    between atoms: N_22  and  C_37 
REMARK       I    between atoms: N_22  and  C_58 
REMARK   18  A    between atoms: N_23  and  C_36 
REMARK       I    between atoms: N_23  and  C_59 
REMARK   19  A    between atoms: N_24  and  C_60 
REMARK   20  A    between atoms: C_53  and  N_25 
REMARK   21  A    between atoms: C_32  and  C_33 
REMARK   22  A    between atoms: C_32  and  C_35 
REMARK   23  A    between atoms: C_33  and  C_58 
REMARK   24  A    between atoms: C_34  and  C_36 
REMARK   25  A    between atoms: C_37  and  C_49 
REMARK   26  A    between atoms: C_38  and  C_39 
REMARK   27  A    between atoms: C_38  and  C_40 
REMARK   28  A    between atoms: C_39  and  C_41 
REMARK   29  A    between atoms: C_40  and  C_42 
REMARK   30  A    between atoms: C_41  and  C_43 
REMARK   31  A    between atoms: C_42  and  C_44 
REMARK   32  A    between atoms: C_43  and  C_45 
REMARK   33  A    between atoms: C_44  and  C_46 
REMARK   34  A    between atoms: C_45  and  C_48 
REMARK   35  A    between atoms: C_54  and  C_47 
REMARK   36  A    between atoms: C_48  and  C_57 
REMARK   37  A    between atoms: C_49  and  C_59 
ROOT
HETATM    1  P   UNK N   1      31.085 -21.145  -0.451  0.00  0.00     0.401 P 
HETATM    2  O   UNK N   1      31.460 -21.536   0.994  0.00  0.00    -0.631 OA
ENDROOT
BRANCH   1   3
HETATM    3  O   UNK N   1      32.534 -21.371  -1.472  0.00  0.00    -0.195 OA
BRANCH   3   4
HETATM    4  P   UNK N   1      33.696 -22.591  -0.843  0.00  0.00     0.401 P 
HETATM    5  O   UNK N   1      33.820 -21.489   0.248  0.00  0.00    -0.631 OA
BRANCH   4   6
HETATM    6  O   UNK N   1      33.108 -23.421   0.597  0.00  0.00    -0.294 OA
BRANCH   6   7
HETATM    7  C   UNK N   1      34.180 -23.778   1.437  0.00  0.00     0.215 C 
BRANCH   7   8
HETATM    8  C   UNK N   1      34.669 -25.185   1.166  0.00  0.00     0.180 C 
HETATM    9  O   UNK N   1      33.578 -26.023   0.893  0.00  0.00    -0.353 OA
HETATM   10  C   UNK N   1      33.876 -26.653  -0.329  0.00  0.00     0.262 C 
HETATM   11  C   UNK N   1      35.391 -26.631  -0.515  0.00  0.00     0.199 C 
HETATM   12  C   UNK N   1      35.618 -25.225  -0.016  0.00  0.00     0.197 C 
BRANCH  10  13
HETATM   13  N   UNK N   1      33.221 -27.960  -0.353  0.00  0.00    -0.297 N 
HETATM   14  C   UNK N   1      31.902 -28.143  -0.259  0.00  0.00     0.142 A 
HETATM   15  N   UNK N   1      30.940 -27.189  -0.175  0.00  0.00    -0.336 N 
HETATM   16  C   UNK N   1      31.625 -29.457  -0.234  0.00  0.00     0.122 A 
HETATM   17  C   UNK N   1      29.640 -27.597  -0.064  0.00  0.00     0.183 A 
ATOM     18  HN  UNK N   1      31.180 -26.198  -0.194  1.00  0.00     0.168 HD
HETATM   19  N   UNK N   1      29.332 -28.936  -0.025  0.00  0.00    -0.337 N 
HETATM   20  C   UNK N   1      30.313 -29.887  -0.107  0.00  0.00     0.131 A 
ATOM     21  HN  UNK N   1      28.358 -29.225   0.067  1.00  0.00     0.168 HD
HETATM   22  N   UNK N   1      32.771 -30.163  -0.327  0.00  0.00    -0.346 N 
HETATM   23  C   UNK N   1      33.749 -29.213  -0.401  0.00  0.00     0.188 A 
ATOM     24  HN  UNK N   1      32.881 -31.177  -0.338  1.00  0.00     0.167 HD
BRANCH  20  25
HETATM   25  N   UNK N   1      29.989 -31.256  -0.047  0.00  0.00    -0.383 N 
HETATM   26  H   UNK N   1      29.047 -31.539  -0.005  0.00  0.00     0.157 HD
HETATM   27  H   UNK N   1      30.705 -31.931  -0.047  0.00  0.00     0.157 HD
ENDBRANCH  20  25
ENDBRANCH  10  13
BRANCH  11  28
HETATM   28  O   UNK N   1      36.003 -27.547   0.351  0.00  0.00    -0.388 OA
HETATM   29  H   UNK N   1      35.666 -28.230   0.951  0.00  0.00     0.210 HD
ENDBRANCH  11  28
BRANCH  12  30
HETATM   30  O   UNK N   1      36.948 -24.995   0.378  0.00  0.00    -0.286 OA
BRANCH  30  31
HETATM   31  P   UNK N   1      37.297 -23.291   0.151  0.00  0.00     0.391 P 
HETATM   32  O   UNK N   1      36.649 -22.487   1.311  0.00  0.00    -0.632 OA
BRANCH  31  33
HETATM   33  O   UNK N   1      38.998 -22.985   0.273  0.00  0.00    -0.307 OA
HETATM   34  H   UNK N   1      39.623 -23.725   0.341  0.00  0.00     0.222 HD
ENDBRANCH  31  33
BRANCH  31  35
HETATM   35  O   UNK N   1      36.696 -22.648  -1.345  0.00  0.00    -0.307 OA
HETATM   36  H   UNK N   1      36.839 -22.178  -2.181  0.00  0.00     0.222 HD
ENDBRANCH  31  35
ENDBRANCH  30  31
ENDBRANCH  12  30
ENDBRANCH   7   8
ENDBRANCH   6   7
ENDBRANCH   4   6
BRANCH   4  37
HETATM   37  O   UNK N   1      32.263 -23.529  -1.156  0.00  0.00    -0.307 OA
HETATM   38  H   UNK N   1      31.411 -23.100  -1.331  0.00  0.00     0.222 HD
ENDBRANCH   4  37
ENDBRANCH   3   4
ENDBRANCH   1   3
BRANCH   1  39
HETATM   39  O   UNK N   1      29.928 -19.892  -0.140  0.00  0.00    -0.296 OA
BRANCH  39  40
HETATM   40  C   UNK N   1      28.726 -20.327  -0.692  0.00  0.00     0.192 C 
BRANCH  40  41
HETATM   41  C   UNK N   1      27.898 -21.340   0.141  0.00  0.00     0.009 C 
HETATM   42  C   UNK N   1      27.621 -20.834   1.558  0.00  0.00     0.020 C 
HETATM   43  C   UNK N   1      28.595 -22.685   0.272  0.00  0.00     0.020 C 
BRANCH  41  44
HETATM   44  C   UNK N   1      26.618 -21.547  -0.690  0.00  0.00     0.219 C 
BRANCH  44  45
HETATM   45  O   UNK N   1      25.840 -22.608  -0.222  0.00  0.00    -0.385 OA
HETATM   46  H   UNK N   1      24.931 -22.509   0.102  0.00  0.00     0.210 HD
ENDBRANCH  44  45
BRANCH  44  47
HETATM   47  C   UNK N   1      25.801 -20.297  -0.741  0.00  0.00     0.247 C 
HETATM   48  O   UNK N   1      25.802 -19.605  -1.749  0.00  0.00    -0.271 OA
HETATM   49  N   UNK N   1      25.165 -19.894   0.379  0.00  0.00    -0.358 N 
HETATM   50  H   UNK N   1      25.108 -20.514   1.142  0.00  0.00     0.162 HD
BRANCH  49  51
HETATM   51  C   UNK N   1      24.569 -18.601   0.498  0.00  0.00     0.132 C 
BRANCH  51  52
HETATM   52  C   UNK N   1      25.557 -17.754   1.273  0.00  0.00     0.122 C 
BRANCH  52  53
HETATM   53  C   UNK N   1      26.273 -16.800   0.364  0.00  0.00     0.219 C 
HETATM   54  O   UNK N   1      27.468 -16.950   0.172  0.00  0.00    -0.274 OA
HETATM   55  N   UNK N   1      25.631 -15.749  -0.212  0.00  0.00    -0.360 N 
HETATM   56  H   UNK N   1      26.161 -15.124  -0.757  0.00  0.00     0.162 HD
BRANCH  55  57
HETATM   57  C   UNK N   1      24.212 -15.495  -0.070  0.00  0.00     0.133 C 
BRANCH  57  58
HETATM   58  C   UNK N   1      23.776 -15.501   1.394  0.00  0.00     0.102 C 
BRANCH  58  59
HETATM   59  S   UNK N   1      21.979 -15.286   1.648  0.00  0.00    -0.091 SA
BRANCH  59  60
HETATM   60  C   UNK N   1      21.384 -16.267   0.256  0.00  0.00     0.186 C 
HETATM   61  O   UNK N   1      20.937 -17.385   0.453  0.00  0.00    -0.286 OA
BRANCH  60  62
HETATM   62  C   UNK N   1      21.399 -15.710  -1.137  0.00  0.00     0.091 C 
BRANCH  62  63
HETATM   63  C   UNK N   1      20.663 -14.382  -1.231  0.00  0.00     0.008 C 
BRANCH  63  64
HETATM   64  C   UNK N   1      21.598 -13.224  -0.904  0.00  0.00     0.000 C 
BRANCH  64  65
HETATM   65  C   UNK N   1      21.131 -12.497   0.352  0.00  0.00     0.000 C 
BRANCH  65  66
HETATM   66  C   UNK N   1      20.146 -11.382   0.040  0.00  0.00     0.000 C 
BRANCH  66  67
HETATM   67  C   UNK N   1      18.863 -11.930  -0.559  0.00  0.00     0.000 C 
BRANCH  67  68
HETATM   68  C   UNK N   1      17.839 -10.823  -0.665  0.00  0.00     0.000 C 
BRANCH  68  69
HETATM   69  C   UNK N   1      16.852 -10.954   0.479  0.00  0.00     0.000 C 
BRANCH  69  70
HETATM   70  C   UNK N   1      16.152  -9.632   0.728  0.00  0.00    -0.000 C 
BRANCH  70  71
HETATM   71  C   UNK N   1      15.075  -9.383  -0.310  0.00  0.00    -0.005 C 
HETATM   72  C   UNK N   1      14.453  -8.026  -0.058  0.00  0.00     0.005 C 
ENDBRANCH  70  71
ENDBRANCH  69  70
ENDBRANCH  68  69
ENDBRANCH  67  68
ENDBRANCH  66  67
ENDBRANCH  65  66
ENDBRANCH  64  65
ENDBRANCH  63  64
ENDBRANCH  62  63
ENDBRANCH  60  62
ENDBRANCH  59  60
ENDBRANCH  58  59
ENDBRANCH  57  58
ENDBRANCH  55  57
ENDBRANCH  52  53
ENDBRANCH  51  52
ENDBRANCH  49  51
ENDBRANCH  44  47
ENDBRANCH  41  44
ENDBRANCH  40  41
ENDBRANCH  39  40
ENDBRANCH   1  39
BRANCH   1  73
HETATM   73  O   UNK N   1      31.985 -19.672  -0.307  0.00  0.00    -0.307 OA
HETATM   74  H   UNK N   1      32.951 -19.696  -0.226  0.00  0.00     0.222 HD
ENDBRANCH   1  73
TORSDOF 37
