MODEL 1
REMARK VINA RESULT:      -5.6      0.000      0.000
REMARK  6 active torsions:
REMARK  status: ('A' for Active; 'I' for Inactive)
REMARK    1  A    between atoms: C_2  and  O_1 
REMARK    2  A    between atoms: C_4  and  C_11 
REMARK    3  A    between atoms: C_5  and  O_6 
REMARK    4  A    between atoms: C_7  and  O_8 
REMARK    5  A    between atoms: C_9  and  O_10 
REMARK    6  A    between atoms: C_11  and  O_12 
ROOT
HETATM    1  C   UNK N   1      35.219  16.014  11.022  0.00  0.00     0.289 C 
HETATM    2  O   UNK N   1      35.580  16.698   9.846  0.00  0.00    -0.340 OA
HETATM    3  C   UNK N   1      34.395  17.188   9.255  0.00  0.00     0.253 C 
HETATM    4  C   UNK N   1      33.576  15.999   8.707  0.00  0.00     0.189 C 
HETATM    5  C   UNK N   1      33.223  15.103   9.893  0.00  0.00     0.183 C 
HETATM    6  C   UNK N   1      34.490  14.719  10.652  0.00  0.00     0.204 C 
ENDROOT
BRANCH   3   7
HETATM    7  C   UNK N   1      34.750  18.221   8.214  0.00  0.00     0.172 C 
HETATM    8  O   UNK N   1      34.423  18.070   7.047  0.00  0.00    -0.648 OA
BRANCH   7   9
HETATM    9  O   UNK N   1      35.347  19.369   8.588  0.00  0.00    -0.774 OA
HETATM   10  H   UNK N   1      35.869  19.398   9.365  0.00  0.00     0.167 HD
ENDBRANCH   7   9
ENDBRANCH   3   7
BRANCH   4  11
HETATM   11  O   UNK N   1      32.397  16.439   8.101  0.00  0.00    -0.390 OA
HETATM   12  H   UNK N   1      31.615  16.755   8.580  0.00  0.00     0.210 HD
ENDBRANCH   4  11
BRANCH   1  13
HETATM   13  O   UNK N   1      36.371  15.717  11.752  0.00  0.00    -0.368 OA
HETATM   14  H   UNK N   1      36.399  15.785  12.719  0.00  0.00     0.212 HD
ENDBRANCH   1  13
BRANCH   5  15
HETATM   15  O   UNK N   1      32.541  13.963   9.464  0.00  0.00    -0.390 OA
HETATM   16  H   UNK N   1      31.896  13.472   9.997  0.00  0.00     0.210 HD
ENDBRANCH   5  15
BRANCH   6  17
HETATM   17  O   UNK N   1      34.153  14.006  11.804  0.00  0.00    -0.388 OA
HETATM   18  H   UNK N   1      33.701  14.388  12.574  0.00  0.00     0.210 HD
ENDBRANCH   6  17
TORSDOF 6
ENDMDL
MODEL 2
REMARK VINA RESULT:      -5.5     13.430     15.419
REMARK  6 active torsions:
REMARK  status: ('A' for Active; 'I' for Inactive)
REMARK    1  A    between atoms: C_2  and  O_1 
REMARK    2  A    between atoms: C_4  and  C_11 
REMARK    3  A    between atoms: C_5  and  O_6 
REMARK    4  A    between atoms: C_7  and  O_8 
REMARK    5  A    between atoms: C_9  and  O_10 
REMARK    6  A    between atoms: C_11  and  O_12 
ROOT
HETATM    1  C   UNK N   1      21.599  20.126   2.881  0.00  0.00     0.289 C 
HETATM    2  O   UNK N   1      21.314  19.832   4.228  0.00  0.00    -0.340 OA
HETATM    3  C   UNK N   1      21.393  18.432   4.387  0.00  0.00     0.253 C 
HETATM    4  C   UNK N   1      20.209  17.772   3.648  0.00  0.00     0.189 C 
HETATM    5  C   UNK N   1      20.341  18.126   2.168  0.00  0.00     0.183 C 
HETATM    6  C   UNK N   1      20.443  19.640   2.000  0.00  0.00     0.204 C 
ENDROOT
BRANCH   3   7
HETATM    7  C   UNK N   1      21.459  18.102   5.858  0.00  0.00     0.172 C 
HETATM    8  O   UNK N   1      21.050  18.892   6.694  0.00  0.00    -0.648 OA
BRANCH   7   9
HETATM    9  O   UNK N   1      21.884  16.886   6.252  0.00  0.00    -0.774 OA
HETATM   10  H   UNK N   1      22.635  16.805   6.806  0.00  0.00     0.167 HD
ENDBRANCH   7   9
ENDBRANCH   3   7
BRANCH   4  11
HETATM   11  O   UNK N   1      20.241  16.383   3.789  0.00  0.00    -0.390 OA
HETATM   12  H   UNK N   1      20.769  15.907   4.449  0.00  0.00     0.210 HD
ENDBRANCH   4  11
BRANCH   1  13
HETATM   13  O   UNK N   1      21.757  21.504   2.736  0.00  0.00    -0.368 OA
HETATM   14  H   UNK N   1      22.458  21.887   2.185  0.00  0.00     0.212 HD
ENDBRANCH   1  13
BRANCH   5  15
HETATM   15  O   UNK N   1      19.260  17.623   1.442  0.00  0.00    -0.390 OA
HETATM   16  H   UNK N   1      18.871  16.743   1.570  0.00  0.00     0.210 HD
ENDBRANCH   5  15
BRANCH   6  17
HETATM   17  O   UNK N   1      20.689  19.952   0.663  0.00  0.00    -0.388 OA
HETATM   18  H   UNK N   1      20.072  20.432   0.088  0.00  0.00     0.210 HD
ENDBRANCH   6  17
TORSDOF 6
ENDMDL
MODEL 3
REMARK VINA RESULT:      -5.4     14.779     16.496
REMARK  6 active torsions:
REMARK  status: ('A' for Active; 'I' for Inactive)
REMARK    1  A    between atoms: C_2  and  O_1 
REMARK    2  A    between atoms: C_4  and  C_11 
REMARK    3  A    between atoms: C_5  and  O_6 
REMARK    4  A    between atoms: C_7  and  O_8 
REMARK    5  A    between atoms: C_9  and  O_10 
REMARK    6  A    between atoms: C_11  and  O_12 
ROOT
HETATM    1  C   UNK N   1      20.654  20.313   0.922  0.00  0.00     0.289 C 
HETATM    2  O   UNK N   1      20.746  19.006   0.408  0.00  0.00    -0.340 OA
HETATM    3  C   UNK N   1      20.050  18.150   1.287  0.00  0.00     0.253 C 
HETATM    4  C   UNK N   1      20.835  18.038   2.612  0.00  0.00     0.189 C 
HETATM    5  C   UNK N   1      20.911  19.440   3.216  0.00  0.00     0.183 C 
HETATM    6  C   UNK N   1      21.495  20.416   2.198  0.00  0.00     0.204 C 
ENDROOT
BRANCH   3   7
HETATM    7  C   UNK N   1      19.807  16.826   0.604  0.00  0.00     0.172 C 
HETATM    8  O   UNK N   1      20.662  15.955   0.610  0.00  0.00    -0.648 OA
BRANCH   7   9
HETATM    9  O   UNK N   1      18.601  16.563   0.065  0.00  0.00    -0.774 OA
HETATM   10  H   UNK N   1      17.819  16.716   0.559  0.00  0.00     0.167 HD
ENDBRANCH   7   9
ENDBRANCH   3   7
BRANCH   4  11
HETATM   11  O   UNK N   1      20.187  17.190   3.510  0.00  0.00    -0.390 OA
HETATM   12  H   UNK N   1      19.262  17.282   3.788  0.00  0.00     0.210 HD
ENDBRANCH   4  11
BRANCH   1  13
HETATM   13  O   UNK N   1      21.127  21.215  -0.031  0.00  0.00    -0.368 OA
HETATM   14  H   UNK N   1      20.547  21.865  -0.458  0.00  0.00     0.212 HD
ENDBRANCH   1  13
BRANCH   5  15
HETATM   15  O   UNK N   1      21.675  19.432   4.384  0.00  0.00    -0.390 OA
HETATM   16  H   UNK N   1      21.655  20.127   5.061  0.00  0.00     0.210 HD
ENDBRANCH   5  15
BRANCH   6  17
HETATM   17  O   UNK N   1      21.447  21.715   2.706  0.00  0.00    -0.388 OA
HETATM   18  H   UNK N   1      21.939  22.019   3.486  0.00  0.00     0.210 HD
ENDBRANCH   6  17
TORSDOF 6
ENDMDL
MODEL 4
REMARK VINA RESULT:      -5.2      1.481      3.212
REMARK  6 active torsions:
REMARK  status: ('A' for Active; 'I' for Inactive)
REMARK    1  A    between atoms: C_2  and  O_1 
REMARK    2  A    between atoms: C_4  and  C_11 
REMARK    3  A    between atoms: C_5  and  O_6 
REMARK    4  A    between atoms: C_7  and  O_8 
REMARK    5  A    between atoms: C_9  and  O_10 
REMARK    6  A    between atoms: C_11  and  O_12 
ROOT
HETATM    1  C   UNK N   1      32.935  14.379   7.446  0.00  0.00     0.289 C 
HETATM    2  O   UNK N   1      32.944  15.734   7.066  0.00  0.00    -0.340 OA
HETATM    3  C   UNK N   1      33.984  16.372   7.776  0.00  0.00     0.253 C 
HETATM    4  C   UNK N   1      33.602  16.450   9.270  0.00  0.00     0.189 C 
HETATM    5  C   UNK N   1      33.441  15.016   9.775  0.00  0.00     0.183 C 
HETATM    6  C   UNK N   1      32.450  14.261   8.894  0.00  0.00     0.204 C 
ENDROOT
BRANCH   3   7
HETATM    7  C   UNK N   1      34.268  17.712   7.144  0.00  0.00     0.172 C 
HETATM    8  O   UNK N   1      34.795  18.606   7.787  0.00  0.00    -0.648 OA
BRANCH   7   9
HETATM    9  O   UNK N   1      34.029  17.896   5.831  0.00  0.00    -0.774 OA
HETATM   10  H   UNK N   1      33.372  18.503   5.552  0.00  0.00     0.167 HD
ENDBRANCH   7   9
ENDBRANCH   3   7
BRANCH   4  11
HETATM   11  O   UNK N   1      34.601  17.085  10.011  0.00  0.00    -0.390 OA
HETATM   12  H   UNK N   1      35.535  16.826  10.013  0.00  0.00     0.210 HD
ENDBRANCH   4  11
BRANCH   1  13
HETATM   13  O   UNK N   1      32.079  13.671   6.601  0.00  0.00    -0.368 OA
HETATM   14  H   UNK N   1      31.159  13.481   6.842  0.00  0.00     0.212 HD
ENDBRANCH   1  13
BRANCH   5  15
HETATM   15  O   UNK N   1      33.022  15.007  11.106  0.00  0.00    -0.390 OA
HETATM   16  H   UNK N   1      32.236  14.542  11.435  0.00  0.00     0.210 HD
ENDBRANCH   5  15
BRANCH   6  17
HETATM   17  O   UNK N   1      32.401  12.920   9.280  0.00  0.00    -0.388 OA
HETATM   18  H   UNK N   1      31.733  12.544   9.876  0.00  0.00     0.210 HD
ENDBRANCH   6  17
TORSDOF 6
ENDMDL
MODEL 5
REMARK VINA RESULT:      -5.1     14.439     16.202
REMARK  6 active torsions:
REMARK  status: ('A' for Active; 'I' for Inactive)
REMARK    1  A    between atoms: C_2  and  O_1 
REMARK    2  A    between atoms: C_4  and  C_11 
REMARK    3  A    between atoms: C_5  and  O_6 
REMARK    4  A    between atoms: C_7  and  O_8 
REMARK    5  A    between atoms: C_9  and  O_10 
REMARK    6  A    between atoms: C_11  and  O_12 
ROOT
HETATM    1  C   UNK N   1      20.167  18.530   1.024  0.00  0.00     0.289 C 
HETATM    2  O   UNK N   1      20.598  17.627   2.015  0.00  0.00    -0.340 OA
HETATM    3  C   UNK N   1      20.223  18.156   3.268  0.00  0.00     0.253 C 
HETATM    4  C   UNK N   1      21.079  19.406   3.566  0.00  0.00     0.189 C 
HETATM    5  C   UNK N   1      20.786  20.431   2.470  0.00  0.00     0.183 C 
HETATM    6  C   UNK N   1      21.013  19.805   1.097  0.00  0.00     0.204 C 
ENDROOT
BRANCH   3   7
HETATM    7  C   UNK N   1      20.329  17.075   4.316  0.00  0.00     0.172 C 
HETATM    8  O   UNK N   1      19.492  16.189   4.386  0.00  0.00    -0.648 OA
BRANCH   7   9
HETATM    9  O   UNK N   1      21.409  17.029   5.121  0.00  0.00    -0.774 OA
HETATM   10  H   UNK N   1      22.153  17.570   4.945  0.00  0.00     0.167 HD
ENDBRANCH   7   9
ENDBRANCH   3   7
BRANCH   4  11
HETATM   11  O   UNK N   1      20.747  19.958   4.805  0.00  0.00    -0.390 OA
HETATM   12  H   UNK N   1      21.315  19.930   5.591  0.00  0.00     0.210 HD
ENDBRANCH   4  11
BRANCH   1  13
HETATM   13  O   UNK N   1      20.313  17.936  -0.231  0.00  0.00    -0.368 OA
HETATM   14  H   UNK N   1      19.550  17.717  -0.788  0.00  0.00     0.212 HD
ENDBRANCH   1  13
BRANCH   5  15
HETATM   15  O   UNK N   1      21.583  21.565   2.631  0.00  0.00    -0.390 OA
HETATM   16  H   UNK N   1      21.369  22.312   3.213  0.00  0.00     0.210 HD
ENDBRANCH   5  15
BRANCH   6  17
HETATM   17  O   UNK N   1      20.625  20.700   0.099  0.00  0.00    -0.388 OA
HETATM   18  H   UNK N   1      19.876  20.562  -0.502  0.00  0.00     0.210 HD
ENDBRANCH   6  17
TORSDOF 6
ENDMDL
MODEL 6
REMARK VINA RESULT:      -5.1      2.005      3.337
REMARK  6 active torsions:
REMARK  status: ('A' for Active; 'I' for Inactive)
REMARK    1  A    between atoms: C_2  and  O_1 
REMARK    2  A    between atoms: C_4  and  C_11 
REMARK    3  A    between atoms: C_5  and  O_6 
REMARK    4  A    between atoms: C_7  and  O_8 
REMARK    5  A    between atoms: C_9  and  O_10 
REMARK    6  A    between atoms: C_11  and  O_12 
ROOT
HETATM    1  C   UNK N   1      34.447  18.234   8.222  0.00  0.00     0.289 C 
HETATM    2  O   UNK N   1      34.541  17.918   6.854  0.00  0.00    -0.340 OA
HETATM    3  C   UNK N   1      33.465  17.061   6.537  0.00  0.00     0.253 C 
HETATM    4  C   UNK N   1      33.696  15.691   7.209  0.00  0.00     0.189 C 
HETATM    5  C   UNK N   1      33.738  15.924   8.719  0.00  0.00     0.183 C 
HETATM    6  C   UNK N   1      34.777  16.991   9.053  0.00  0.00     0.204 C 
ENDROOT
BRANCH   3   7
HETATM    7  C   UNK N   1      33.309  16.992   5.038  0.00  0.00     0.172 C 
HETATM    8  O   UNK N   1      32.801  17.914   4.420  0.00  0.00    -0.648 OA
BRANCH   7   9
HETATM    9  O   UNK N   1      33.821  15.946   4.360  0.00  0.00    -0.774 OA
HETATM   10  H   UNK N   1      34.663  16.013   3.954  0.00  0.00     0.167 HD
ENDBRANCH   7   9
ENDBRANCH   3   7
BRANCH   4  11
HETATM   11  O   UNK N   1      32.658  14.805   6.913  0.00  0.00    -0.390 OA
HETATM   12  H   UNK N   1      32.076  14.875   6.141  0.00  0.00     0.210 HD
ENDBRANCH   4  11
BRANCH   1  13
HETATM   13  O   UNK N   1      35.350  19.256   8.519  0.00  0.00    -0.368 OA
HETATM   14  H   UNK N   1      36.207  19.332   8.071  0.00  0.00     0.212 HD
ENDBRANCH   1  13
BRANCH   5  15
HETATM   15  O   UNK N   1      34.019  14.735   9.393  0.00  0.00    -0.390 OA
HETATM   16  H   UNK N   1      34.371  14.682  10.296  0.00  0.00     0.210 HD
ENDBRANCH   5  15
BRANCH   6  17
HETATM   17  O   UNK N   1      34.724  17.291  10.415  0.00  0.00    -0.388 OA
HETATM   18  H   UNK N   1      35.380  17.832  10.885  0.00  0.00     0.210 HD
ENDBRANCH   6  17
TORSDOF 6
ENDMDL
MODEL 7
REMARK VINA RESULT:      -5.0      1.385      4.432
REMARK  6 active torsions:
REMARK  status: ('A' for Active; 'I' for Inactive)
REMARK    1  A    between atoms: C_2  and  O_1 
REMARK    2  A    between atoms: C_4  and  C_11 
REMARK    3  A    between atoms: C_5  and  O_6 
REMARK    4  A    between atoms: C_7  and  O_8 
REMARK    5  A    between atoms: C_9  and  O_10 
REMARK    6  A    between atoms: C_11  and  O_12 
ROOT
HETATM    1  C   UNK N   1      33.819  17.247   7.300  0.00  0.00     0.289 C 
HETATM    2  O   UNK N   1      33.652  15.853   7.208  0.00  0.00    -0.340 OA
HETATM    3  C   UNK N   1      32.981  15.424   8.373  0.00  0.00     0.253 C 
HETATM    4  C   UNK N   1      33.931  15.563   9.583  0.00  0.00     0.189 C 
HETATM    5  C   UNK N   1      34.289  17.043   9.714  0.00  0.00     0.183 C 
HETATM    6  C   UNK N   1      34.846  17.564   8.392  0.00  0.00     0.204 C 
ENDROOT
BRANCH   3   7
HETATM    7  C   UNK N   1      32.459  14.024   8.160  0.00  0.00     0.172 C 
HETATM    8  O   UNK N   1      32.320  13.575   7.034  0.00  0.00    -0.648 OA
BRANCH   7   9
HETATM    9  O   UNK N   1      32.236  13.225   9.222  0.00  0.00    -0.774 OA
HETATM   10  H   UNK N   1      31.861  13.575  10.005  0.00  0.00     0.167 HD
ENDBRANCH   7   9
ENDBRANCH   3   7
BRANCH   4  11
HETATM   11  O   UNK N   1      33.311  15.138  10.759  0.00  0.00    -0.390 OA
HETATM   12  H   UNK N   1      33.598  14.382  11.293  0.00  0.00     0.210 HD
ENDBRANCH   4  11
BRANCH   1  13
HETATM   13  O   UNK N   1      34.267  17.737   6.072  0.00  0.00    -0.368 OA
HETATM   14  H   UNK N   1      34.716  18.593   5.993  0.00  0.00     0.212 HD
ENDBRANCH   1  13
BRANCH   5  15
HETATM   15  O   UNK N   1      35.208  17.238  10.746  0.00  0.00    -0.390 OA
HETATM   16  H   UNK N   1      35.076  16.953  11.664  0.00  0.00     0.210 HD
ENDBRANCH   5  15
BRANCH   6  17
HETATM   17  O   UNK N   1      35.053  18.941   8.476  0.00  0.00    -0.388 OA
HETATM   18  H   UNK N   1      35.573  19.459   7.840  0.00  0.00     0.210 HD
ENDBRANCH   6  17
TORSDOF 6
ENDMDL
MODEL 8
REMARK VINA RESULT:      -4.9     10.394     12.511
REMARK  6 active torsions:
REMARK  status: ('A' for Active; 'I' for Inactive)
REMARK    1  A    between atoms: C_2  and  O_1 
REMARK    2  A    between atoms: C_4  and  C_11 
REMARK    3  A    between atoms: C_5  and  O_6 
REMARK    4  A    between atoms: C_7  and  O_8 
REMARK    5  A    between atoms: C_9  and  O_10 
REMARK    6  A    between atoms: C_11  and  O_12 
ROOT
HETATM    1  C   UNK N   1      43.487  22.627   3.893  0.00  0.00     0.289 C 
HETATM    2  O   UNK N   1      42.486  22.250   2.978  0.00  0.00    -0.340 OA
HETATM    3  C   UNK N   1      42.276  20.861   3.121  0.00  0.00     0.253 C 
HETATM    4  C   UNK N   1      43.513  20.106   2.587  0.00  0.00     0.189 C 
HETATM    5  C   UNK N   1      44.710  20.533   3.436  0.00  0.00     0.183 C 
HETATM    6  C   UNK N   1      44.832  22.055   3.437  0.00  0.00     0.204 C 
ENDROOT
BRANCH   3   7
HETATM    7  C   UNK N   1      40.984  20.481   2.442  0.00  0.00     0.172 C 
HETATM    8  O   UNK N   1      40.988  19.804   1.426  0.00  0.00    -0.648 OA
BRANCH   7   9
HETATM    9  O   UNK N   1      39.807  20.807   3.012  0.00  0.00    -0.774 OA
HETATM   10  H   UNK N   1      39.686  21.655   3.391  0.00  0.00     0.167 HD
ENDBRANCH   7   9
ENDBRANCH   3   7
BRANCH   4  11
HETATM   11  O   UNK N   1      43.345  18.725   2.699  0.00  0.00    -0.390 OA
HETATM   12  H   UNK N   1      44.065  18.076   2.661  0.00  0.00     0.210 HD
ENDBRANCH   4  11
BRANCH   1  13
HETATM   13  O   UNK N   1      43.558  24.020   3.945  0.00  0.00    -0.368 OA
HETATM   14  H   UNK N   1      42.764  24.574   3.995  0.00  0.00     0.212 HD
ENDBRANCH   1  13
BRANCH   5  15
HETATM   15  O   UNK N   1      45.884  19.945   2.963  0.00  0.00    -0.390 OA
HETATM   16  H   UNK N   1      46.768  20.109   3.327  0.00  0.00     0.210 HD
ENDBRANCH   5  15
BRANCH   6  17
HETATM   17  O   UNK N   1      45.846  22.447   4.312  0.00  0.00    -0.388 OA
HETATM   18  H   UNK N   1      46.235  21.875   4.994  0.00  0.00     0.210 HD
ENDBRANCH   6  17
TORSDOF 6
ENDMDL
MODEL 9
REMARK VINA RESULT:      -4.9      1.761      2.676
REMARK  6 active torsions:
REMARK  status: ('A' for Active; 'I' for Inactive)
REMARK    1  A    between atoms: C_2  and  O_1 
REMARK    2  A    between atoms: C_4  and  C_11 
REMARK    3  A    between atoms: C_5  and  O_6 
REMARK    4  A    between atoms: C_7  and  O_8 
REMARK    5  A    between atoms: C_9  and  O_10 
REMARK    6  A    between atoms: C_11  and  O_12 
ROOT
HETATM    1  C   UNK N   1      37.036  15.009  10.563  0.00  0.00     0.289 C 
HETATM    2  O   UNK N   1      36.209  15.263   9.452  0.00  0.00    -0.340 OA
HETATM    3  C   UNK N   1      34.964  15.715   9.940  0.00  0.00     0.253 C 
HETATM    4  C   UNK N   1      34.236  14.542  10.631  0.00  0.00     0.189 C 
HETATM    5  C   UNK N   1      35.110  14.089  11.801  0.00  0.00     0.183 C 
HETATM    6  C   UNK N   1      36.520  13.774  11.307  0.00  0.00     0.204 C 
ENDROOT
BRANCH   3   7
HETATM    7  C   UNK N   1      34.184  16.340   8.810  0.00  0.00     0.172 C 
HETATM    8  O   UNK N   1      34.526  16.176   7.649  0.00  0.00    -0.648 OA
BRANCH   7   9
HETATM    9  O   UNK N   1      33.044  17.008   9.073  0.00  0.00    -0.774 OA
HETATM   10  H   UNK N   1      32.986  17.566   9.823  0.00  0.00     0.167 HD
ENDBRANCH   7   9
ENDBRANCH   3   7
BRANCH   4  11
HETATM   11  O   UNK N   1      32.992  14.942  11.121  0.00  0.00    -0.390 OA
HETATM   12  H   UNK N   1      32.449  15.648  10.738  0.00  0.00     0.210 HD
ENDBRANCH   4  11
BRANCH   1  13
HETATM   13  O   UNK N   1      38.340  14.784  10.120  0.00  0.00    -0.368 OA
HETATM   14  H   UNK N   1      38.859  14.019  10.414  0.00  0.00     0.212 HD
ENDBRANCH   1  13
BRANCH   5  15
HETATM   15  O   UNK N   1      34.550  12.977  12.432  0.00  0.00    -0.390 OA
HETATM   16  H   UNK N   1      34.256  12.173  11.976  0.00  0.00     0.210 HD
ENDBRANCH   5  15
BRANCH   6  17
HETATM   17  O   UNK N   1      37.347  13.482  12.393  0.00  0.00    -0.388 OA
HETATM   18  H   UNK N   1      37.347  13.973  13.231  0.00  0.00     0.210 HD
ENDBRANCH   6  17
TORSDOF 6
ENDMDL
