MODEL 1
REMARK VINA RESULT:      -3.5      0.000      0.000
REMARK  2 active torsions:
REMARK  status: ('A' for Active; 'I' for Inactive)
REMARK    1  A    between atoms: O_1  and  C_2 
REMARK    2  A    between atoms: C_2  and  C_3 
ROOT
HETATM    1  C   UNK N   1      39.443  21.316  20.544  0.00  0.00     0.408 C 
HETATM    2  F   UNK N   1      38.347  20.482  20.651  0.00  0.00    -0.169 F 
HETATM    3  F   UNK N   1      39.908  20.574  21.609  0.00  0.00    -0.169 F 
HETATM    4  F   UNK N   1      38.847  21.975  19.476  0.00  0.00    -0.169 F 
ENDROOT
BRANCH   1   5
HETATM    5  C   UNK N   1      40.767  22.100  20.641  0.00  0.00     0.281 C 
BRANCH   5   6
HETATM    6  O   UNK N   1      41.586  21.758  21.724  0.00  0.00    -0.392 OA
HETATM    7  H   UNK N   1      41.683  22.371  22.470  0.00  0.00     0.209 HD
ENDBRANCH   5   6
ENDBRANCH   1   5
TORSDOF 2
ENDMDL
MODEL 2
REMARK VINA RESULT:      -3.5     20.442     21.081
REMARK  2 active torsions:
REMARK  status: ('A' for Active; 'I' for Inactive)
REMARK    1  A    between atoms: O_1  and  C_2 
REMARK    2  A    between atoms: C_2  and  C_3 
ROOT
HETATM    1  C   UNK N   1      22.924  11.997  11.751  0.00  0.00     0.408 C 
HETATM    2  F   UNK N   1      21.674  11.864  12.323  0.00  0.00    -0.169 F 
HETATM    3  F   UNK N   1      22.234  11.769  10.580  0.00  0.00    -0.169 F 
HETATM    4  F   UNK N   1      23.483  12.213  13.005  0.00  0.00    -0.169 F 
ENDROOT
BRANCH   1   5
HETATM    5  C   UNK N   1      24.186  12.099  10.871  0.00  0.00     0.281 C 
BRANCH   5   6
HETATM    6  O   UNK N   1      25.316  12.628  11.506  0.00  0.00    -0.392 OA
HETATM    7  H   UNK N   1      25.950  12.035  11.940  0.00  0.00     0.209 HD
ENDBRANCH   5   6
ENDBRANCH   1   5
TORSDOF 2
ENDMDL
MODEL 3
REMARK VINA RESULT:      -3.3     20.281     20.839
REMARK  2 active torsions:
REMARK  status: ('A' for Active; 'I' for Inactive)
REMARK    1  A    between atoms: O_1  and  C_2 
REMARK    2  A    between atoms: C_2  and  C_3 
ROOT
HETATM    1  C   UNK N   1      23.269  12.088  11.560  0.00  0.00     0.408 C 
HETATM    2  F   UNK N   1      23.661  12.288  10.251  0.00  0.00    -0.169 F 
HETATM    3  F   UNK N   1      24.598  11.770  11.739  0.00  0.00    -0.169 F 
HETATM    4  F   UNK N   1      21.964  12.432  11.229  0.00  0.00    -0.169 F 
ENDROOT
BRANCH   1   5
HETATM    5  C   UNK N   1      23.100  11.799  13.065  0.00  0.00     0.281 C 
BRANCH   5   6
HETATM    6  O   UNK N   1      23.915  12.557  13.914  0.00  0.00    -0.392 OA
HETATM    7  H   UNK N   1      24.481  12.113  14.565  0.00  0.00     0.209 HD
ENDBRANCH   5   6
ENDBRANCH   1   5
TORSDOF 2
ENDMDL
MODEL 4
REMARK VINA RESULT:      -3.2     15.599     16.193
REMARK  2 active torsions:
REMARK  status: ('A' for Active; 'I' for Inactive)
REMARK    1  A    between atoms: O_1  and  C_2 
REMARK    2  A    between atoms: C_2  and  C_3 
ROOT
HETATM    1  C   UNK N   1      29.842  18.562   8.946  0.00  0.00     0.408 C 
HETATM    2  F   UNK N   1      31.205  18.376   9.058  0.00  0.00    -0.169 F 
HETATM    3  F   UNK N   1      30.037  18.034   7.688  0.00  0.00    -0.169 F 
HETATM    4  F   UNK N   1      29.798  19.077  10.236  0.00  0.00    -0.169 F 
ENDROOT
BRANCH   1   5
HETATM    5  C   UNK N   1      28.351  18.664   8.564  0.00  0.00     0.281 C 
BRANCH   5   6
HETATM    6  O   UNK N   1      27.465  18.032   9.445  0.00  0.00    -0.392 OA
HETATM    7  H   UNK N   1      27.038  17.199   9.188  0.00  0.00     0.209 HD
ENDBRANCH   5   6
ENDBRANCH   1   5
TORSDOF 2
ENDMDL
MODEL 5
REMARK VINA RESULT:      -3.1     24.787     25.131
REMARK  2 active torsions:
REMARK  status: ('A' for Active; 'I' for Inactive)
REMARK    1  A    between atoms: O_1  and  C_2 
REMARK    2  A    between atoms: C_2  and  C_3 
ROOT
HETATM    1  C   UNK N   1      30.707  22.145  -2.864  0.00  0.00     0.408 C 
HETATM    2  F   UNK N   1      29.348  22.362  -2.749  0.00  0.00    -0.169 F 
HETATM    3  F   UNK N   1      30.305  20.913  -3.335  0.00  0.00    -0.169 F 
HETATM    4  F   UNK N   1      30.960  23.420  -2.373  0.00  0.00    -0.169 F 
ENDROOT
BRANCH   1   5
HETATM    5  C   UNK N   1      32.150  21.650  -3.090  0.00  0.00     0.281 C 
BRANCH   5   6
HETATM    6  O   UNK N   1      32.789  21.138  -1.955  0.00  0.00    -0.392 OA
HETATM    7  H   UNK N   1      32.332  21.138  -1.099  0.00  0.00     0.209 HD
ENDBRANCH   5   6
ENDBRANCH   1   5
TORSDOF 2
ENDMDL
MODEL 6
REMARK VINA RESULT:      -3.1     21.172     21.724
REMARK  2 active torsions:
REMARK  status: ('A' for Active; 'I' for Inactive)
REMARK    1  A    between atoms: O_1  and  C_2 
REMARK    2  A    between atoms: C_2  and  C_3 
ROOT
HETATM    1  C   UNK N   1      23.182  11.983  11.338  0.00  0.00     0.408 C 
HETATM    2  F   UNK N   1      24.417  11.792  11.925  0.00  0.00    -0.169 F 
HETATM    3  F   UNK N   1      22.748  12.022  12.646  0.00  0.00    -0.169 F 
HETATM    4  F   UNK N   1      23.763  11.922  10.077  0.00  0.00    -0.169 F 
ENDROOT
BRANCH   1   5
HETATM    5  C   UNK N   1      21.707  12.204  10.947  0.00  0.00     0.281 C 
BRANCH   5   6
HETATM    6  O   UNK N   1      20.768  11.784  11.895  0.00  0.00    -0.392 OA
HETATM    7  H   UNK N   1      19.855  12.111  11.852  0.00  0.00     0.209 HD
ENDBRANCH   5   6
ENDBRANCH   1   5
TORSDOF 2
ENDMDL
MODEL 7
REMARK VINA RESULT:      -3.1      9.310      9.896
REMARK  2 active torsions:
REMARK  status: ('A' for Active; 'I' for Inactive)
REMARK    1  A    between atoms: O_1  and  C_2 
REMARK    2  A    between atoms: C_2  and  C_3 
ROOT
HETATM    1  C   UNK N   1      35.056  13.265  18.138  0.00  0.00     0.408 C 
HETATM    2  F   UNK N   1      34.852  13.531  16.798  0.00  0.00    -0.169 F 
HETATM    3  F   UNK N   1      34.941  11.954  17.728  0.00  0.00    -0.169 F 
HETATM    4  F   UNK N   1      35.150  14.626  18.401  0.00  0.00    -0.169 F 
ENDROOT
BRANCH   1   5
HETATM    5  C   UNK N   1      35.262  12.700  19.557  0.00  0.00     0.281 C 
BRANCH   5   6
HETATM    6  O   UNK N   1      34.618  13.405  20.580  0.00  0.00    -0.392 OA
HETATM    7  H   UNK N   1      34.511  13.000  21.455  0.00  0.00     0.209 HD
ENDBRANCH   5   6
ENDBRANCH   1   5
TORSDOF 2
ENDMDL
MODEL 8
REMARK VINA RESULT:      -3.0     25.642     26.210
REMARK  2 active torsions:
REMARK  status: ('A' for Active; 'I' for Inactive)
REMARK    1  A    between atoms: O_1  and  C_2 
REMARK    2  A    between atoms: C_2  and  C_3 
ROOT
HETATM    1  C   UNK N   1      20.603  19.962   2.639  0.00  0.00     0.408 C 
HETATM    2  F   UNK N   1      19.289  19.579   2.827  0.00  0.00    -0.169 F 
HETATM    3  F   UNK N   1      20.571  20.157   4.003  0.00  0.00    -0.169 F 
HETATM    4  F   UNK N   1      20.486  19.720   1.276  0.00  0.00    -0.169 F 
ENDROOT
BRANCH   1   5
HETATM    5  C   UNK N   1      22.070  20.432   2.706  0.00  0.00     0.281 C 
BRANCH   5   6
HETATM    6  O   UNK N   1      22.249  21.815   2.823  0.00  0.00    -0.392 OA
HETATM    7  H   UNK N   1      22.099  22.390   2.056  0.00  0.00     0.209 HD
ENDBRANCH   5   6
ENDBRANCH   1   5
TORSDOF 2
ENDMDL
MODEL 9
REMARK VINA RESULT:      -2.9     24.786     25.452
REMARK  2 active torsions:
REMARK  status: ('A' for Active; 'I' for Inactive)
REMARK    1  A    between atoms: O_1  and  C_2 
REMARK    2  A    between atoms: C_2  and  C_3 
ROOT
HETATM    1  C   UNK N   1      31.069  21.421  -3.267  0.00  0.00     0.408 C 
HETATM    2  F   UNK N   1      31.620  20.333  -3.914  0.00  0.00    -0.169 F 
HETATM    3  F   UNK N   1      29.993  21.158  -4.087  0.00  0.00    -0.169 F 
HETATM    4  F   UNK N   1      32.224  21.564  -2.508  0.00  0.00    -0.169 F 
ENDROOT
BRANCH   1   5
HETATM    5  C   UNK N   1      30.231  22.589  -2.708  0.00  0.00     0.281 C 
BRANCH   5   6
HETATM    6  O   UNK N   1      30.542  22.973  -1.398  0.00  0.00    -0.392 OA
HETATM    7  H   UNK N   1      31.371  23.443  -1.215  0.00  0.00     0.209 HD
ENDBRANCH   5   6
ENDBRANCH   1   5
TORSDOF 2
ENDMDL
