MODEL 1
REMARK VINA RESULT:      -9.6      0.000      0.000
REMARK  12 active torsions:
REMARK  status: ('A' for Active; 'I' for Inactive)
REMARK    1  A    between atoms: O_1  and  C_2 
REMARK    2  A    between atoms: C_2  and  C_4 
REMARK    3  A    between atoms: C_5  and  C_41 
REMARK    4  A    between atoms: C_7  and  O_8 
REMARK    5  A    between atoms: O_8  and  C_9 
REMARK    6  A    between atoms: C_10  and  N_11 
REMARK       I    between atoms: N_11  and  C_12 
REMARK    7  A    between atoms: C_12  and  C_14 
REMARK    8  A    between atoms: C_16  and  N_20 
REMARK    9  A    between atoms: C_24  and  N_25 
REMARK       I    between atoms: N_25  and  C_26 
REMARK   10  A    between atoms: C_26  and  C_28 
REMARK   11  A    between atoms: C_30  and  N_34 
REMARK   12  A    between atoms: C_41  and  O_42 
ROOT
HETATM    1  C   UNK N   1      25.606  17.539   5.086  0.00  0.00     0.102 A 
HETATM    2  C   UNK N   1      26.116  16.394   5.734  0.00  0.00     0.071 A 
HETATM    3  C   UNK N   1      27.423  16.031   5.489  0.00  0.00     0.062 A 
HETATM    4  C   UNK N   1      28.247  16.754   4.613  0.00  0.00     0.037 A 
HETATM    5  C   UNK N   1      27.739  17.861   3.947  0.00  0.00     0.032 A 
HETATM    6  C   UNK N   1      26.423  18.246   4.178  0.00  0.00     0.042 A 
ENDROOT
BRANCH   1   7
HETATM    7  O   UNK N   1      24.341  17.946   5.330  0.00  0.00    -0.308 OA
BRANCH   7   8
HETATM    8  C   UNK N   1      23.362  17.900   4.399  0.00  0.00     0.077 A 
HETATM    9  C   UNK N   1      22.950  19.086   3.808  0.00  0.00     0.056 A 
HETATM   10  C   UNK N   1      21.808  19.146   2.996  0.00  0.00     0.057 A 
HETATM   11  C   UNK N   1      21.076  17.924   2.754  0.00  0.00     0.054 A 
HETATM   12  C   UNK N   1      21.547  16.741   3.330  0.00  0.00     0.022 A 
HETATM   13  C   UNK N   1      22.654  16.729   4.144  0.00  0.00     0.038 A 
BRANCH  10  14
HETATM   14  C   UNK N   1      21.444  20.515   2.529  0.00  0.00     0.177 C 
HETATM   15  O   UNK N   1      21.761  20.932   1.433  0.00  0.00    -0.646 OA
BRANCH  14  16
HETATM   16  O   UNK N   1      20.682  21.301   3.319  0.00  0.00    -0.773 OA
HETATM   17  H   UNK N   1      19.911  21.016   3.769  0.00  0.00     0.167 HD
ENDBRANCH  14  16
ENDBRANCH  10  14
BRANCH  11  18
HETATM   18  C   UNK N   1      19.837  17.754   1.948  0.00  0.00     0.177 C 
HETATM   19  O   UNK N   1      19.803  17.073   0.942  0.00  0.00    -0.646 OA
BRANCH  18  20
HETATM   20  O   UNK N   1      18.702  18.363   2.352  0.00  0.00    -0.773 OA
HETATM   21  H   UNK N   1      18.180  18.076   3.076  0.00  0.00     0.167 HD
ENDBRANCH  18  20
ENDBRANCH  11  18
ENDBRANCH   7   8
ENDBRANCH   1   7
BRANCH   2  22
HETATM   22  N   UNK N   1      25.406  15.653   6.726  0.00  0.00    -0.320 N 
HETATM   23  C   UNK N   1      24.572  14.598   6.537  0.00  0.00     0.256 C 
HETATM   24  O   UNK N   1      24.516  14.028   5.459  0.00  0.00    -0.267 OA
HETATM   25  H   UNK N   1      25.537  15.941   7.659  0.00  0.00     0.169 HD
BRANCH  23  26
HETATM   26  C   UNK N   1      23.719  14.133   7.647  0.00  0.00     0.034 A 
HETATM   27  C   UNK N   1      22.372  14.508   7.684  0.00  0.00     0.053 A 
HETATM   28  C   UNK N   1      21.553  14.135   8.759  0.00  0.00     0.103 A 
HETATM   29  C   UNK N   1      22.095  13.368   9.800  0.00  0.00     0.036 A 
HETATM   30  C   UNK N   1      23.440  12.985   9.767  0.00  0.00     0.003 A 
HETATM   31  C   UNK N   1      24.254  13.377   8.700  0.00  0.00     0.017 A 
BRANCH  28  32
HETATM   32  N   UNK N   1      20.195  14.552   8.801  0.00  0.00    -0.116 N 
HETATM   33  O   UNK N   1      19.704  15.311   7.846  0.00  0.00    -0.532 OA
HETATM   34  O   UNK N   1      19.483  14.196   9.693  0.00  0.00    -0.532 OA
ENDBRANCH  28  32
ENDBRANCH  23  26
ENDBRANCH   2  22
BRANCH   4  35
HETATM   35  N   UNK N   1      29.648  16.543   4.643  0.00  0.00    -0.323 N 
HETATM   36  C   UNK N   1      30.348  16.955   5.735  0.00  0.00     0.256 C 
HETATM   37  O   UNK N   1      29.774  17.545   6.645  0.00  0.00    -0.267 OA
HETATM   38  H   UNK N   1      30.105  16.106   3.889  0.00  0.00     0.169 HD
BRANCH  36  39
HETATM   39  C   UNK N   1      31.790  16.801   5.850  0.00  0.00     0.034 A 
HETATM   40  C   UNK N   1      32.372  17.389   6.964  0.00  0.00     0.053 A 
HETATM   41  C   UNK N   1      33.734  17.350   7.181  0.00  0.00     0.103 A 
HETATM   42  C   UNK N   1      34.552  16.703   6.242  0.00  0.00     0.036 A 
HETATM   43  C   UNK N   1      33.978  16.098   5.109  0.00  0.00     0.003 A 
HETATM   44  C   UNK N   1      32.590  16.144   4.909  0.00  0.00     0.017 A 
BRANCH  41  45
HETATM   45  N   UNK N   1      34.261  17.969   8.346  0.00  0.00    -0.116 N 
HETATM   46  O   UNK N   1      34.940  19.091   8.253  0.00  0.00    -0.532 OA
HETATM   47  O   UNK N   1      34.092  17.471   9.419  0.00  0.00    -0.532 OA
ENDBRANCH  41  45
ENDBRANCH  36  39
ENDBRANCH   4  35
TORSDOF 12
ENDMDL
MODEL 2
REMARK VINA RESULT:      -9.4      1.578      2.431
REMARK  12 active torsions:
REMARK  status: ('A' for Active; 'I' for Inactive)
REMARK    1  A    between atoms: O_1  and  C_2 
REMARK    2  A    between atoms: C_2  and  C_4 
REMARK    3  A    between atoms: C_5  and  C_41 
REMARK    4  A    between atoms: C_7  and  O_8 
REMARK    5  A    between atoms: O_8  and  C_9 
REMARK    6  A    between atoms: C_10  and  N_11 
REMARK       I    between atoms: N_11  and  C_12 
REMARK    7  A    between atoms: C_12  and  C_14 
REMARK    8  A    between atoms: C_16  and  N_20 
REMARK    9  A    between atoms: C_24  and  N_25 
REMARK       I    between atoms: N_25  and  C_26 
REMARK   10  A    between atoms: C_26  and  C_28 
REMARK   11  A    between atoms: C_30  and  N_34 
REMARK   12  A    between atoms: C_41  and  O_42 
ROOT
HETATM    1  C   UNK N   1      24.540  15.902   5.674  0.00  0.00     0.102 A 
HETATM    2  C   UNK N   1      25.420  15.057   6.382  0.00  0.00     0.071 A 
HETATM    3  C   UNK N   1      26.722  14.952   5.940  0.00  0.00     0.062 A 
HETATM    4  C   UNK N   1      27.186  15.647   4.812  0.00  0.00     0.037 A 
HETATM    5  C   UNK N   1      26.314  16.452   4.094  0.00  0.00     0.032 A 
HETATM    6  C   UNK N   1      24.996  16.574   4.520  0.00  0.00     0.042 A 
ENDROOT
BRANCH   1   7
HETATM    7  O   UNK N   1      23.266  16.059   6.100  0.00  0.00    -0.308 OA
BRANCH   7   8
HETATM    8  C   UNK N   1      22.321  16.690   5.368  0.00  0.00     0.077 A 
HETATM    9  C   UNK N   1      21.733  16.008   4.311  0.00  0.00     0.056 A 
HETATM   10  C   UNK N   1      20.906  16.659   3.384  0.00  0.00     0.057 A 
HETATM   11  C   UNK N   1      20.644  18.067   3.572  0.00  0.00     0.054 A 
HETATM   12  C   UNK N   1      21.217  18.710   4.674  0.00  0.00     0.022 A 
HETATM   13  C   UNK N   1      22.047  18.044   5.543  0.00  0.00     0.038 A 
BRANCH  10  14
HETATM   14  C   UNK N   1      20.445  15.806   2.250  0.00  0.00     0.177 C 
HETATM   15  O   UNK N   1      21.092  15.679   1.230  0.00  0.00    -0.646 OA
BRANCH  14  16
HETATM   16  O   UNK N   1      19.302  15.099   2.379  0.00  0.00    -0.773 OA
HETATM   17  H   UNK N   1      18.447  15.432   2.189  0.00  0.00     0.167 HD
ENDBRANCH  14  16
ENDBRANCH  10  14
BRANCH  11  18
HETATM   18  C   UNK N   1      19.819  18.959   2.713  0.00  0.00     0.177 C 
HETATM   19  O   UNK N   1      20.273  19.952   2.182  0.00  0.00    -0.646 OA
BRANCH  18  20
HETATM   20  O   UNK N   1      18.522  18.649   2.499  0.00  0.00    -0.773 OA
HETATM   21  H   UNK N   1      18.044  18.891   1.730  0.00  0.00     0.167 HD
ENDBRANCH  18  20
ENDBRANCH  11  18
ENDBRANCH   7   8
ENDBRANCH   1   7
BRANCH   2  22
HETATM   22  N   UNK N   1      25.088  14.395   7.601  0.00  0.00    -0.320 N 
HETATM   23  C   UNK N   1      24.503  13.178   7.754  0.00  0.00     0.256 C 
HETATM   24  O   UNK N   1      24.394  12.411   6.810  0.00  0.00    -0.267 OA
HETATM   25  H   UNK N   1      25.308  14.877   8.432  0.00  0.00     0.169 HD
BRANCH  23  26
HETATM   26  C   UNK N   1      23.990  12.776   9.077  0.00  0.00     0.034 A 
HETATM   27  C   UNK N   1      22.617  12.853   9.336  0.00  0.00     0.053 A 
HETATM   28  C   UNK N   1      22.107  12.538  10.603  0.00  0.00     0.103 A 
HETATM   29  C   UNK N   1      22.989  12.131  11.615  0.00  0.00     0.036 A 
HETATM   30  C   UNK N   1      24.362  12.046  11.361  0.00  0.00     0.003 A 
HETATM   31  C   UNK N   1      24.863  12.380  10.100  0.00  0.00     0.017 A 
BRANCH  28  32
HETATM   32  N   UNK N   1      20.715  12.654  10.863  0.00  0.00    -0.116 N 
HETATM   33  O   UNK N   1      19.960  13.418  10.103  0.00  0.00    -0.532 OA
HETATM   34  O   UNK N   1      20.216  12.040  11.758  0.00  0.00    -0.532 OA
ENDBRANCH  28  32
ENDBRANCH  23  26
ENDBRANCH   2  22
BRANCH   4  35
HETATM   35  N   UNK N   1      28.581  15.763   4.594  0.00  0.00    -0.323 N 
HETATM   36  C   UNK N   1      29.272  16.718   5.275  0.00  0.00     0.256 C 
HETATM   37  O   UNK N   1      28.678  17.491   6.019  0.00  0.00    -0.267 OA
HETATM   38  H   UNK N   1      29.041  15.165   3.962  0.00  0.00     0.169 HD
BRANCH  36  39
HETATM   39  C   UNK N   1      30.701  16.928   5.103  0.00  0.00     0.034 A 
HETATM   40  C   UNK N   1      31.408  17.235   6.258  0.00  0.00     0.053 A 
HETATM   41  C   UNK N   1      32.762  17.492   6.237  0.00  0.00     0.103 A 
HETATM   42  C   UNK N   1      33.442  17.450   5.009  0.00  0.00     0.036 A 
HETATM   43  C   UNK N   1      32.742  17.137   3.829  0.00  0.00     0.003 A 
HETATM   44  C   UNK N   1      31.364  16.873   3.873  0.00  0.00     0.017 A 
BRANCH  41  45
HETATM   45  N   UNK N   1      33.423  17.794   7.458  0.00  0.00    -0.116 N 
HETATM   46  O   UNK N   1      34.637  18.298   7.449  0.00  0.00    -0.532 OA
HETATM   47  O   UNK N   1      32.879  17.589   8.502  0.00  0.00    -0.532 OA
ENDBRANCH  41  45
ENDBRANCH  36  39
ENDBRANCH   4  35
TORSDOF 12
ENDMDL
MODEL 3
REMARK VINA RESULT:      -9.3      3.146      4.112
REMARK  12 active torsions:
REMARK  status: ('A' for Active; 'I' for Inactive)
REMARK    1  A    between atoms: O_1  and  C_2 
REMARK    2  A    between atoms: C_2  and  C_4 
REMARK    3  A    between atoms: C_5  and  C_41 
REMARK    4  A    between atoms: C_7  and  O_8 
REMARK    5  A    between atoms: O_8  and  C_9 
REMARK    6  A    between atoms: C_10  and  N_11 
REMARK       I    between atoms: N_11  and  C_12 
REMARK    7  A    between atoms: C_12  and  C_14 
REMARK    8  A    between atoms: C_16  and  N_20 
REMARK    9  A    between atoms: C_24  and  N_25 
REMARK       I    between atoms: N_25  and  C_26 
REMARK   10  A    between atoms: C_26  and  C_28 
REMARK   11  A    between atoms: C_30  and  N_34 
REMARK   12  A    between atoms: C_41  and  O_42 
ROOT
HETATM    1  C   UNK N   1      25.587  18.422   4.888  0.00  0.00     0.102 A 
HETATM    2  C   UNK N   1      26.134  17.522   3.948  0.00  0.00     0.071 A 
HETATM    3  C   UNK N   1      27.502  17.504   3.780  0.00  0.00     0.062 A 
HETATM    4  C   UNK N   1      28.354  18.353   4.503  0.00  0.00     0.037 A 
HETATM    5  C   UNK N   1      27.818  19.262   5.403  0.00  0.00     0.032 A 
HETATM    6  C   UNK N   1      26.441  19.300   5.589  0.00  0.00     0.042 A 
ENDROOT
BRANCH   1   7
HETATM    7  O   UNK N   1      24.253  18.442   5.106  0.00  0.00    -0.308 OA
BRANCH   7   8
HETATM    8  C   UNK N   1      23.381  19.035   4.261  0.00  0.00     0.077 A 
HETATM    9  C   UNK N   1      22.106  18.501   4.140  0.00  0.00     0.056 A 
HETATM   10  C   UNK N   1      21.221  18.927   3.139  0.00  0.00     0.057 A 
HETATM   11  C   UNK N   1      21.656  19.974   2.243  0.00  0.00     0.054 A 
HETATM   12  C   UNK N   1      22.931  20.519   2.423  0.00  0.00     0.022 A 
HETATM   13  C   UNK N   1      23.779  20.052   3.398  0.00  0.00     0.038 A 
BRANCH  10  14
HETATM   14  C   UNK N   1      19.933  18.177   3.080  0.00  0.00     0.177 C 
HETATM   15  O   UNK N   1      19.729  17.187   3.755  0.00  0.00    -0.646 OA
BRANCH  14  16
HETATM   16  O   UNK N   1      18.934  18.640   2.301  0.00  0.00    -0.773 OA
HETATM   17  H   UNK N   1      18.219  18.122   1.988  0.00  0.00     0.167 HD
ENDBRANCH  14  16
ENDBRANCH  10  14
BRANCH  11  18
HETATM   18  C   UNK N   1      20.900  20.566   1.106  0.00  0.00     0.177 C 
HETATM   19  O   UNK N   1      20.584  21.739   1.075  0.00  0.00    -0.646 OA
BRANCH  18  20
HETATM   20  O   UNK N   1      20.564  19.781   0.060  0.00  0.00    -0.773 OA
HETATM   21  H   UNK N   1      21.165  19.223  -0.393  0.00  0.00     0.167 HD
ENDBRANCH  18  20
ENDBRANCH  11  18
ENDBRANCH   7   8
ENDBRANCH   1   7
BRANCH   2  22
HETATM   22  N   UNK N   1      25.375  16.540   3.244  0.00  0.00    -0.320 N 
HETATM   23  C   UNK N   1      25.432  15.190   3.381  0.00  0.00     0.256 C 
HETATM   24  O   UNK N   1      26.023  14.679   4.319  0.00  0.00    -0.267 OA
HETATM   25  H   UNK N   1      24.732  16.882   2.580  0.00  0.00     0.169 HD
BRANCH  23  26
HETATM   26  C   UNK N   1      24.773  14.326   2.383  0.00  0.00     0.034 A 
HETATM   27  C   UNK N   1      23.468  14.619   1.972  0.00  0.00     0.053 A 
HETATM   28  C   UNK N   1      22.794  13.781   1.073  0.00  0.00     0.103 A 
HETATM   29  C   UNK N   1      23.447  12.644   0.576  0.00  0.00     0.036 A 
HETATM   30  C   UNK N   1      24.753  12.348   0.978  0.00  0.00     0.003 A 
HETATM   31  C   UNK N   1      25.411  13.179   1.889  0.00  0.00     0.017 A 
BRANCH  28  32
HETATM   32  N   UNK N   1      21.457  14.071   0.691  0.00  0.00    -0.116 N 
HETATM   33  O   UNK N   1      20.602  13.095   0.475  0.00  0.00    -0.532 OA
HETATM   34  O   UNK N   1      21.092  15.204   0.586  0.00  0.00    -0.532 OA
ENDBRANCH  28  32
ENDBRANCH  23  26
ENDBRANCH   2  22
BRANCH   4  35
HETATM   35  N   UNK N   1      29.744  18.077   4.537  0.00  0.00    -0.323 N 
HETATM   36  C   UNK N   1      30.251  17.406   5.607  0.00  0.00     0.256 C 
HETATM   37  O   UNK N   1      29.518  17.099   6.542  0.00  0.00    -0.267 OA
HETATM   38  H   UNK N   1      30.330  18.365   3.801  0.00  0.00     0.169 HD
BRANCH  36  39
HETATM   39  C   UNK N   1      31.665  17.094   5.742  0.00  0.00     0.034 A 
HETATM   40  C   UNK N   1      32.291  17.609   6.870  0.00  0.00     0.053 A 
HETATM   41  C   UNK N   1      33.636  17.420   7.107  0.00  0.00     0.103 A 
HETATM   42  C   UNK N   1      34.394  16.694   6.175  0.00  0.00     0.036 A 
HETATM   43  C   UNK N   1      33.776  16.162   5.028  0.00  0.00     0.003 A 
HETATM   44  C   UNK N   1      32.404  16.361   4.808  0.00  0.00     0.017 A 
BRANCH  41  45
HETATM   45  N   UNK N   1      34.210  17.971   8.285  0.00  0.00    -0.116 N 
HETATM   46  O   UNK N   1      34.877  19.102   8.233  0.00  0.00    -0.532 OA
HETATM   47  O   UNK N   1      34.090  17.406   9.331  0.00  0.00    -0.532 OA
ENDBRANCH  41  45
ENDBRANCH  36  39
ENDBRANCH   4  35
TORSDOF 12
ENDMDL
MODEL 4
REMARK VINA RESULT:      -9.3      1.339      1.728
REMARK  12 active torsions:
REMARK  status: ('A' for Active; 'I' for Inactive)
REMARK    1  A    between atoms: O_1  and  C_2 
REMARK    2  A    between atoms: C_2  and  C_4 
REMARK    3  A    between atoms: C_5  and  C_41 
REMARK    4  A    between atoms: C_7  and  O_8 
REMARK    5  A    between atoms: O_8  and  C_9 
REMARK    6  A    between atoms: C_10  and  N_11 
REMARK       I    between atoms: N_11  and  C_12 
REMARK    7  A    between atoms: C_12  and  C_14 
REMARK    8  A    between atoms: C_16  and  N_20 
REMARK    9  A    between atoms: C_24  and  N_25 
REMARK       I    between atoms: N_25  and  C_26 
REMARK   10  A    between atoms: C_26  and  C_28 
REMARK   11  A    between atoms: C_30  and  N_34 
REMARK   12  A    between atoms: C_41  and  O_42 
ROOT
HETATM    1  C   UNK N   1      25.645  17.597   5.049  0.00  0.00     0.102 A 
HETATM    2  C   UNK N   1      26.093  16.433   5.708  0.00  0.00     0.071 A 
HETATM    3  C   UNK N   1      27.389  16.017   5.492  0.00  0.00     0.062 A 
HETATM    4  C   UNK N   1      28.261  16.706   4.635  0.00  0.00     0.037 A 
HETATM    5  C   UNK N   1      27.813  17.831   3.958  0.00  0.00     0.032 A 
HETATM    6  C   UNK N   1      26.509  18.270   4.160  0.00  0.00     0.042 A 
ENDROOT
BRANCH   1   7
HETATM    7  O   UNK N   1      24.392  18.056   5.266  0.00  0.00    -0.308 OA
BRANCH   7   8
HETATM    8  C   UNK N   1      23.409  17.969   4.342  0.00  0.00     0.077 A 
HETATM    9  C   UNK N   1      22.955  19.136   3.743  0.00  0.00     0.056 A 
HETATM   10  C   UNK N   1      21.806  19.152   2.939  0.00  0.00     0.057 A 
HETATM   11  C   UNK N   1      21.112  17.905   2.714  0.00  0.00     0.054 A 
HETATM   12  C   UNK N   1      21.624  16.742   3.298  0.00  0.00     0.022 A 
HETATM   13  C   UNK N   1      22.736  16.774   4.104  0.00  0.00     0.038 A 
BRANCH  10  14
HETATM   14  C   UNK N   1      21.395  20.504   2.461  0.00  0.00     0.177 C 
HETATM   15  O   UNK N   1      21.630  20.893   1.334  0.00  0.00    -0.646 OA
BRANCH  14  16
HETATM   16  O   UNK N   1      20.682  21.305   3.281  0.00  0.00    -0.773 OA
HETATM   17  H   UNK N   1      20.912  22.188   3.495  0.00  0.00     0.167 HD
ENDBRANCH  14  16
ENDBRANCH  10  14
BRANCH  11  18
HETATM   18  C   UNK N   1      19.873  17.687   1.918  0.00  0.00     0.177 C 
HETATM   19  O   UNK N   1      19.840  16.949   0.954  0.00  0.00    -0.646 OA
BRANCH  18  20
HETATM   20  O   UNK N   1      18.737  18.318   2.285  0.00  0.00    -0.773 OA
HETATM   21  H   UNK N   1      18.101  18.648   1.683  0.00  0.00     0.167 HD
ENDBRANCH  18  20
ENDBRANCH  11  18
ENDBRANCH   7   8
ENDBRANCH   1   7
BRANCH   2  22
HETATM   22  N   UNK N   1      25.332  15.722   6.684  0.00  0.00    -0.320 N 
HETATM   23  C   UNK N   1      24.520  14.652   6.486  0.00  0.00     0.256 C 
HETATM   24  O   UNK N   1      24.532  14.041   5.429  0.00  0.00    -0.267 OA
HETATM   25  H   UNK N   1      25.404  16.046   7.612  0.00  0.00     0.169 HD
BRANCH  23  26
HETATM   26  C   UNK N   1      23.606  14.220   7.561  0.00  0.00     0.034 A 
HETATM   27  C   UNK N   1      24.122  13.556   8.679  0.00  0.00     0.053 A 
HETATM   28  C   UNK N   1      23.272  13.078   9.686  0.00  0.00     0.103 A 
HETATM   29  C   UNK N   1      21.889  13.282   9.569  0.00  0.00     0.036 A 
HETATM   30  C   UNK N   1      21.366  13.950   8.456  0.00  0.00     0.003 A 
HETATM   31  C   UNK N   1      22.221  14.407   7.449  0.00  0.00     0.017 A 
BRANCH  28  32
HETATM   32  N   UNK N   1      23.806  12.375  10.799  0.00  0.00    -0.116 N 
HETATM   33  O   UNK N   1      23.029  12.042  11.807  0.00  0.00    -0.532 OA
HETATM   34  O   UNK N   1      24.958  12.060  10.816  0.00  0.00    -0.532 OA
ENDBRANCH  28  32
ENDBRANCH  23  26
ENDBRANCH   2  22
BRANCH   4  35
HETATM   35  N   UNK N   1      29.651  16.437   4.696  0.00  0.00    -0.323 N 
HETATM   36  C   UNK N   1      30.366  16.925   5.746  0.00  0.00     0.256 C 
HETATM   37  O   UNK N   1      29.815  17.626   6.589  0.00  0.00    -0.267 OA
HETATM   38  H   UNK N   1      30.090  15.909   3.992  0.00  0.00     0.169 HD
BRANCH  36  39
HETATM   39  C   UNK N   1      31.799  16.720   5.886  0.00  0.00     0.034 A 
HETATM   40  C   UNK N   1      32.398  17.364   6.960  0.00  0.00     0.053 A 
HETATM   41  C   UNK N   1      33.755  17.285   7.193  0.00  0.00     0.103 A 
HETATM   42  C   UNK N   1      34.552  16.537   6.312  0.00  0.00     0.036 A 
HETATM   43  C   UNK N   1      33.961  15.875   5.220  0.00  0.00     0.003 A 
HETATM   44  C   UNK N   1      32.577  15.963   5.004  0.00  0.00     0.017 A 
BRANCH  41  45
HETATM   45  N   UNK N   1      34.300  17.966   8.315  0.00  0.00    -0.116 N 
HETATM   46  O   UNK N   1      34.238  17.428   9.512  0.00  0.00    -0.532 OA
HETATM   47  O   UNK N   1      34.816  19.035   8.176  0.00  0.00    -0.532 OA
ENDBRANCH  41  45
ENDBRANCH  36  39
ENDBRANCH   4  35
TORSDOF 12
ENDMDL
MODEL 5
REMARK VINA RESULT:      -9.0      1.874      2.878
REMARK  12 active torsions:
REMARK  status: ('A' for Active; 'I' for Inactive)
REMARK    1  A    between atoms: O_1  and  C_2 
REMARK    2  A    between atoms: C_2  and  C_4 
REMARK    3  A    between atoms: C_5  and  C_41 
REMARK    4  A    between atoms: C_7  and  O_8 
REMARK    5  A    between atoms: O_8  and  C_9 
REMARK    6  A    between atoms: C_10  and  N_11 
REMARK       I    between atoms: N_11  and  C_12 
REMARK    7  A    between atoms: C_12  and  C_14 
REMARK    8  A    between atoms: C_16  and  N_20 
REMARK    9  A    between atoms: C_24  and  N_25 
REMARK       I    between atoms: N_25  and  C_26 
REMARK   10  A    between atoms: C_26  and  C_28 
REMARK   11  A    between atoms: C_30  and  N_34 
REMARK   12  A    between atoms: C_41  and  O_42 
ROOT
HETATM    1  C   UNK N   1      24.892  15.388   4.380  0.00  0.00     0.102 A 
HETATM    2  C   UNK N   1      25.247  15.092   5.713  0.00  0.00     0.071 A 
HETATM    3  C   UNK N   1      26.585  15.068   6.044  0.00  0.00     0.062 A 
HETATM    4  C   UNK N   1      27.592  15.315   5.098  0.00  0.00     0.037 A 
HETATM    5  C   UNK N   1      27.248  15.573   3.779  0.00  0.00     0.032 A 
HETATM    6  C   UNK N   1      25.905  15.602   3.421  0.00  0.00     0.042 A 
ENDROOT
BRANCH   1   7
HETATM    7  O   UNK N   1      23.589  15.457   4.027  0.00  0.00    -0.308 OA
BRANCH   7   8
HETATM    8  C   UNK N   1      22.907  16.622   3.962  0.00  0.00     0.077 A 
HETATM    9  C   UNK N   1      21.745  16.671   3.204  0.00  0.00     0.056 A 
HETATM   10  C   UNK N   1      21.103  17.884   2.919  0.00  0.00     0.057 A 
HETATM   11  C   UNK N   1      21.662  19.099   3.465  0.00  0.00     0.054 A 
HETATM   12  C   UNK N   1      22.808  19.006   4.260  0.00  0.00     0.022 A 
HETATM   13  C   UNK N   1      23.426  17.800   4.492  0.00  0.00     0.038 A 
BRANCH  10  14
HETATM   14  C   UNK N   1      19.930  17.772   2.004  0.00  0.00     0.177 C 
HETATM   15  O   UNK N   1      19.973  17.134   0.970  0.00  0.00    -0.646 OA
BRANCH  14  16
HETATM   16  O   UNK N   1      18.759  18.341   2.359  0.00  0.00    -0.773 OA
HETATM   17  H   UNK N   1      18.677  19.069   2.943  0.00  0.00     0.167 HD
ENDBRANCH  14  16
ENDBRANCH  10  14
BRANCH  11  18
HETATM   18  C   UNK N   1      21.165  20.490   3.281  0.00  0.00     0.177 C 
HETATM   19  O   UNK N   1      20.076  20.850   3.683  0.00  0.00    -0.646 OA
BRANCH  18  20
HETATM   20  O   UNK N   1      21.953  21.392   2.660  0.00  0.00    -0.773 OA
HETATM   21  H   UNK N   1      22.002  21.496   1.730  0.00  0.00     0.167 HD
ENDBRANCH  18  20
ENDBRANCH  11  18
ENDBRANCH   7   8
ENDBRANCH   1   7
BRANCH   2  22
HETATM   22  N   UNK N   1      24.307  14.936   6.776  0.00  0.00    -0.320 N 
HETATM   23  C   UNK N   1      23.570  13.836   7.079  0.00  0.00     0.256 C 
HETATM   24  O   UNK N   1      23.814  12.756   6.565  0.00  0.00    -0.267 OA
HETATM   25  H   UNK N   1      24.178  15.719   7.359  0.00  0.00     0.169 HD
BRANCH  23  26
HETATM   26  C   UNK N   1      22.456  13.946   8.040  0.00  0.00     0.034 A 
HETATM   27  C   UNK N   1      22.468  13.164   9.200  0.00  0.00     0.053 A 
HETATM   28  C   UNK N   1      21.393  13.200  10.100  0.00  0.00     0.103 A 
HETATM   29  C   UNK N   1      20.303  14.041   9.832  0.00  0.00     0.036 A 
HETATM   30  C   UNK N   1      20.288  14.829   8.677  0.00  0.00     0.003 A 
HETATM   31  C   UNK N   1      21.355  14.773   7.777  0.00  0.00     0.017 A 
BRANCH  28  32
HETATM   32  N   UNK N   1      21.402  12.375  11.257  0.00  0.00    -0.116 N 
HETATM   33  O   UNK N   1      22.541  11.984  11.785  0.00  0.00    -0.532 OA
HETATM   34  O   UNK N   1      20.374  12.050  11.772  0.00  0.00    -0.532 OA
ENDBRANCH  28  32
ENDBRANCH  23  26
ENDBRANCH   2  22
BRANCH   4  35
HETATM   35  N   UNK N   1      28.907  15.598   5.543  0.00  0.00    -0.323 N 
HETATM   36  C   UNK N   1      29.103  16.658   6.375  0.00  0.00     0.256 C 
HETATM   37  O   UNK N   1      28.158  17.377   6.683  0.00  0.00    -0.267 OA
HETATM   38  H   UNK N   1      29.664  15.039   5.256  0.00  0.00     0.169 HD
BRANCH  36  39
HETATM   39  C   UNK N   1      30.417  17.039   6.868  0.00  0.00     0.034 A 
HETATM   40  C   UNK N   1      31.490  16.681   6.063  0.00  0.00     0.053 A 
HETATM   41  C   UNK N   1      32.794  16.948   6.424  0.00  0.00     0.103 A 
HETATM   42  C   UNK N   1      33.040  17.594   7.646  0.00  0.00     0.036 A 
HETATM   43  C   UNK N   1      31.965  17.968   8.472  0.00  0.00     0.003 A 
HETATM   44  C   UNK N   1      30.644  17.691   8.084  0.00  0.00     0.017 A 
BRANCH  41  45
HETATM   45  N   UNK N   1      33.843  16.558   5.549  0.00  0.00    -0.116 N 
HETATM   46  O   UNK N   1      33.605  16.371   4.269  0.00  0.00    -0.532 OA
HETATM   47  O   UNK N   1      34.949  16.395   5.971  0.00  0.00    -0.532 OA
ENDBRANCH  41  45
ENDBRANCH  36  39
ENDBRANCH   4  35
TORSDOF 12
ENDMDL
MODEL 6
REMARK VINA RESULT:      -9.0      1.983      2.778
REMARK  12 active torsions:
REMARK  status: ('A' for Active; 'I' for Inactive)
REMARK    1  A    between atoms: O_1  and  C_2 
REMARK    2  A    between atoms: C_2  and  C_4 
REMARK    3  A    between atoms: C_5  and  C_41 
REMARK    4  A    between atoms: C_7  and  O_8 
REMARK    5  A    between atoms: O_8  and  C_9 
REMARK    6  A    between atoms: C_10  and  N_11 
REMARK       I    between atoms: N_11  and  C_12 
REMARK    7  A    between atoms: C_12  and  C_14 
REMARK    8  A    between atoms: C_16  and  N_20 
REMARK    9  A    between atoms: C_24  and  N_25 
REMARK       I    between atoms: N_25  and  C_26 
REMARK   10  A    between atoms: C_26  and  C_28 
REMARK   11  A    between atoms: C_30  and  N_34 
REMARK   12  A    between atoms: C_41  and  O_42 
ROOT
HETATM    1  C   UNK N   1      24.636  15.640   4.531  0.00  0.00     0.102 A 
HETATM    2  C   UNK N   1      25.280  15.342   5.751  0.00  0.00     0.071 A 
HETATM    3  C   UNK N   1      26.632  15.588   5.853  0.00  0.00     0.062 A 
HETATM    4  C   UNK N   1      27.379  16.110   4.785  0.00  0.00     0.037 A 
HETATM    5  C   UNK N   1      26.756  16.371   3.574  0.00  0.00     0.032 A 
HETATM    6  C   UNK N   1      25.393  16.131   3.446  0.00  0.00     0.042 A 
ENDROOT
BRANCH   1   7
HETATM    7  O   UNK N   1      23.304  15.447   4.406  0.00  0.00    -0.308 OA
BRANCH   7   8
HETATM    8  C   UNK N   1      22.447  16.438   4.075  0.00  0.00     0.077 A 
HETATM    9  C   UNK N   1      21.634  16.270   2.963  0.00  0.00     0.056 A 
HETATM   10  C   UNK N   1      20.878  17.328   2.437  0.00  0.00     0.057 A 
HETATM   11  C   UNK N   1      20.934  18.607   3.106  0.00  0.00     0.054 A 
HETATM   12  C   UNK N   1      21.729  18.726   4.250  0.00  0.00     0.022 A 
HETATM   13  C   UNK N   1      22.479  17.673   4.716  0.00  0.00     0.038 A 
BRANCH  10  14
HETATM   14  C   UNK N   1      20.145  17.007   1.177  0.00  0.00     0.177 C 
HETATM   15  O   UNK N   1      20.434  17.515   0.112  0.00  0.00    -0.646 OA
BRANCH  14  16
HETATM   16  O   UNK N   1      19.167  16.077   1.201  0.00  0.00    -0.773 OA
HETATM   17  H   UNK N   1      18.296  16.229   1.511  0.00  0.00     0.167 HD
ENDBRANCH  14  16
ENDBRANCH  10  14
BRANCH  11  18
HETATM   18  C   UNK N   1      20.236  19.863   2.720  0.00  0.00     0.177 C 
HETATM   19  O   UNK N   1      19.802  20.645   3.542  0.00  0.00    -0.646 OA
BRANCH  18  20
HETATM   20  O   UNK N   1      20.091  20.158   1.410  0.00  0.00    -0.773 OA
HETATM   21  H   UNK N   1      19.629  19.620   0.798  0.00  0.00     0.167 HD
ENDBRANCH  18  20
ENDBRANCH  11  18
ENDBRANCH   7   8
ENDBRANCH   1   7
BRANCH   2  22
HETATM   22  N   UNK N   1      24.601  14.917   6.932  0.00  0.00    -0.320 N 
HETATM   23  C   UNK N   1      24.299  13.647   7.305  0.00  0.00     0.256 C 
HETATM   24  O   UNK N   1      24.792  12.689   6.730  0.00  0.00    -0.267 OA
HETATM   25  H   UNK N   1      24.318  15.630   7.551  0.00  0.00     0.169 HD
BRANCH  23  26
HETATM   26  C   UNK N   1      23.358  13.417   8.418  0.00  0.00     0.034 A 
HETATM   27  C   UNK N   1      23.836  12.901   9.628  0.00  0.00     0.053 A 
HETATM   28  C   UNK N   1      22.957  12.613  10.681  0.00  0.00     0.103 A 
HETATM   29  C   UNK N   1      21.586  12.859  10.517  0.00  0.00     0.036 A 
HETATM   30  C   UNK N   1      21.103  13.380   9.312  0.00  0.00     0.003 A 
HETATM   31  C   UNK N   1      21.984  13.646   8.261  0.00  0.00     0.017 A 
BRANCH  28  32
HETATM   32  N   UNK N   1      23.450  12.056  11.892  0.00  0.00    -0.116 N 
HETATM   33  O   UNK N   1      24.741  11.869  12.058  0.00  0.00    -0.532 OA
HETATM   34  O   UNK N   1      22.697  11.777  12.777  0.00  0.00    -0.532 OA
ENDBRANCH  28  32
ENDBRANCH  23  26
ENDBRANCH   2  22
BRANCH   4  35
HETATM   35  N   UNK N   1      28.668  16.642   5.034  0.00  0.00    -0.323 N 
HETATM   36  C   UNK N   1      29.757  15.869   4.772  0.00  0.00     0.256 C 
HETATM   37  O   UNK N   1      29.610  14.717   4.377  0.00  0.00    -0.267 OA
HETATM   38  H   UNK N   1      28.774  17.553   5.391  0.00  0.00     0.169 HD
BRANCH  36  39
HETATM   39  C   UNK N   1      31.119  16.320   5.013  0.00  0.00     0.034 A 
HETATM   40  C   UNK N   1      31.347  16.913   6.248  0.00  0.00     0.053 A 
HETATM   41  C   UNK N   1      32.582  17.417   6.597  0.00  0.00     0.103 A 
HETATM   42  C   UNK N   1      33.635  17.333   5.672  0.00  0.00     0.036 A 
HETATM   43  C   UNK N   1      33.423  16.732   4.418  0.00  0.00     0.003 A 
HETATM   44  C   UNK N   1      32.159  16.220   4.084  0.00  0.00     0.017 A 
BRANCH  41  45
HETATM   45  N   UNK N   1      32.746  18.006   7.880  0.00  0.00    -0.116 N 
HETATM   46  O   UNK N   1      31.721  18.117   8.695  0.00  0.00    -0.532 OA
HETATM   47  O   UNK N   1      33.818  18.407   8.224  0.00  0.00    -0.532 OA
ENDBRANCH  41  45
ENDBRANCH  36  39
ENDBRANCH   4  35
TORSDOF 12
ENDMDL
MODEL 7
REMARK VINA RESULT:      -8.7      1.630      2.097
REMARK  12 active torsions:
REMARK  status: ('A' for Active; 'I' for Inactive)
REMARK    1  A    between atoms: O_1  and  C_2 
REMARK    2  A    between atoms: C_2  and  C_4 
REMARK    3  A    between atoms: C_5  and  C_41 
REMARK    4  A    between atoms: C_7  and  O_8 
REMARK    5  A    between atoms: O_8  and  C_9 
REMARK    6  A    between atoms: C_10  and  N_11 
REMARK       I    between atoms: N_11  and  C_12 
REMARK    7  A    between atoms: C_12  and  C_14 
REMARK    8  A    between atoms: C_16  and  N_20 
REMARK    9  A    between atoms: C_24  and  N_25 
REMARK       I    between atoms: N_25  and  C_26 
REMARK   10  A    between atoms: C_26  and  C_28 
REMARK   11  A    between atoms: C_30  and  N_34 
REMARK   12  A    between atoms: C_41  and  O_42 
ROOT
HETATM    1  C   UNK N   1      25.206  16.336   5.454  0.00  0.00     0.102 A 
HETATM    2  C   UNK N   1      25.876  15.534   6.401  0.00  0.00     0.071 A 
HETATM    3  C   UNK N   1      27.251  15.462   6.342  0.00  0.00     0.062 A 
HETATM    4  C   UNK N   1      27.993  16.150   5.368  0.00  0.00     0.037 A 
HETATM    5  C   UNK N   1      27.335  16.912   4.414  0.00  0.00     0.032 A 
HETATM    6  C   UNK N   1      25.948  16.999   4.453  0.00  0.00     0.042 A 
ENDROOT
BRANCH   1   7
HETATM    7  O   UNK N   1      23.860  16.460   5.504  0.00  0.00    -0.308 OA
BRANCH   7   8
HETATM    8  C   UNK N   1      23.090  16.547   4.397  0.00  0.00     0.077 A 
HETATM    9  C   UNK N   1      22.320  17.686   4.211  0.00  0.00     0.056 A 
HETATM   10  C   UNK N   1      21.344  17.759   3.206  0.00  0.00     0.057 A 
HETATM   11  C   UNK N   1      21.177  16.622   2.331  0.00  0.00     0.054 A 
HETATM   12  C   UNK N   1      22.002  15.509   2.521  0.00  0.00     0.022 A 
HETATM   13  C   UNK N   1      22.925  15.464   3.537  0.00  0.00     0.038 A 
BRANCH  10  14
HETATM   14  C   UNK N   1      20.533  19.011   3.211  0.00  0.00     0.177 C 
HETATM   15  O   UNK N   1      20.863  19.995   3.843  0.00  0.00    -0.646 OA
BRANCH  14  16
HETATM   16  O   UNK N   1      19.426  19.083   2.443  0.00  0.00    -0.773 OA
HETATM   17  H   UNK N   1      18.803  18.391   2.340  0.00  0.00     0.167 HD
ENDBRANCH  14  16
ENDBRANCH  10  14
BRANCH  11  18
HETATM   18  C   UNK N   1      20.202  16.470   1.217  0.00  0.00     0.177 C 
HETATM   19  O   UNK N   1      20.274  17.123   0.195  0.00  0.00    -0.646 OA
BRANCH  18  20
HETATM   20  O   UNK N   1      19.207  15.565   1.335  0.00  0.00    -0.773 OA
HETATM   21  H   UNK N   1      18.397  15.609   0.865  0.00  0.00     0.167 HD
ENDBRANCH  18  20
ENDBRANCH  11  18
ENDBRANCH   7   8
ENDBRANCH   1   7
BRANCH   2  22
HETATM   22  N   UNK N   1      25.234  14.885   7.498  0.00  0.00    -0.320 N 
HETATM   23  C   UNK N   1      24.871  13.580   7.596  0.00  0.00     0.256 C 
HETATM   24  O   UNK N   1      25.272  12.756   6.790  0.00  0.00    -0.267 OA
HETATM   25  H   UNK N   1      25.030  15.452   8.278  0.00  0.00     0.169 HD
BRANCH  23  26
HETATM   26  C   UNK N   1      23.978  13.150   8.688  0.00  0.00     0.034 A 
HETATM   27  C   UNK N   1      22.623  13.497   8.647  0.00  0.00     0.053 A 
HETATM   28  C   UNK N   1      21.763  13.157   9.701  0.00  0.00     0.103 A 
HETATM   29  C   UNK N   1      22.273  12.452  10.801  0.00  0.00     0.036 A 
HETATM   30  C   UNK N   1      23.626  12.098  10.846  0.00  0.00     0.003 A 
HETATM   31  C   UNK N   1      24.479  12.457   9.799  0.00  0.00     0.017 A 
BRANCH  28  32
HETATM   32  N   UNK N   1      20.397  13.545   9.663  0.00  0.00    -0.116 N 
HETATM   33  O   UNK N   1      19.558  13.108  10.577  0.00  0.00    -0.532 OA
HETATM   34  O   UNK N   1      20.006  14.290   8.815  0.00  0.00    -0.532 OA
ENDBRANCH  28  32
ENDBRANCH  23  26
ENDBRANCH   2  22
BRANCH   4  35
HETATM   35  N   UNK N   1      29.390  16.307   5.543  0.00  0.00    -0.323 N 
HETATM   36  C   UNK N   1      29.842  16.960   6.648  0.00  0.00     0.256 C 
HETATM   37  O   UNK N   1      29.042  17.444   7.443  0.00  0.00    -0.267 OA
HETATM   38  H   UNK N   1      30.021  15.951   4.877  0.00  0.00     0.169 HD
BRANCH  36  39
HETATM   39  C   UNK N   1      31.255  17.189   6.905  0.00  0.00     0.034 A 
HETATM   40  C   UNK N   1      32.136  16.538   6.051  0.00  0.00     0.053 A 
HETATM   41  C   UNK N   1      33.503  16.637   6.200  0.00  0.00     0.103 A 
HETATM   42  C   UNK N   1      34.016  17.413   7.252  0.00  0.00     0.036 A 
HETATM   43  C   UNK N   1      33.138  18.083   8.124  0.00  0.00     0.003 A 
HETATM   44  C   UNK N   1      31.750  17.973   7.952  0.00  0.00     0.017 A 
BRANCH  41  45
HETATM   45  N   UNK N   1      34.345  15.948   5.286  0.00  0.00    -0.116 N 
HETATM   46  O   UNK N   1      35.552  15.574   5.648  0.00  0.00    -0.532 OA
HETATM   47  O   UNK N   1      33.960  15.705   4.181  0.00  0.00    -0.532 OA
ENDBRANCH  41  45
ENDBRANCH  36  39
ENDBRANCH   4  35
TORSDOF 12
ENDMDL
MODEL 8
REMARK VINA RESULT:      -8.6      6.577     11.101
REMARK  12 active torsions:
REMARK  status: ('A' for Active; 'I' for Inactive)
REMARK    1  A    between atoms: O_1  and  C_2 
REMARK    2  A    between atoms: C_2  and  C_4 
REMARK    3  A    between atoms: C_5  and  C_41 
REMARK    4  A    between atoms: C_7  and  O_8 
REMARK    5  A    between atoms: O_8  and  C_9 
REMARK    6  A    between atoms: C_10  and  N_11 
REMARK       I    between atoms: N_11  and  C_12 
REMARK    7  A    between atoms: C_12  and  C_14 
REMARK    8  A    between atoms: C_16  and  N_20 
REMARK    9  A    between atoms: C_24  and  N_25 
REMARK       I    between atoms: N_25  and  C_26 
REMARK   10  A    between atoms: C_26  and  C_28 
REMARK   11  A    between atoms: C_30  and  N_34 
REMARK   12  A    between atoms: C_41  and  O_42 
ROOT
HETATM    1  C   UNK N   1      35.314  15.278   9.238  0.00  0.00     0.102 A 
HETATM    2  C   UNK N   1      34.137  15.259  10.016  0.00  0.00     0.071 A 
HETATM    3  C   UNK N   1      34.179  14.649  11.252  0.00  0.00     0.062 A 
HETATM    4  C   UNK N   1      35.346  14.046  11.746  0.00  0.00     0.037 A 
HETATM    5  C   UNK N   1      36.496  14.033  10.970  0.00  0.00     0.032 A 
HETATM    6  C   UNK N   1      36.477  14.641   9.720  0.00  0.00     0.042 A 
ENDROOT
BRANCH   1   7
HETATM    7  O   UNK N   1      35.319  15.899   8.037  0.00  0.00    -0.308 OA
BRANCH   7   8
HETATM    8  C   UNK N   1      34.948  15.284   6.892  0.00  0.00     0.077 A 
HETATM    9  C   UNK N   1      34.434  16.056   5.860  0.00  0.00     0.056 A 
HETATM   10  C   UNK N   1      33.837  15.474   4.732  0.00  0.00     0.057 A 
HETATM   11  C   UNK N   1      33.796  14.033   4.647  0.00  0.00     0.054 A 
HETATM   12  C   UNK N   1      34.363  13.288   5.686  0.00  0.00     0.022 A 
HETATM   13  C   UNK N   1      34.913  13.896   6.789  0.00  0.00     0.038 A 
BRANCH  10  14
HETATM   14  C   UNK N   1      33.240  16.445   3.769  0.00  0.00     0.177 C 
HETATM   15  O   UNK N   1      33.374  16.330   2.567  0.00  0.00    -0.646 OA
BRANCH  14  16
HETATM   16  O   UNK N   1      32.473  17.452   4.237  0.00  0.00    -0.773 OA
HETATM   17  H   UNK N   1      32.592  17.870   5.067  0.00  0.00     0.167 HD
ENDBRANCH  14  16
ENDBRANCH  10  14
BRANCH  11  18
HETATM   18  C   UNK N   1      33.202  13.205   3.563  0.00  0.00     0.177 C 
HETATM   19  O   UNK N   1      32.374  12.343   3.782  0.00  0.00    -0.646 OA
BRANCH  18  20
HETATM   20  O   UNK N   1      33.582  13.424   2.286  0.00  0.00    -0.773 OA
HETATM   21  H   UNK N   1      33.245  14.114   1.749  0.00  0.00     0.167 HD
ENDBRANCH  18  20
ENDBRANCH  11  18
ENDBRANCH   7   8
ENDBRANCH   1   7
BRANCH   2  22
HETATM   22  N   UNK N   1      32.932  15.936   9.662  0.00  0.00    -0.320 N 
HETATM   23  C   UNK N   1      31.964  15.519   8.805  0.00  0.00     0.256 C 
HETATM   24  O   UNK N   1      31.940  14.368   8.398  0.00  0.00    -0.267 OA
HETATM   25  H   UNK N   1      32.783  16.811  10.091  0.00  0.00     0.169 HD
BRANCH  23  26
HETATM   26  C   UNK N   1      30.928  16.468   8.356  0.00  0.00     0.034 A 
HETATM   27  C   UNK N   1      30.573  16.512   7.003  0.00  0.00     0.053 A 
HETATM   28  C   UNK N   1      29.639  17.446   6.537  0.00  0.00     0.103 A 
HETATM   29  C   UNK N   1      29.047  18.336   7.445  0.00  0.00     0.036 A 
HETATM   30  C   UNK N   1      29.393  18.294   8.800  0.00  0.00     0.003 A 
HETATM   31  C   UNK N   1      30.339  17.371   9.253  0.00  0.00     0.017 A 
BRANCH  28  32
HETATM   32  N   UNK N   1      29.314  17.504   5.154  0.00  0.00    -0.116 N 
HETATM   33  O   UNK N   1      28.711  18.563   4.659  0.00  0.00    -0.532 OA
HETATM   34  O   UNK N   1      29.607  16.602   4.429  0.00  0.00    -0.532 OA
ENDBRANCH  28  32
ENDBRANCH  23  26
ENDBRANCH   2  22
BRANCH   4  35
HETATM   35  N   UNK N   1      35.433  13.729  13.125  0.00  0.00    -0.323 N 
HETATM   36  C   UNK N   1      35.004  12.507  13.544  0.00  0.00     0.256 C 
HETATM   37  O   UNK N   1      34.505  11.725  12.741  0.00  0.00    -0.267 OA
HETATM   38  H   UNK N   1      35.796  14.381  13.766  0.00  0.00     0.169 HD
BRANCH  36  39
HETATM   39  C   UNK N   1      35.034  12.098  14.939  0.00  0.00     0.034 A 
HETATM   40  C   UNK N   1      35.203  13.121  15.863  0.00  0.00     0.053 A 
HETATM   41  C   UNK N   1      35.285  12.873  17.217  0.00  0.00     0.103 A 
HETATM   42  C   UNK N   1      35.203  11.547  17.671  0.00  0.00     0.036 A 
HETATM   43  C   UNK N   1      35.028  10.499  16.749  0.00  0.00     0.003 A 
HETATM   44  C   UNK N   1      34.941  10.772  15.374  0.00  0.00     0.017 A 
BRANCH  41  45
HETATM   45  N   UNK N   1      35.452  13.969  18.106  0.00  0.00    -0.116 N 
HETATM   46  O   UNK N   1      34.984  13.907  19.333  0.00  0.00    -0.532 OA
HETATM   47  O   UNK N   1      36.019  14.956  17.743  0.00  0.00    -0.532 OA
ENDBRANCH  41  45
ENDBRANCH  36  39
ENDBRANCH   4  35
TORSDOF 12
ENDMDL
MODEL 9
REMARK VINA RESULT:      -8.5      6.164     10.444
REMARK  12 active torsions:
REMARK  status: ('A' for Active; 'I' for Inactive)
REMARK    1  A    between atoms: O_1  and  C_2 
REMARK    2  A    between atoms: C_2  and  C_4 
REMARK    3  A    between atoms: C_5  and  C_41 
REMARK    4  A    between atoms: C_7  and  O_8 
REMARK    5  A    between atoms: O_8  and  C_9 
REMARK    6  A    between atoms: C_10  and  N_11 
REMARK       I    between atoms: N_11  and  C_12 
REMARK    7  A    between atoms: C_12  and  C_14 
REMARK    8  A    between atoms: C_16  and  N_20 
REMARK    9  A    between atoms: C_24  and  N_25 
REMARK       I    between atoms: N_25  and  C_26 
REMARK   10  A    between atoms: C_26  and  C_28 
REMARK   11  A    between atoms: C_30  and  N_34 
REMARK   12  A    between atoms: C_41  and  O_42 
ROOT
HETATM    1  C   UNK N   1      34.552  16.656   8.712  0.00  0.00     0.102 A 
HETATM    2  C   UNK N   1      34.946  15.354   8.335  0.00  0.00     0.071 A 
HETATM    3  C   UNK N   1      35.722  14.626   9.211  0.00  0.00     0.062 A 
HETATM    4  C   UNK N   1      36.135  15.144  10.449  0.00  0.00     0.037 A 
HETATM    5  C   UNK N   1      35.779  16.435  10.808  0.00  0.00     0.032 A 
HETATM    6  C   UNK N   1      34.997  17.189   9.941  0.00  0.00     0.042 A 
ENDROOT
BRANCH   1   7
HETATM    7  O   UNK N   1      33.761  17.386   7.894  0.00  0.00    -0.308 OA
BRANCH   7   8
HETATM    8  C   UNK N   1      32.411  17.347   7.954  0.00  0.00     0.077 A 
HETATM    9  C   UNK N   1      31.716  16.763   6.904  0.00  0.00     0.056 A 
HETATM   10  C   UNK N   1      30.322  16.871   6.793  0.00  0.00     0.057 A 
HETATM   11  C   UNK N   1      29.607  17.582   7.827  0.00  0.00     0.054 A 
HETATM   12  C   UNK N   1      30.336  18.118   8.893  0.00  0.00     0.022 A 
HETATM   13  C   UNK N   1      31.706  18.017   8.949  0.00  0.00     0.038 A 
BRANCH  10  14
HETATM   14  C   UNK N   1      29.746  16.281   5.550  0.00  0.00     0.177 C 
HETATM   15  O   UNK N   1      30.073  16.656   4.441  0.00  0.00    -0.646 OA
BRANCH  14  16
HETATM   16  O   UNK N   1      28.877  15.252   5.649  0.00  0.00    -0.773 OA
HETATM   17  H   UNK N   1      28.968  14.535   6.244  0.00  0.00     0.167 HD
ENDBRANCH  14  16
ENDBRANCH  10  14
BRANCH  11  18
HETATM   18  C   UNK N   1      28.143  17.835   7.907  0.00  0.00     0.177 C 
HETATM   19  O   UNK N   1      27.411  17.732   6.943  0.00  0.00    -0.646 OA
BRANCH  18  20
HETATM   20  O   UNK N   1      27.600  18.178   9.095  0.00  0.00    -0.773 OA
HETATM   21  H   UNK N   1      27.651  19.036   9.468  0.00  0.00     0.167 HD
ENDBRANCH  18  20
ENDBRANCH  11  18
ENDBRANCH   7   8
ENDBRANCH   1   7
BRANCH   2  22
HETATM   22  N   UNK N   1      34.492  14.691   7.156  0.00  0.00    -0.320 N 
HETATM   23  C   UNK N   1      34.995  14.793   5.898  0.00  0.00     0.256 C 
HETATM   24  O   UNK N   1      36.070  15.334   5.694  0.00  0.00    -0.267 OA
HETATM   25  H   UNK N   1      33.723  14.085   7.268  0.00  0.00     0.169 HD
BRANCH  23  26
HETATM   26  C   UNK N   1      34.231  14.247   4.760  0.00  0.00     0.034 A 
HETATM   27  C   UNK N   1      32.858  14.017   4.898  0.00  0.00     0.053 A 
HETATM   28  C   UNK N   1      32.119  13.439   3.857  0.00  0.00     0.103 A 
HETATM   29  C   UNK N   1      32.770  13.102   2.661  0.00  0.00     0.036 A 
HETATM   30  C   UNK N   1      34.141  13.333   2.514  0.00  0.00     0.003 A 
HETATM   31  C   UNK N   1      34.873  13.893   3.565  0.00  0.00     0.017 A 
BRANCH  28  32
HETATM   32  N   UNK N   1      30.732  13.179   4.022  0.00  0.00    -0.116 N 
HETATM   33  O   UNK N   1      29.869  13.585   3.117  0.00  0.00    -0.532 OA
HETATM   34  O   UNK N   1      30.343  12.569   4.973  0.00  0.00    -0.532 OA
ENDBRANCH  28  32
ENDBRANCH  23  26
ENDBRANCH   2  22
BRANCH   4  35
HETATM   35  N   UNK N   1      36.643  14.262  11.435  0.00  0.00    -0.323 N 
HETATM   36  C   UNK N   1      35.775  13.699  12.319  0.00  0.00     0.256 C 
HETATM   37  O   UNK N   1      34.586  13.999  12.285  0.00  0.00    -0.267 OA
HETATM   38  H   UNK N   1      37.606  14.060  11.479  0.00  0.00     0.169 HD
BRANCH  36  39
HETATM   39  C   UNK N   1      36.202  12.799  13.378  0.00  0.00     0.034 A 
HETATM   40  C   UNK N   1      35.591  12.984  14.611  0.00  0.00     0.053 A 
HETATM   41  C   UNK N   1      35.926  12.224  15.712  0.00  0.00     0.103 A 
HETATM   42  C   UNK N   1      36.919  11.241  15.582  0.00  0.00     0.036 A 
HETATM   43  C   UNK N   1      37.547  11.037  14.339  0.00  0.00     0.003 A 
HETATM   44  C   UNK N   1      37.188  11.818  13.228  0.00  0.00     0.017 A 
BRANCH  41  45
HETATM   45  N   UNK N   1      35.255  12.465  16.941  0.00  0.00    -0.116 N 
HETATM   46  O   UNK N   1      34.799  13.664  17.225  0.00  0.00    -0.532 OA
HETATM   47  O   UNK N   1      35.103  11.577  17.726  0.00  0.00    -0.532 OA
ENDBRANCH  41  45
ENDBRANCH  36  39
ENDBRANCH   4  35
TORSDOF 12
ENDMDL
