REMARK  1 active torsions:
REMARK  status: ('A' for Active; 'I' for Inactive)
REMARK    1  A    between atoms: N_1  and  C_2 
ROOT
HETATM    1  C   UNK N   1       1.875  -0.271   0.000  0.00  0.00     0.031 A 
HETATM    2  C   UNK N   1       0.694  -1.019   0.000  0.00  0.00     0.071 A 
HETATM    3  C   UNK N   1      -0.545  -0.371   0.000  0.00  0.00     0.121 A 
HETATM    4  F   UNK N   1      -1.688  -1.096  -0.000  0.00  0.00    -0.206 F 
HETATM    5  C   UNK N   1      -0.603   1.026  -0.000  0.00  0.00     0.084 A 
HETATM    6  C   UNK N   1       0.577   1.775   0.000  0.00  0.00     0.121 A 
HETATM    7  F   UNK N   1       0.517   3.129  -0.000  0.00  0.00    -0.206 F 
HETATM    8  C   UNK N   1       1.817   1.127   0.000  0.00  0.00     0.071 A 
ENDROOT
BRANCH   1   9
HETATM    9  N   UNK N   1       3.123  -0.925  -0.000  0.00  0.00    -0.399 N 
HETATM   10  H   UNK N   1       3.163  -1.908  -0.000  0.00  0.00     0.156 HD
HETATM   11  H   UNK N   1       3.954  -0.398  -0.000  0.00  0.00     0.156 HD
ENDBRANCH   1   9
TORSDOF 1
