MODEL 1
REMARK VINA RESULT:      -5.3      0.000      0.000
REMARK  8 active torsions:
REMARK  status: ('A' for Active; 'I' for Inactive)
REMARK    1  A    between atoms: C_2  and  N_1 
REMARK    2  A    between atoms: C_2  and  C_3 
REMARK    3  A    between atoms: C_2  and  C_12 
REMARK    4  A    between atoms: C_3  and  C_4 
REMARK    5  A    between atoms: C_4  and  C_5 
REMARK    6  A    between atoms: C_5  and  N_6 
REMARK       I    between atoms: N_6  and  C_7 
REMARK       I    between atoms: C_7  and  N_10 
REMARK    7  A    between atoms: N_10  and  O_11 
REMARK    8  A    between atoms: C_12  and  O_13 
ROOT
HETATM    1  C   UNK N   1      29.851  17.030   7.432  0.00  0.00     0.138 C 
ENDROOT
BRANCH   1   2
HETATM    2  C   UNK N   1      31.336  17.235   7.154  0.00  0.00     0.023 C 
BRANCH   2   3
HETATM    3  C   UNK N   1      31.954  17.905   8.376  0.00  0.00     0.037 C 
BRANCH   3   4
HETATM    4  C   UNK N   1      33.360  17.398   8.666  0.00  0.00     0.173 C 
BRANCH   4   5
HETATM    5  N   UNK N   1      33.434  15.986   8.321  0.00  0.00    -0.418 N 
HETATM    6  H   UNK N   1      34.205  15.413   8.665  0.00  0.00     0.150 HD
HETATM    7  H   UNK N   1      32.712  15.569   7.733  0.00  0.00     0.150 HD
ENDBRANCH   4   5
BRANCH   4   8
HETATM    8  C   UNK N   1      34.377  18.178   7.876  0.00  0.00     0.163 C 
HETATM    9  O   UNK N   1      34.573  17.907   6.702  0.00  0.00    -0.648 OA
BRANCH   8  10
HETATM   10  O   UNK N   1      35.069  19.183   8.451  0.00  0.00    -0.775 OA
HETATM   11  H   UNK N   1      34.659  19.994   8.683  0.00  0.00     0.167 HD
ENDBRANCH   8  10
ENDBRANCH   4   8
ENDBRANCH   3   4
ENDBRANCH   2   3
ENDBRANCH   1   2
BRANCH   1  12
HETATM   12  N   UNK N   1      28.960  18.128   7.084  0.00  0.00    -0.225 N 
HETATM   13  C   UNK N   1      28.003  18.805   7.894  0.00  0.00     0.691 C 
HETATM   14  N   UNK N   1      27.789  18.452   9.112  0.00  0.00    -0.233 N 
HETATM   15  N   UNK N   1      27.268  19.880   7.333  0.00  0.00    -0.099 N 
HETATM   16  H   UNK N   1      27.119  18.930   9.653  0.00  0.00     0.174 HD
ATOM     17  HN  UNK N   1      28.312  17.676   9.517  1.00  0.00     0.174 HD
HETATM   18  H   UNK N   1      27.435  20.143   6.399  0.00  0.00     0.213 HD
HETATM   19  H   UNK N   1      29.027  18.448   6.155  0.00  0.00     0.177 HD
BRANCH  15  20
HETATM   20  O   UNK N   1      26.351  20.544   8.049  0.00  0.00    -0.276 OA
HETATM   21  H   UNK N   1      25.407  20.430   7.854  0.00  0.00     0.245 HD
ENDBRANCH  15  20
ENDBRANCH   1  12
TORSDOF 8
ENDMDL
MODEL 2
REMARK VINA RESULT:      -5.2      5.155      7.168
REMARK  8 active torsions:
REMARK  status: ('A' for Active; 'I' for Inactive)
REMARK    1  A    between atoms: C_2  and  N_1 
REMARK    2  A    between atoms: C_2  and  C_3 
REMARK    3  A    between atoms: C_2  and  C_12 
REMARK    4  A    between atoms: C_3  and  C_4 
REMARK    5  A    between atoms: C_4  and  C_5 
REMARK    6  A    between atoms: C_5  and  N_6 
REMARK       I    between atoms: N_6  and  C_7 
REMARK       I    between atoms: C_7  and  N_10 
REMARK    7  A    between atoms: N_10  and  O_11 
REMARK    8  A    between atoms: C_12  and  O_13 
ROOT
HETATM    1  C   UNK N   1      34.373  13.633   9.847  0.00  0.00     0.138 C 
ENDROOT
BRANCH   1   2
HETATM    2  C   UNK N   1      33.547  14.707   9.149  0.00  0.00     0.023 C 
BRANCH   2   3
HETATM    3  C   UNK N   1      34.507  15.748   8.588  0.00  0.00     0.037 C 
BRANCH   3   4
HETATM    4  C   UNK N   1      34.251  17.138   9.155  0.00  0.00     0.173 C 
BRANCH   4   5
HETATM    5  N   UNK N   1      34.993  17.285  10.398  0.00  0.00    -0.418 N 
HETATM    6  H   UNK N   1      34.565  17.751  11.199  0.00  0.00     0.150 HD
HETATM    7  H   UNK N   1      35.943  16.922  10.468  0.00  0.00     0.150 HD
ENDBRANCH   4   5
BRANCH   4   8
HETATM    8  C   UNK N   1      34.673  18.196   8.171  0.00  0.00     0.163 C 
HETATM    9  O   UNK N   1      34.412  18.063   6.986  0.00  0.00    -0.648 OA
BRANCH   8  10
HETATM   10  O   UNK N   1      35.332  19.297   8.586  0.00  0.00    -0.775 OA
HETATM   11  H   UNK N   1      35.212  19.647   9.448  0.00  0.00     0.167 HD
ENDBRANCH   8  10
ENDBRANCH   4   8
ENDBRANCH   3   4
ENDBRANCH   2   3
ENDBRANCH   1   2
BRANCH   1  12
HETATM   12  N   UNK N   1      34.613  13.813  11.273  0.00  0.00    -0.225 N 
HETATM   13  C   UNK N   1      35.816  14.172  11.947  0.00  0.00     0.691 C 
HETATM   14  N   UNK N   1      36.915  14.351  11.304  0.00  0.00    -0.233 N 
HETATM   15  N   UNK N   1      35.793  14.321  13.357  0.00  0.00    -0.099 N 
HETATM   16  H   UNK N   1      37.736  14.594  11.790  0.00  0.00     0.174 HD
ATOM     17  HN  UNK N   1      36.936  14.240  10.291  1.00  0.00     0.174 HD
HETATM   18  H   UNK N   1      34.948  14.180  13.843  0.00  0.00     0.213 HD
HETATM   19  H   UNK N   1      33.833  13.664  11.854  0.00  0.00     0.177 HD
BRANCH  15  20
HETATM   20  O   UNK N   1      36.897  14.649  14.040  0.00  0.00    -0.276 OA
HETATM   21  H   UNK N   1      37.464  15.372  13.729  0.00  0.00     0.245 HD
ENDBRANCH  15  20
ENDBRANCH   1  12
TORSDOF 8
ENDMDL
MODEL 3
REMARK VINA RESULT:      -5.1      7.708      9.739
REMARK  8 active torsions:
REMARK  status: ('A' for Active; 'I' for Inactive)
REMARK    1  A    between atoms: C_2  and  N_1 
REMARK    2  A    between atoms: C_2  and  C_3 
REMARK    3  A    between atoms: C_2  and  C_12 
REMARK    4  A    between atoms: C_3  and  C_4 
REMARK    5  A    between atoms: C_4  and  C_5 
REMARK    6  A    between atoms: C_5  and  N_6 
REMARK       I    between atoms: N_6  and  C_7 
REMARK       I    between atoms: C_7  and  N_10 
REMARK    7  A    between atoms: N_10  and  O_11 
REMARK    8  A    between atoms: C_12  and  O_13 
ROOT
HETATM    1  C   UNK N   1      21.465  18.867   4.348  0.00  0.00     0.138 C 
ENDROOT
BRANCH   1   2
HETATM    2  C   UNK N   1      22.624  17.935   4.680  0.00  0.00     0.023 C 
BRANCH   2   3
HETATM    3  C   UNK N   1      23.814  18.342   3.819  0.00  0.00     0.037 C 
BRANCH   3   4
HETATM    4  C   UNK N   1      24.445  19.649   4.282  0.00  0.00     0.173 C 
BRANCH   4   5
HETATM    5  N   UNK N   1      25.419  19.360   5.324  0.00  0.00    -0.418 N 
HETATM    6  H   UNK N   1      26.368  19.082   5.075  0.00  0.00     0.150 HD
HETATM    7  H   UNK N   1      25.150  19.435   6.305  0.00  0.00     0.150 HD
ENDBRANCH   4   5
BRANCH   4   8
HETATM    8  C   UNK N   1      25.112  20.350   3.129  0.00  0.00     0.163 C 
HETATM    9  O   UNK N   1      24.434  20.832   2.236  0.00  0.00    -0.648 OA
BRANCH   8  10
HETATM   10  O   UNK N   1      26.455  20.459   3.075  0.00  0.00    -0.775 OA
HETATM   11  H   UNK N   1      26.882  21.294   3.072  0.00  0.00     0.167 HD
ENDBRANCH   8  10
ENDBRANCH   4   8
ENDBRANCH   3   4
ENDBRANCH   2   3
ENDBRANCH   1   2
BRANCH   1  12
HETATM   12  N   UNK N   1      21.079  18.964   2.947  0.00  0.00    -0.225 N 
HETATM   13  C   UNK N   1      21.052  20.107   2.096  0.00  0.00     0.691 C 
HETATM   14  N   UNK N   1      21.357  21.276   2.537  0.00  0.00    -0.233 N 
HETATM   15  N   UNK N   1      20.668  19.943   0.741  0.00  0.00    -0.099 N 
HETATM   16  H   UNK N   1      21.327  22.053   1.933  0.00  0.00     0.174 HD
ATOM     17  HN  UNK N   1      21.629  21.398   3.512  1.00  0.00     0.174 HD
HETATM   18  H   UNK N   1      20.433  19.046   0.411  0.00  0.00     0.213 HD
HETATM   19  H   UNK N   1      20.796  18.120   2.528  0.00  0.00     0.177 HD
BRANCH  15  20
HETATM   20  O   UNK N   1      20.618  20.985  -0.098  0.00  0.00    -0.276 OA
HETATM   21  H   UNK N   1      20.138  21.790   0.155  0.00  0.00     0.245 HD
ENDBRANCH  15  20
ENDBRANCH   1  12
TORSDOF 8
ENDMDL
MODEL 4
REMARK VINA RESULT:      -4.9      2.183      6.312
REMARK  8 active torsions:
REMARK  status: ('A' for Active; 'I' for Inactive)
REMARK    1  A    between atoms: C_2  and  N_1 
REMARK    2  A    between atoms: C_2  and  C_3 
REMARK    3  A    between atoms: C_2  and  C_12 
REMARK    4  A    between atoms: C_3  and  C_4 
REMARK    5  A    between atoms: C_4  and  C_5 
REMARK    6  A    between atoms: C_5  and  N_6 
REMARK       I    between atoms: N_6  and  C_7 
REMARK       I    between atoms: C_7  and  N_10 
REMARK    7  A    between atoms: N_10  and  O_11 
REMARK    8  A    between atoms: C_12  and  O_13 
ROOT
HETATM    1  C   UNK N   1      31.717  16.314   8.260  0.00  0.00     0.138 C 
ENDROOT
BRANCH   1   2
HETATM    2  C   UNK N   1      31.138  17.236   7.194  0.00  0.00     0.023 C 
BRANCH   2   3
HETATM    3  C   UNK N   1      29.619  17.139   7.263  0.00  0.00     0.037 C 
BRANCH   3   4
HETATM    4  C   UNK N   1      28.976  18.433   7.744  0.00  0.00     0.173 C 
BRANCH   4   5
HETATM    5  N   UNK N   1      27.780  18.687   6.955  0.00  0.00    -0.418 N 
HETATM    6  H   UNK N   1      26.891  18.264   7.221  0.00  0.00     0.150 HD
HETATM    7  H   UNK N   1      27.832  19.289   6.134  0.00  0.00     0.150 HD
ENDBRANCH   4   5
BRANCH   4   8
HETATM    8  C   UNK N   1      28.623  18.336   9.205  0.00  0.00     0.163 C 
HETATM    9  O   UNK N   1      29.413  18.727  10.048  0.00  0.00    -0.648 OA
BRANCH   8  10
HETATM   10  O   UNK N   1      27.436  17.827   9.591  0.00  0.00    -0.775 OA
HETATM   11  H   UNK N   1      26.884  18.274  10.205  0.00  0.00     0.167 HD
ENDBRANCH   8  10
ENDBRANCH   4   8
ENDBRANCH   3   4
ENDBRANCH   2   3
ENDBRANCH   1   2
BRANCH   1  12
HETATM   12  N   UNK N   1      32.726  16.883   9.144  0.00  0.00    -0.225 N 
HETATM   13  C   UNK N   1      34.056  16.439   9.398  0.00  0.00     0.691 C 
HETATM   14  N   UNK N   1      34.521  15.372   8.851  0.00  0.00    -0.233 N 
HETATM   15  N   UNK N   1      34.870  17.188  10.285  0.00  0.00    -0.099 N 
HETATM   16  H   UNK N   1      35.441  15.080   9.044  0.00  0.00     0.174 HD
ATOM     17  HN  UNK N   1      33.936  14.829   8.217  1.00  0.00     0.174 HD
HETATM   18  H   UNK N   1      34.507  18.001  10.703  0.00  0.00     0.213 HD
HETATM   19  H   UNK N   1      32.450  17.689   9.636  0.00  0.00     0.177 HD
BRANCH  15  20
HETATM   20  O   UNK N   1      36.124  16.809  10.565  0.00  0.00    -0.276 OA
HETATM   21  H   UNK N   1      36.709  16.501   9.855  0.00  0.00     0.245 HD
ENDBRANCH  15  20
ENDBRANCH   1  12
TORSDOF 8
ENDMDL
MODEL 5
REMARK VINA RESULT:      -4.8      9.826     11.654
REMARK  8 active torsions:
REMARK  status: ('A' for Active; 'I' for Inactive)
REMARK    1  A    between atoms: C_2  and  N_1 
REMARK    2  A    between atoms: C_2  and  C_3 
REMARK    3  A    between atoms: C_2  and  C_12 
REMARK    4  A    between atoms: C_3  and  C_4 
REMARK    5  A    between atoms: C_4  and  C_5 
REMARK    6  A    between atoms: C_5  and  N_6 
REMARK       I    between atoms: N_6  and  C_7 
REMARK       I    between atoms: C_7  and  N_10 
REMARK    7  A    between atoms: N_10  and  O_11 
REMARK    8  A    between atoms: C_12  and  O_13 
ROOT
HETATM    1  C   UNK N   1      21.308  13.577   8.609  0.00  0.00     0.138 C 
ENDROOT
BRANCH   1   2
HETATM    2  C   UNK N   1      20.917  14.862   7.888  0.00  0.00     0.023 C 
BRANCH   2   3
HETATM    3  C   UNK N   1      20.499  15.882   8.941  0.00  0.00     0.037 C 
BRANCH   3   4
HETATM    4  C   UNK N   1      19.479  16.879   8.409  0.00  0.00     0.173 C 
BRANCH   4   5
HETATM    5  N   UNK N   1      18.229  16.709   9.136  0.00  0.00    -0.418 N 
HETATM    6  H   UNK N   1      18.236  16.333  10.084  0.00  0.00     0.150 HD
HETATM    7  H   UNK N   1      17.347  16.967   8.696  0.00  0.00     0.150 HD
ENDBRANCH   4   5
BRANCH   4   8
HETATM    8  C   UNK N   1      19.985  18.288   8.569  0.00  0.00     0.163 C 
HETATM    9  O   UNK N   1      20.676  18.789   7.697  0.00  0.00    -0.648 OA
BRANCH   8  10
HETATM   10  O   UNK N   1      19.674  19.009   9.666  0.00  0.00    -0.775 OA
HETATM   11  H   UNK N   1      19.430  19.912   9.609  0.00  0.00     0.167 HD
ENDBRANCH   8  10
ENDBRANCH   4   8
ENDBRANCH   3   4
ENDBRANCH   2   3
ENDBRANCH   1   2
BRANCH   1  12
HETATM   12  N   UNK N   1      22.624  13.547   9.232  0.00  0.00    -0.225 N 
HETATM   13  C   UNK N   1      23.085  12.763  10.329  0.00  0.00     0.691 C 
HETATM   14  N   UNK N   1      22.298  11.962  10.955  0.00  0.00    -0.233 N 
HETATM   15  N   UNK N   1      24.437  12.886  10.739  0.00  0.00    -0.099 N 
HETATM   16  H   UNK N   1      22.636  11.433  11.715  0.00  0.00     0.174 HD
ATOM     17  HN  UNK N   1      21.324  11.875  10.667  1.00  0.00     0.174 HD
HETATM   18  H   UNK N   1      25.033  13.503  10.256  0.00  0.00     0.213 HD
HETATM   19  H   UNK N   1      23.291  14.156   8.840  0.00  0.00     0.177 HD
BRANCH  15  20
HETATM   20  O   UNK N   1      24.918  12.179  11.769  0.00  0.00    -0.276 OA
HETATM   21  H   UNK N   1      25.547  11.456  11.611  0.00  0.00     0.245 HD
ENDBRANCH  15  20
ENDBRANCH   1  12
TORSDOF 8
ENDMDL
MODEL 6
REMARK VINA RESULT:      -4.7      2.372      6.557
REMARK  8 active torsions:
REMARK  status: ('A' for Active; 'I' for Inactive)
REMARK    1  A    between atoms: C_2  and  N_1 
REMARK    2  A    between atoms: C_2  and  C_3 
REMARK    3  A    between atoms: C_2  and  C_12 
REMARK    4  A    between atoms: C_3  and  C_4 
REMARK    5  A    between atoms: C_4  and  C_5 
REMARK    6  A    between atoms: C_5  and  N_6 
REMARK       I    between atoms: N_6  and  C_7 
REMARK       I    between atoms: C_7  and  N_10 
REMARK    7  A    between atoms: N_10  and  O_11 
REMARK    8  A    between atoms: C_12  and  O_13 
ROOT
HETATM    1  C   UNK N   1      32.407  17.325   8.289  0.00  0.00     0.138 C 
ENDROOT
BRANCH   1   2
HETATM    2  C   UNK N   1      31.009  16.900   8.720  0.00  0.00     0.023 C 
BRANCH   2   3
HETATM    3  C   UNK N   1      30.094  18.114   8.612  0.00  0.00     0.037 C 
BRANCH   3   4
HETATM    4  C   UNK N   1      28.664  17.733   8.253  0.00  0.00     0.173 C 
BRANCH   4   5
HETATM    5  N   UNK N   1      27.755  18.374   9.190  0.00  0.00    -0.418 N 
HETATM    6  H   UNK N   1      27.894  18.264  10.195  0.00  0.00     0.150 HD
HETATM    7  H   UNK N   1      26.978  18.934   8.842  0.00  0.00     0.150 HD
ENDBRANCH   4   5
BRANCH   4   8
HETATM    8  C   UNK N   1      28.342  18.158   6.844  0.00  0.00     0.163 C 
HETATM    9  O   UNK N   1      29.141  17.943   5.947  0.00  0.00    -0.648 OA
BRANCH   8  10
HETATM   10  O   UNK N   1      27.173  18.768   6.562  0.00  0.00    -0.775 OA
HETATM   11  H   UNK N   1      26.488  18.329   6.096  0.00  0.00     0.167 HD
ENDBRANCH   8  10
ENDBRANCH   4   8
ENDBRANCH   3   4
ENDBRANCH   2   3
ENDBRANCH   1   2
BRANCH   1  12
HETATM   12  N   UNK N   1      33.410  17.450   9.338  0.00  0.00    -0.225 N 
HETATM   13  C   UNK N   1      34.611  16.707   9.530  0.00  0.00     0.691 C 
HETATM   14  N   UNK N   1      34.933  15.742   8.745  0.00  0.00    -0.233 N 
HETATM   15  N   UNK N   1      35.454  17.039  10.621  0.00  0.00    -0.099 N 
HETATM   16  H   UNK N   1      35.766  15.238   8.898  0.00  0.00     0.174 HD
ATOM     17  HN  UNK N   1      34.327  15.497   7.963  1.00  0.00     0.174 HD
HETATM   18  H   UNK N   1      35.200  17.778  11.220  0.00  0.00     0.213 HD
HETATM   19  H   UNK N   1      33.233  18.146  10.011  0.00  0.00     0.177 HD
BRANCH  15  20
HETATM   20  O   UNK N   1      36.590  16.368  10.852  0.00  0.00    -0.276 OA
HETATM   21  H   UNK N   1      37.197  16.173  10.120  0.00  0.00     0.245 HD
ENDBRANCH  15  20
ENDBRANCH   1  12
TORSDOF 8
ENDMDL
MODEL 7
REMARK VINA RESULT:      -4.7      3.815      5.248
REMARK  8 active torsions:
REMARK  status: ('A' for Active; 'I' for Inactive)
REMARK    1  A    between atoms: C_2  and  N_1 
REMARK    2  A    between atoms: C_2  and  C_3 
REMARK    3  A    between atoms: C_2  and  C_12 
REMARK    4  A    between atoms: C_3  and  C_4 
REMARK    5  A    between atoms: C_4  and  C_5 
REMARK    6  A    between atoms: C_5  and  N_6 
REMARK       I    between atoms: N_6  and  C_7 
REMARK       I    between atoms: C_7  and  N_10 
REMARK    7  A    between atoms: N_10  and  O_11 
REMARK    8  A    between atoms: C_12  and  O_13 
ROOT
HETATM    1  C   UNK N   1      31.461  16.578   8.402  0.00  0.00     0.138 C 
ENDROOT
BRANCH   1   2
HETATM    2  C   UNK N   1      31.273  17.061   6.969  0.00  0.00     0.023 C 
BRANCH   2   3
HETATM    3  C   UNK N   1      31.804  15.980   6.035  0.00  0.00     0.037 C 
BRANCH   3   4
HETATM    4  C   UNK N   1      32.905  16.495   5.118  0.00  0.00     0.173 C 
BRANCH   4   5
HETATM    5  N   UNK N   1      32.426  17.682   4.426  0.00  0.00    -0.418 N 
HETATM    6  H   UNK N   1      31.538  18.107   4.692  0.00  0.00     0.150 HD
HETATM    7  H   UNK N   1      32.980  18.089   3.673  0.00  0.00     0.150 HD
ENDBRANCH   4   5
BRANCH   4   8
HETATM    8  C   UNK N   1      34.143  16.821   5.911  0.00  0.00     0.163 C 
HETATM    9  O   UNK N   1      34.994  15.964   6.089  0.00  0.00    -0.648 OA
BRANCH   8  10
HETATM   10  O   UNK N   1      34.327  18.056   6.420  0.00  0.00    -0.775 OA
HETATM   11  H   UNK N   1      34.437  18.806   5.867  0.00  0.00     0.167 HD
ENDBRANCH   8  10
ENDBRANCH   4   8
ENDBRANCH   3   4
ENDBRANCH   2   3
ENDBRANCH   1   2
BRANCH   1  12
HETATM   12  N   UNK N   1      32.605  17.109   9.130  0.00  0.00    -0.225 N 
HETATM   13  C   UNK N   1      33.845  16.482   9.444  0.00  0.00     0.691 C 
HETATM   14  N   UNK N   1      34.077  15.260   9.118  0.00  0.00    -0.233 N 
HETATM   15  N   UNK N   1      34.831  17.224  10.142  0.00  0.00    -0.099 N 
HETATM   16  H   UNK N   1      34.939  14.843   9.349  0.00  0.00     0.174 HD
ATOM     17  HN  UNK N   1      33.369  14.722   8.620  1.00  0.00     0.174 HD
HETATM   18  H   UNK N   1      34.645  18.158  10.392  0.00  0.00     0.213 HD
HETATM   19  H   UNK N   1      32.507  18.035   9.452  0.00  0.00     0.177 HD
BRANCH  15  20
HETATM   20  O   UNK N   1      36.009  16.679  10.470  0.00  0.00    -0.276 OA
HETATM   21  H   UNK N   1      36.637  16.423   9.775  0.00  0.00     0.245 HD
ENDBRANCH  15  20
ENDBRANCH   1  12
TORSDOF 8
ENDMDL
MODEL 8
REMARK VINA RESULT:      -4.6      2.443      3.044
REMARK  8 active torsions:
REMARK  status: ('A' for Active; 'I' for Inactive)
REMARK    1  A    between atoms: C_2  and  N_1 
REMARK    2  A    between atoms: C_2  and  C_3 
REMARK    3  A    between atoms: C_2  and  C_12 
REMARK    4  A    between atoms: C_3  and  C_4 
REMARK    5  A    between atoms: C_4  and  C_5 
REMARK    6  A    between atoms: C_5  and  N_6 
REMARK       I    between atoms: N_6  and  C_7 
REMARK       I    between atoms: C_7  and  N_10 
REMARK    7  A    between atoms: N_10  and  O_11 
REMARK    8  A    between atoms: C_12  and  O_13 
ROOT
HETATM    1  C   UNK N   1      32.416  17.327   8.123  0.00  0.00     0.138 C 
ENDROOT
BRANCH   1   2
HETATM    2  C   UNK N   1      32.885  15.882   8.252  0.00  0.00     0.023 C 
BRANCH   2   3
HETATM    3  C   UNK N   1      33.401  15.680   9.671  0.00  0.00     0.037 C 
BRANCH   3   4
HETATM    4  C   UNK N   1      34.861  15.248   9.702  0.00  0.00     0.173 C 
BRANCH   4   5
HETATM    5  N   UNK N   1      35.301  14.974   8.342  0.00  0.00    -0.418 N 
HETATM    6  H   UNK N   1      35.295  15.716   7.642  0.00  0.00     0.150 HD
HETATM    7  H   UNK N   1      35.615  14.037   8.089  0.00  0.00     0.150 HD
ENDBRANCH   4   5
BRANCH   4   8
HETATM    8  C   UNK N   1      35.717  16.323  10.317  0.00  0.00     0.163 C 
HETATM    9  O   UNK N   1      35.336  17.482  10.310  0.00  0.00    -0.648 OA
BRANCH   8  10
HETATM   10  O   UNK N   1      36.901  16.017  10.885  0.00  0.00    -0.775 OA
HETATM   11  H   UNK N   1      37.668  15.858  10.369  0.00  0.00     0.167 HD
ENDBRANCH   8  10
ENDBRANCH   4   8
ENDBRANCH   3   4
ENDBRANCH   2   3
ENDBRANCH   1   2
BRANCH   1  12
HETATM   12  N   UNK N   1      31.282  17.725   8.946  0.00  0.00    -0.225 N 
HETATM   13  C   UNK N   1      29.889  17.662   8.653  0.00  0.00     0.691 C 
HETATM   14  N   UNK N   1      29.464  17.244   7.514  0.00  0.00    -0.233 N 
HETATM   15  N   UNK N   1      28.962  18.082   9.640  0.00  0.00    -0.099 N 
HETATM   16  H   UNK N   1      28.497  17.213   7.330  0.00  0.00     0.174 HD
ATOM     17  HN  UNK N   1      30.128  16.946   6.800  1.00  0.00     0.174 HD
HETATM   18  H   UNK N   1      29.294  18.404  10.509  0.00  0.00     0.213 HD
HETATM   19  H   UNK N   1      31.510  18.091   9.831  0.00  0.00     0.177 HD
BRANCH  15  20
HETATM   20  O   UNK N   1      27.642  18.051   9.412  0.00  0.00    -0.276 OA
HETATM   21  H   UNK N   1      27.023  17.960  10.154  0.00  0.00     0.245 HD
ENDBRANCH  15  20
ENDBRANCH   1  12
TORSDOF 8
ENDMDL
MODEL 9
REMARK VINA RESULT:      -4.6     10.490     11.606
REMARK  8 active torsions:
REMARK  status: ('A' for Active; 'I' for Inactive)
REMARK    1  A    between atoms: C_2  and  N_1 
REMARK    2  A    between atoms: C_2  and  C_3 
REMARK    3  A    between atoms: C_2  and  C_12 
REMARK    4  A    between atoms: C_3  and  C_4 
REMARK    5  A    between atoms: C_4  and  C_5 
REMARK    6  A    between atoms: C_5  and  N_6 
REMARK       I    between atoms: N_6  and  C_7 
REMARK       I    between atoms: C_7  and  N_10 
REMARK    7  A    between atoms: N_10  and  O_11 
REMARK    8  A    between atoms: C_12  and  O_13 
ROOT
HETATM    1  C   UNK N   1      19.995  18.003   2.861  0.00  0.00     0.138 C 
ENDROOT
BRANCH   1   2
HETATM    2  C   UNK N   1      21.305  17.265   3.109  0.00  0.00     0.023 C 
BRANCH   2   3
HETATM    3  C   UNK N   1      21.040  16.168   4.133  0.00  0.00     0.037 C 
BRANCH   3   4
HETATM    4  C   UNK N   1      20.405  16.706   5.409  0.00  0.00     0.173 C 
BRANCH   4   5
HETATM    5  N   UNK N   1      19.708  15.621   6.083  0.00  0.00    -0.418 N 
HETATM    6  H   UNK N   1      19.044  15.825   6.831  0.00  0.00     0.150 HD
HETATM    7  H   UNK N   1      19.884  14.656   5.808  0.00  0.00     0.150 HD
ENDBRANCH   4   5
BRANCH   4   8
HETATM    8  C   UNK N   1      21.455  17.291   6.315  0.00  0.00     0.163 C 
HETATM    9  O   UNK N   1      22.491  16.679   6.520  0.00  0.00    -0.648 OA
BRANCH   8  10
HETATM   10  O   UNK N   1      21.267  18.492   6.899  0.00  0.00    -0.775 OA
HETATM   11  H   UNK N   1      21.246  18.589   7.832  0.00  0.00     0.167 HD
ENDBRANCH   8  10
ENDBRANCH   4   8
ENDBRANCH   3   4
ENDBRANCH   2   3
ENDBRANCH   1   2
BRANCH   1  12
HETATM   12  N   UNK N   1      19.986  18.983   1.783  0.00  0.00    -0.225 N 
HETATM   13  C   UNK N   1      20.317  20.369   1.822  0.00  0.00     0.691 C 
HETATM   14  N   UNK N   1      20.646  20.947   2.922  0.00  0.00    -0.233 N 
HETATM   15  N   UNK N   1      20.265  21.118   0.620  0.00  0.00    -0.099 N 
HETATM   16  H   UNK N   1      20.865  21.907   2.927  0.00  0.00     0.174 HD
ATOM     17  HN  UNK N   1      20.679  20.412   3.789  1.00  0.00     0.174 HD
HETATM   18  H   UNK N   1      20.009  20.670  -0.219  0.00  0.00     0.213 HD
HETATM   19  H   UNK N   1      19.714  18.639   0.902  0.00  0.00     0.177 HD
BRANCH  15  20
HETATM   20  O   UNK N   1      20.556  22.425   0.602  0.00  0.00    -0.276 OA
HETATM   21  H   UNK N   1      20.552  22.913  -0.237  0.00  0.00     0.245 HD
ENDBRANCH  15  20
ENDBRANCH   1  12
TORSDOF 8
ENDMDL
