MODEL 1
REMARK VINA RESULT:      -5.0      0.000      0.000
REMARK  9 active torsions:
REMARK  status: ('A' for Active; 'I' for Inactive)
REMARK    1  A    between atoms: C_2  and  N_1 
REMARK    2  A    between atoms: C_2  and  C_3 
REMARK    3  A    between atoms: C_2  and  C_10 
REMARK    4  A    between atoms: C_3  and  C_4 
REMARK    5  A    between atoms: C_4  and  C_5 
REMARK    6  A    between atoms: C_5  and  C_6 
REMARK    7  A    between atoms: C_6  and  C_7 
REMARK    8  A    between atoms: C_7  and  O_8 
REMARK    9  A    between atoms: C_10  and  O_11 
ROOT
HETATM    1  C   UNK N   1      33.000  17.633   8.584  0.00  0.00     0.173 C 
ENDROOT
BRANCH   1   2
HETATM    2  N   UNK N   1      33.512  16.734   9.605  0.00  0.00    -0.418 N 
HETATM    3  H   UNK N   1      32.883  16.099  10.097  0.00  0.00     0.150 HD
HETATM    4  H   UNK N   1      34.506  16.739   9.832  0.00  0.00     0.150 HD
ENDBRANCH   1   2
BRANCH   1   5
HETATM    5  C   UNK N   1      32.063  16.859   7.667  0.00  0.00     0.035 C 
BRANCH   5   6
HETATM    6  C   UNK N   1      30.673  17.461   7.720  0.00  0.00     0.003 C 
BRANCH   6   7
HETATM    7  C   UNK N   1      30.592  18.480   8.843  0.00  0.00     0.010 C 
BRANCH   7   8
HETATM    8  C   UNK N   1      29.564  18.023   9.866  0.00  0.00     0.110 C 
BRANCH   8   9
HETATM    9  C   UNK N   1      28.191  17.950   9.278  0.00  0.00     0.139 C 
HETATM   10  O   UNK N   1      27.535  16.924   9.367  0.00  0.00    -0.650 OA
BRANCH   9  11
HETATM   11  O   UNK N   1      27.690  19.011   8.617  0.00  0.00    -0.776 OA
HETATM   12  H   UNK N   1      26.968  19.501   8.956  0.00  0.00     0.167 HD
ENDBRANCH   9  11
ENDBRANCH   8   9
ENDBRANCH   7   8
ENDBRANCH   6   7
ENDBRANCH   5   6
ENDBRANCH   1   5
BRANCH   1  13
HETATM   13  C   UNK N   1      34.132  18.273   7.826  0.00  0.00     0.163 C 
HETATM   14  O   UNK N   1      34.856  19.084   8.377  0.00  0.00    -0.648 OA
BRANCH  13  15
HETATM   15  O   UNK N   1      34.371  17.934   6.542  0.00  0.00    -0.775 OA
HETATM   16  H   UNK N   1      33.685  17.737   5.936  0.00  0.00     0.167 HD
ENDBRANCH  13  15
ENDBRANCH   1  13
TORSDOF 9
ENDMDL
MODEL 2
REMARK VINA RESULT:      -4.6     10.181     11.011
REMARK  9 active torsions:
REMARK  status: ('A' for Active; 'I' for Inactive)
REMARK    1  A    between atoms: C_2  and  N_1 
REMARK    2  A    between atoms: C_2  and  C_3 
REMARK    3  A    between atoms: C_2  and  C_10 
REMARK    4  A    between atoms: C_3  and  C_4 
REMARK    5  A    between atoms: C_4  and  C_5 
REMARK    6  A    between atoms: C_5  and  C_6 
REMARK    7  A    between atoms: C_6  and  C_7 
REMARK    8  A    between atoms: C_7  and  O_8 
REMARK    9  A    between atoms: C_10  and  O_11 
ROOT
HETATM    1  C   UNK N   1      22.902  11.564  10.708  0.00  0.00     0.173 C 
ENDROOT
BRANCH   1   2
HETATM    2  N   UNK N   1      23.622  11.801   9.468  0.00  0.00    -0.418 N 
HETATM    3  H   UNK N   1      23.314  11.363   8.601  0.00  0.00     0.150 HD
HETATM    4  H   UNK N   1      24.439  12.411   9.466  0.00  0.00     0.150 HD
ENDBRANCH   1   2
BRANCH   1   5
HETATM    5  C   UNK N   1      21.577  12.312  10.663  0.00  0.00     0.035 C 
BRANCH   5   6
HETATM    6  C   UNK N   1      21.750  13.629   9.931  0.00  0.00     0.003 C 
BRANCH   6   7
HETATM    7  C   UNK N   1      20.391  14.248   9.653  0.00  0.00     0.010 C 
BRANCH   7   8
HETATM    8  C   UNK N   1      20.447  15.021   8.345  0.00  0.00     0.110 C 
BRANCH   8   9
HETATM    9  C   UNK N   1      19.780  16.355   8.459  0.00  0.00     0.139 C 
HETATM   10  O   UNK N   1      20.417  17.335   8.810  0.00  0.00    -0.650 OA
BRANCH   9  11
HETATM   11  O   UNK N   1      18.462  16.467   8.206  0.00  0.00    -0.776 OA
HETATM   12  H   UNK N   1      18.145  16.982   7.492  0.00  0.00     0.167 HD
ENDBRANCH   9  11
ENDBRANCH   8   9
ENDBRANCH   7   8
ENDBRANCH   6   7
ENDBRANCH   5   6
ENDBRANCH   1   5
BRANCH   1  13
HETATM   13  C   UNK N   1      23.740  11.969  11.892  0.00  0.00     0.163 C 
HETATM   14  O   UNK N   1      23.260  11.960  13.013  0.00  0.00    -0.648 OA
BRANCH  13  15
HETATM   15  O   UNK N   1      25.033  12.316  11.726  0.00  0.00    -0.775 OA
HETATM   16  H   UNK N   1      25.742  11.742  11.939  0.00  0.00     0.167 HD
ENDBRANCH  13  15
ENDBRANCH   1  13
TORSDOF 9
ENDMDL
MODEL 3
REMARK VINA RESULT:      -4.6      4.730      6.550
REMARK  9 active torsions:
REMARK  status: ('A' for Active; 'I' for Inactive)
REMARK    1  A    between atoms: C_2  and  N_1 
REMARK    2  A    between atoms: C_2  and  C_3 
REMARK    3  A    between atoms: C_2  and  C_10 
REMARK    4  A    between atoms: C_3  and  C_4 
REMARK    5  A    between atoms: C_4  and  C_5 
REMARK    6  A    between atoms: C_5  and  C_6 
REMARK    7  A    between atoms: C_6  and  C_7 
REMARK    8  A    between atoms: C_7  and  O_8 
REMARK    9  A    between atoms: C_10  and  O_11 
ROOT
HETATM    1  C   UNK N   1      36.434  14.004  11.761  0.00  0.00     0.173 C 
ENDROOT
BRANCH   1   2
HETATM    2  N   UNK N   1      37.689  13.281  11.639  0.00  0.00    -0.418 N 
HETATM    3  H   UNK N   1      38.475  13.691  11.135  0.00  0.00     0.150 HD
HETATM    4  H   UNK N   1      37.784  12.358  12.061  0.00  0.00     0.150 HD
ENDBRANCH   1   2
BRANCH   1   5
HETATM    5  C   UNK N   1      36.571  15.354  11.071  0.00  0.00     0.035 C 
BRANCH   5   6
HETATM    6  C   UNK N   1      35.489  15.510  10.020  0.00  0.00     0.003 C 
BRANCH   6   7
HETATM    7  C   UNK N   1      34.899  16.908  10.088  0.00  0.00     0.010 C 
BRANCH   7   8
HETATM    8  C   UNK N   1      34.027  17.148   8.866  0.00  0.00     0.110 C 
BRANCH   8   9
HETATM    9  C   UNK N   1      34.586  18.223   7.988  0.00  0.00     0.139 C 
HETATM   10  O   UNK N   1      34.425  18.176   6.779  0.00  0.00    -0.650 OA
BRANCH   9  11
HETATM   11  O   UNK N   1      35.298  19.227   8.532  0.00  0.00    -0.776 OA
HETATM   12  H   UNK N   1      35.639  19.167   9.402  0.00  0.00     0.167 HD
ENDBRANCH   9  11
ENDBRANCH   8   9
ENDBRANCH   7   8
ENDBRANCH   6   7
ENDBRANCH   5   6
ENDBRANCH   1   5
BRANCH   1  13
HETATM   13  C   UNK N   1      36.043  14.146  13.208  0.00  0.00     0.163 C 
HETATM   14  O   UNK N   1      34.975  13.708  13.599  0.00  0.00    -0.648 OA
BRANCH  13  15
HETATM   15  O   UNK N   1      36.882  14.734  14.087  0.00  0.00    -0.775 OA
HETATM   16  H   UNK N   1      36.693  15.558  14.491  0.00  0.00     0.167 HD
ENDBRANCH  13  15
ENDBRANCH   1  13
TORSDOF 9
ENDMDL
MODEL 4
REMARK VINA RESULT:      -4.4      4.745      6.501
REMARK  9 active torsions:
REMARK  status: ('A' for Active; 'I' for Inactive)
REMARK    1  A    between atoms: C_2  and  N_1 
REMARK    2  A    between atoms: C_2  and  C_3 
REMARK    3  A    between atoms: C_2  and  C_10 
REMARK    4  A    between atoms: C_3  and  C_4 
REMARK    5  A    between atoms: C_4  and  C_5 
REMARK    6  A    between atoms: C_5  and  C_6 
REMARK    7  A    between atoms: C_6  and  C_7 
REMARK    8  A    between atoms: C_7  and  O_8 
REMARK    9  A    between atoms: C_10  and  O_11 
ROOT
HETATM    1  C   UNK N   1      34.158  17.004   8.830  0.00  0.00     0.173 C 
ENDROOT
BRANCH   1   2
HETATM    2  N   UNK N   1      32.763  17.110   9.223  0.00  0.00    -0.418 N 
HETATM    3  H   UNK N   1      32.021  16.969   8.537  0.00  0.00     0.150 HD
HETATM    4  H   UNK N   1      32.524  17.326  10.190  0.00  0.00     0.150 HD
ENDBRANCH   1   2
BRANCH   1   5
HETATM    5  C   UNK N   1      35.023  16.956  10.083  0.00  0.00     0.035 C 
BRANCH   5   6
HETATM    6  C   UNK N   1      35.317  15.516  10.455  0.00  0.00     0.003 C 
BRANCH   6   7
HETATM    7  C   UNK N   1      35.882  15.450  11.863  0.00  0.00     0.010 C 
BRANCH   7   8
HETATM    8  C   UNK N   1      36.351  14.033  12.153  0.00  0.00     0.110 C 
BRANCH   8   9
HETATM    9  C   UNK N   1      36.132  13.658  13.585  0.00  0.00     0.139 C 
HETATM   10  O   UNK N   1      35.001  13.561  14.031  0.00  0.00    -0.650 OA
BRANCH   9  11
HETATM   11  O   UNK N   1      37.191  13.462  14.393  0.00  0.00    -0.776 OA
HETATM   12  H   UNK N   1      37.129  12.924  15.156  0.00  0.00     0.167 HD
ENDBRANCH   9  11
ENDBRANCH   8   9
ENDBRANCH   7   8
ENDBRANCH   6   7
ENDBRANCH   5   6
ENDBRANCH   1   5
BRANCH   1  13
HETATM   13  C   UNK N   1      34.541  18.142   7.922  0.00  0.00     0.163 C 
HETATM   14  O   UNK N   1      35.045  19.151   8.385  0.00  0.00    -0.648 OA
BRANCH  13  15
HETATM   15  O   UNK N   1      34.354  18.044   6.590  0.00  0.00    -0.775 OA
HETATM   16  H   UNK N   1      34.912  18.469   5.968  0.00  0.00     0.167 HD
ENDBRANCH  13  15
ENDBRANCH   1  13
TORSDOF 9
ENDMDL
MODEL 5
REMARK VINA RESULT:      -4.4     16.255     17.035
REMARK  9 active torsions:
REMARK  status: ('A' for Active; 'I' for Inactive)
REMARK    1  A    between atoms: C_2  and  N_1 
REMARK    2  A    between atoms: C_2  and  C_3 
REMARK    3  A    between atoms: C_2  and  C_10 
REMARK    4  A    between atoms: C_3  and  C_4 
REMARK    5  A    between atoms: C_4  and  C_5 
REMARK    6  A    between atoms: C_5  and  C_6 
REMARK    7  A    between atoms: C_6  and  C_7 
REMARK    8  A    between atoms: C_7  and  O_8 
REMARK    9  A    between atoms: C_10  and  O_11 
ROOT
HETATM    1  C   UNK N   1      25.712  28.488  -3.973  0.00  0.00     0.173 C 
ENDROOT
BRANCH   1   2
HETATM    2  N   UNK N   1      25.903  27.541  -2.887  0.00  0.00    -0.418 N 
HETATM    3  H   UNK N   1      26.818  27.123  -2.721  0.00  0.00     0.150 HD
HETATM    4  H   UNK N   1      25.116  27.293  -2.286  0.00  0.00     0.150 HD
ENDBRANCH   1   2
BRANCH   1   5
HETATM    5  C   UNK N   1      26.063  27.809  -5.290  0.00  0.00     0.035 C 
BRANCH   5   6
HETATM    6  C   UNK N   1      25.010  26.775  -5.636  0.00  0.00     0.003 C 
BRANCH   6   7
HETATM    7  C   UNK N   1      25.673  25.530  -6.201  0.00  0.00     0.010 C 
BRANCH   7   8
HETATM    8  C   UNK N   1      25.520  24.385  -5.212  0.00  0.00     0.110 C 
BRANCH   8   9
HETATM    9  C   UNK N   1      26.668  24.320  -4.255  0.00  0.00     0.139 C 
HETATM   10  O   UNK N   1      26.494  24.538  -3.067  0.00  0.00    -0.650 OA
BRANCH   9  11
HETATM   11  O   UNK N   1      27.906  24.055  -4.714  0.00  0.00    -0.776 OA
HETATM   12  H   UNK N   1      28.424  23.366  -4.349  0.00  0.00     0.167 HD
ENDBRANCH   9  11
ENDBRANCH   8   9
ENDBRANCH   7   8
ENDBRANCH   6   7
ENDBRANCH   5   6
ENDBRANCH   1   5
BRANCH   1  13
HETATM   13  C   UNK N   1      26.529  29.731  -3.741  0.00  0.00     0.163 C 
HETATM   14  O   UNK N   1      27.746  29.676  -3.764  0.00  0.00    -0.648 OA
BRANCH  13  15
HETATM   15  O   UNK N   1      25.921  30.918  -3.535  0.00  0.00    -0.775 OA
HETATM   16  H   UNK N   1      26.280  31.578  -2.976  0.00  0.00     0.167 HD
ENDBRANCH  13  15
ENDBRANCH   1  13
TORSDOF 9
ENDMDL
MODEL 6
REMARK VINA RESULT:      -4.2      3.884      5.354
REMARK  9 active torsions:
REMARK  status: ('A' for Active; 'I' for Inactive)
REMARK    1  A    between atoms: C_2  and  N_1 
REMARK    2  A    between atoms: C_2  and  C_3 
REMARK    3  A    between atoms: C_2  and  C_10 
REMARK    4  A    between atoms: C_3  and  C_4 
REMARK    5  A    between atoms: C_4  and  C_5 
REMARK    6  A    between atoms: C_5  and  C_6 
REMARK    7  A    between atoms: C_6  and  C_7 
REMARK    8  A    between atoms: C_7  and  O_8 
REMARK    9  A    between atoms: C_10  and  O_11 
ROOT
HETATM    1  C   UNK N   1      34.856  14.692  11.241  0.00  0.00     0.173 C 
ENDROOT
BRANCH   1   2
HETATM    2  N   UNK N   1      34.363  13.400  10.795  0.00  0.00    -0.418 N 
HETATM    3  H   UNK N   1      34.720  12.977   9.939  0.00  0.00     0.150 HD
HETATM    4  H   UNK N   1      33.654  12.912  11.343  0.00  0.00     0.150 HD
ENDBRANCH   1   2
BRANCH   1   5
HETATM    5  C   UNK N   1      34.281  15.779  10.343  0.00  0.00     0.035 C 
BRANCH   5   6
HETATM    6  C   UNK N   1      33.273  15.178   9.383  0.00  0.00     0.003 C 
BRANCH   6   7
HETATM    7  C   UNK N   1      33.084  16.097   8.188  0.00  0.00     0.010 C 
BRANCH   7   8
HETATM    8  C   UNK N   1      33.253  17.541   8.631  0.00  0.00     0.110 C 
BRANCH   8   9
HETATM    9  C   UNK N   1      34.307  18.246   7.837  0.00  0.00     0.139 C 
HETATM   10  O   UNK N   1      34.998  19.107   8.357  0.00  0.00    -0.650 OA
BRANCH   9  11
HETATM   11  O   UNK N   1      34.470  17.951   6.534  0.00  0.00    -0.776 OA
HETATM   12  H   UNK N   1      34.157  17.145   6.173  0.00  0.00     0.167 HD
ENDBRANCH   9  11
ENDBRANCH   8   9
ENDBRANCH   7   8
ENDBRANCH   6   7
ENDBRANCH   5   6
ENDBRANCH   1   5
BRANCH   1  13
HETATM   13  C   UNK N   1      36.361  14.708  11.255  0.00  0.00     0.163 C 
HETATM   14  O   UNK N   1      36.981  13.715  11.598  0.00  0.00    -0.648 OA
BRANCH  13  15
HETATM   15  O   UNK N   1      37.036  15.809  10.864  0.00  0.00    -0.775 OA
HETATM   16  H   UNK N   1      37.954  15.919  11.016  0.00  0.00     0.167 HD
ENDBRANCH  13  15
ENDBRANCH   1  13
TORSDOF 9
ENDMDL
MODEL 7
REMARK VINA RESULT:      -4.2      4.595      6.348
REMARK  9 active torsions:
REMARK  status: ('A' for Active; 'I' for Inactive)
REMARK    1  A    between atoms: C_2  and  N_1 
REMARK    2  A    between atoms: C_2  and  C_3 
REMARK    3  A    between atoms: C_2  and  C_10 
REMARK    4  A    between atoms: C_3  and  C_4 
REMARK    5  A    between atoms: C_4  and  C_5 
REMARK    6  A    between atoms: C_5  and  C_6 
REMARK    7  A    between atoms: C_6  and  C_7 
REMARK    8  A    between atoms: C_7  and  O_8 
REMARK    9  A    between atoms: C_10  and  O_11 
ROOT
HETATM    1  C   UNK N   1      35.783  13.763  12.096  0.00  0.00     0.173 C 
ENDROOT
BRANCH   1   2
HETATM    2  N   UNK N   1      34.726  13.096  11.356  0.00  0.00    -0.418 N 
HETATM    3  H   UNK N   1      34.105  12.435  11.824  0.00  0.00     0.150 HD
HETATM    4  H   UNK N   1      34.603  13.290  10.362  0.00  0.00     0.150 HD
ENDBRANCH   1   2
BRANCH   1   5
HETATM    5  C   UNK N   1      35.605  15.270  11.966  0.00  0.00     0.035 C 
BRANCH   5   6
HETATM    6  C   UNK N   1      34.615  15.580  10.861  0.00  0.00     0.003 C 
BRANCH   6   7
HETATM    7  C   UNK N   1      35.201  16.615   9.916  0.00  0.00     0.010 C 
BRANCH   7   8
HETATM    8  C   UNK N   1      34.087  17.224   9.079  0.00  0.00     0.110 C 
BRANCH   8   9
HETATM    9  C   UNK N   1      34.611  18.236   8.110  0.00  0.00     0.139 C 
HETATM   10  O   UNK N   1      34.427  18.095   6.912  0.00  0.00    -0.650 OA
BRANCH   9  11
HETATM   11  O   UNK N   1      35.318  19.289   8.562  0.00  0.00    -0.776 OA
HETATM   12  H   UNK N   1      35.040  19.779   9.310  0.00  0.00     0.167 HD
ENDBRANCH   9  11
ENDBRANCH   8   9
ENDBRANCH   7   8
ENDBRANCH   6   7
ENDBRANCH   5   6
ENDBRANCH   1   5
BRANCH   1  13
HETATM   13  C   UNK N   1      37.135  13.309  11.613  0.00  0.00     0.163 C 
HETATM   14  O   UNK N   1      37.583  13.732  10.561  0.00  0.00    -0.648 OA
BRANCH  13  15
HETATM   15  O   UNK N   1      37.872  12.455  12.352  0.00  0.00    -0.775 OA
HETATM   16  H   UNK N   1      37.804  11.524  12.267  0.00  0.00     0.167 HD
ENDBRANCH  13  15
ENDBRANCH   1  13
TORSDOF 9
ENDMDL
MODEL 8
REMARK VINA RESULT:      -4.1      4.010      4.939
REMARK  9 active torsions:
REMARK  status: ('A' for Active; 'I' for Inactive)
REMARK    1  A    between atoms: C_2  and  N_1 
REMARK    2  A    between atoms: C_2  and  C_3 
REMARK    3  A    between atoms: C_2  and  C_10 
REMARK    4  A    between atoms: C_3  and  C_4 
REMARK    5  A    between atoms: C_4  and  C_5 
REMARK    6  A    between atoms: C_5  and  C_6 
REMARK    7  A    between atoms: C_6  and  C_7 
REMARK    8  A    between atoms: C_7  and  O_8 
REMARK    9  A    between atoms: C_10  and  O_11 
ROOT
HETATM    1  C   UNK N   1      33.542  17.401   8.174  0.00  0.00     0.173 C 
ENDROOT
BRANCH   1   2
HETATM    2  N   UNK N   1      32.713  16.704   9.143  0.00  0.00    -0.418 N 
HETATM    3  H   UNK N   1      32.932  16.749  10.138  0.00  0.00     0.150 HD
HETATM    4  H   UNK N   1      31.907  16.166   8.826  0.00  0.00     0.150 HD
ENDBRANCH   1   2
BRANCH   1   5
HETATM    5  C   UNK N   1      33.933  16.431   7.067  0.00  0.00     0.035 C 
BRANCH   5   6
HETATM    6  C   UNK N   1      33.879  17.131   5.723  0.00  0.00     0.003 C 
BRANCH   6   7
HETATM    7  C   UNK N   1      32.434  17.389   5.331  0.00  0.00     0.010 C 
BRANCH   7   8
HETATM    8  C   UNK N   1      32.325  17.451   3.816  0.00  0.00     0.110 C 
BRANCH   8   9
HETATM    9  C   UNK N   1      32.550  16.112   3.188  0.00  0.00     0.139 C 
HETATM   10  O   UNK N   1      31.818  15.174   3.458  0.00  0.00    -0.650 OA
BRANCH   9  11
HETATM   11  O   UNK N   1      33.586  15.935   2.346  0.00  0.00    -0.776 OA
HETATM   12  H   UNK N   1      34.401  15.584   2.643  0.00  0.00     0.167 HD
ENDBRANCH   9  11
ENDBRANCH   8   9
ENDBRANCH   7   8
ENDBRANCH   6   7
ENDBRANCH   5   6
ENDBRANCH   1   5
BRANCH   1  13
HETATM   13  C   UNK N   1      34.745  18.008   8.845  0.00  0.00     0.163 C 
HETATM   14  O   UNK N   1      35.275  17.437   9.783  0.00  0.00    -0.648 OA
BRANCH  13  15
HETATM   15  O   UNK N   1      35.261  19.172   8.399  0.00  0.00    -0.775 OA
HETATM   16  H   UNK N   1      35.960  19.615   8.837  0.00  0.00     0.167 HD
ENDBRANCH  13  15
ENDBRANCH   1  13
TORSDOF 9
ENDMDL
MODEL 9
REMARK VINA RESULT:      -4.1      3.183      4.048
REMARK  9 active torsions:
REMARK  status: ('A' for Active; 'I' for Inactive)
REMARK    1  A    between atoms: C_2  and  N_1 
REMARK    2  A    between atoms: C_2  and  C_3 
REMARK    3  A    between atoms: C_2  and  C_10 
REMARK    4  A    between atoms: C_3  and  C_4 
REMARK    5  A    between atoms: C_4  and  C_5 
REMARK    6  A    between atoms: C_5  and  C_6 
REMARK    7  A    between atoms: C_6  and  C_7 
REMARK    8  A    between atoms: C_7  and  O_8 
REMARK    9  A    between atoms: C_10  and  O_11 
ROOT
HETATM    1  C   UNK N   1      33.363  17.486   8.658  0.00  0.00     0.173 C 
ENDROOT
BRANCH   1   2
HETATM    2  N   UNK N   1      33.966  16.751   9.757  0.00  0.00    -0.418 N 
HETATM    3  H   UNK N   1      34.979  16.649   9.816  0.00  0.00     0.150 HD
HETATM    4  H   UNK N   1      33.372  16.336  10.475  0.00  0.00     0.150 HD
ENDBRANCH   1   2
BRANCH   1   5
HETATM    5  C   UNK N   1      32.586  16.514   7.780  0.00  0.00     0.035 C 
BRANCH   5   6
HETATM    6  C   UNK N   1      31.185  17.041   7.539  0.00  0.00     0.003 C 
BRANCH   6   7
HETATM    7  C   UNK N   1      30.922  17.149   6.047  0.00  0.00     0.010 C 
BRANCH   7   8
HETATM    8  C   UNK N   1      31.878  16.233   5.299  0.00  0.00     0.110 C 
BRANCH   8   9
HETATM    9  C   UNK N   1      31.532  16.138   3.847  0.00  0.00     0.139 C 
HETATM   10  O   UNK N   1      31.722  15.099   3.234  0.00  0.00    -0.650 OA
BRANCH   9  11
HETATM   11  O   UNK N   1      31.040  17.214   3.205  0.00  0.00    -0.776 OA
HETATM   12  H   UNK N   1      31.604  17.882   2.870  0.00  0.00     0.167 HD
ENDBRANCH   9  11
ENDBRANCH   8   9
ENDBRANCH   7   8
ENDBRANCH   6   7
ENDBRANCH   5   6
ENDBRANCH   1   5
BRANCH   1  13
HETATM   13  C   UNK N   1      34.414  18.234   7.881  0.00  0.00     0.163 C 
HETATM   14  O   UNK N   1      34.535  18.049   6.682  0.00  0.00    -0.648 OA
BRANCH  13  15
HETATM   15  O   UNK N   1      35.209  19.131   8.499  0.00  0.00    -0.775 OA
HETATM   16  H   UNK N   1      35.705  19.773   8.031  0.00  0.00     0.167 HD
ENDBRANCH  13  15
ENDBRANCH   1  13
TORSDOF 9
ENDMDL
