REMARK  5 active torsions:
REMARK  status: ('A' for Active; 'I' for Inactive)
REMARK    1  A    between atoms: C_4  and  C_1 
REMARK    2  A    between atoms: O_19  and  C_1 
REMARK    3  A    between atoms: C_7  and  O_21 
REMARK    4  A    between atoms: N_11  and  C_8 
REMARK    5  A    between atoms: C_10  and  N_18 
ROOT
HETATM    1  C   UNK N   1       4.602   1.910   0.773  0.00  0.00     0.183 A 
HETATM    2  C   UNK N   1       0.289   2.035  -0.211  0.00  0.00     0.188 A 
HETATM    3  C   UNK N   1       2.205   2.958   0.024  0.00  0.00     0.122 A 
HETATM    4  C   UNK N   1       3.301   3.799   0.117  0.00  0.00     0.131 A 
HETATM    5  C   UNK N   1       2.327   1.649   0.318  0.00  0.00     0.142 A 
HETATM    6  N   UNK N   1       4.497   3.252   0.491  0.00  0.00    -0.337 N 
ATOM      7  HN  UNK N   1       5.322   3.847   0.562  1.00  0.00     0.168 HD
HETATM    8  N   UNK N   1       3.504   1.096   0.699  0.00  0.00    -0.336 N 
ATOM      9  HN  UNK N   1       3.570   0.103   0.923  1.00  0.00     0.168 HD
HETATM   10  N   UNK N   1       0.932   3.232  -0.317  0.00  0.00    -0.346 N 
ATOM     11  HN  UNK N   1       0.538   4.132  -0.592  1.00  0.00     0.167 HD
HETATM   12  N   UNK N   1       1.136   1.049   0.189  0.00  0.00    -0.297 N 
ENDROOT
BRANCH  12  13
HETATM   13  C   UNK N   1       0.777  -0.339   0.496  0.00  0.00     0.267 C 
HETATM   14  C   UNK N   1       1.609  -1.386  -0.251  0.00  0.00     0.239 C 
HETATM   15  C   UNK N   1       0.656  -2.492  -0.147  0.00  0.00     0.190 C 
HETATM   16  C   UNK N   1      -0.701  -2.011   0.216  0.00  0.00     0.220 C 
HETATM   17  O   UNK N   1       0.935  -3.660  -0.370  0.00  0.00    -0.292 OA
HETATM   18  O   UNK N   1      -0.589  -0.600   0.224  0.00  0.00    -0.348 OA
BRANCH  14  19
HETATM   19  O   UNK N   1       2.794  -1.657   0.439  0.00  0.00    -0.383 OA
HETATM   20  H   UNK N   1       3.042  -2.463   0.918  0.00  0.00     0.210 HD
ENDBRANCH  14  19
BRANCH  16  21
HETATM   21  C   UNK N   1      -1.738  -2.425  -0.820  0.00  0.00     0.204 C 
BRANCH  21  22
HETATM   22  O   UNK N   1      -2.022  -3.788  -0.704  0.00  0.00    -0.398 OA
HETATM   23  H   UNK N   1      -2.941  -4.089  -0.623  0.00  0.00     0.209 HD
ENDBRANCH  21  22
ENDBRANCH  16  21
ENDBRANCH  12  13
BRANCH   4  24
HETATM   24  N   UNK N   1       3.194   5.179  -0.148  0.00  0.00    -0.383 N 
HETATM   25  H   UNK N   1       3.991   5.726  -0.333  0.00  0.00     0.157 HD
HETATM   26  H   UNK N   1       2.306   5.603  -0.148  0.00  0.00     0.157 HD
ENDBRANCH   4  24
TORSDOF 5
