MODEL 1
REMARK VINA RESULT:      -4.0      0.000      0.000
REMARK  4 active torsions:
REMARK  status: ('A' for Active; 'I' for Inactive)
REMARK    1  A    between atoms: C_2  and  N_1 
REMARK    2  A    between atoms: C_2  and  C_3 
REMARK    3  A    between atoms: C_2  and  C_5 
REMARK    4  A    between atoms: C_5  and  O_6 
ROOT
HETATM    1  C   UNK N   1      33.778  17.358   8.902  0.00  0.00     0.196 C 
ENDROOT
BRANCH   1   2
HETATM    2  N   UNK N   1      34.431  16.948  10.132  0.00  0.00    -0.415 N 
HETATM    3  H   UNK N   1      34.197  16.052  10.560  0.00  0.00     0.151 HD
HETATM    4  H   UNK N   1      35.123  17.557  10.569  0.00  0.00     0.151 HD
ENDBRANCH   1   2
BRANCH   1   5
HETATM    5  C   UNK N   1      32.394  16.814   8.676  0.00  0.00    -0.002 C 
HETATM    6  C   UNK N   1      31.353  17.592   8.391  0.00  0.00     0.009 C 
ENDBRANCH   1   5
BRANCH   1   7
HETATM    7  C   UNK N   1      34.552  18.276   7.994  0.00  0.00     0.166 C 
HETATM    8  O   UNK N   1      34.497  18.146   6.780  0.00  0.00    -0.648 OA
BRANCH   7   9
HETATM    9  O   UNK N   1      35.315  19.252   8.523  0.00  0.00    -0.775 OA
HETATM   10  H   UNK N   1      35.021  20.141   8.498  0.00  0.00     0.167 HD
ENDBRANCH   7   9
ENDBRANCH   1   7
TORSDOF 4
ENDMDL
MODEL 2
REMARK VINA RESULT:      -3.7     11.477     12.229
REMARK  4 active torsions:
REMARK  status: ('A' for Active; 'I' for Inactive)
REMARK    1  A    between atoms: C_2  and  N_1 
REMARK    2  A    between atoms: C_2  and  C_3 
REMARK    3  A    between atoms: C_2  and  C_5 
REMARK    4  A    between atoms: C_5  and  O_6 
ROOT
HETATM    1  C   UNK N   1      22.812  12.078  11.379  0.00  0.00     0.196 C 
ENDROOT
BRANCH   1   2
HETATM    2  N   UNK N   1      22.727  11.656  12.766  0.00  0.00    -0.415 N 
HETATM    3  H   UNK N   1      23.432  11.029  13.152  0.00  0.00     0.151 HD
HETATM    4  H   UNK N   1      21.962  11.988  13.354  0.00  0.00     0.151 HD
ENDBRANCH   1   2
BRANCH   1   5
HETATM    5  C   UNK N   1      21.503  12.373  10.699  0.00  0.00    -0.002 C 
HETATM    6  C   UNK N   1      21.283  13.497  10.021  0.00  0.00     0.009 C 
ENDBRANCH   1   5
BRANCH   1   7
HETATM    7  C   UNK N   1      24.189  12.172  10.779  0.00  0.00     0.166 C 
HETATM    8  O   UNK N   1      24.377  11.903   9.602  0.00  0.00    -0.648 OA
BRANCH   7   9
HETATM    9  O   UNK N   1      25.228  12.556  11.546  0.00  0.00    -0.775 OA
HETATM   10  H   UNK N   1      25.071  12.963  12.375  0.00  0.00     0.167 HD
ENDBRANCH   7   9
ENDBRANCH   1   7
TORSDOF 4
ENDMDL
MODEL 3
REMARK VINA RESULT:      -3.7     13.871     14.875
REMARK  4 active torsions:
REMARK  status: ('A' for Active; 'I' for Inactive)
REMARK    1  A    between atoms: C_2  and  N_1 
REMARK    2  A    between atoms: C_2  and  C_3 
REMARK    3  A    between atoms: C_2  and  C_5 
REMARK    4  A    between atoms: C_5  and  O_6 
ROOT
HETATM    1  C   UNK N   1      20.206  19.443   2.483  0.00  0.00     0.196 C 
ENDROOT
BRANCH   1   2
HETATM    2  N   UNK N   1      18.929  18.767   2.334  0.00  0.00    -0.415 N 
HETATM    3  H   UNK N   1      18.866  17.909   1.788  0.00  0.00     0.151 HD
HETATM    4  H   UNK N   1      18.093  19.152   2.777  0.00  0.00     0.151 HD
ENDBRANCH   1   2
BRANCH   1   5
HETATM    5  C   UNK N   1      20.927  19.210   3.782  0.00  0.00    -0.002 C 
HETATM    6  C   UNK N   1      22.229  18.940   3.843  0.00  0.00     0.009 C 
ENDBRANCH   1   5
BRANCH   1   7
HETATM    7  C   UNK N   1      20.663  20.294   1.329  0.00  0.00     0.166 C 
HETATM    8  O   UNK N   1      21.088  21.424   1.518  0.00  0.00    -0.648 OA
BRANCH   7   9
HETATM    9  O   UNK N   1      20.605  19.808   0.074  0.00  0.00    -0.775 OA
HETATM   10  H   UNK N   1      19.892  19.256  -0.181  0.00  0.00     0.167 HD
ENDBRANCH   7   9
ENDBRANCH   1   7
TORSDOF 4
ENDMDL
MODEL 4
REMARK VINA RESULT:      -3.7     11.865     12.685
REMARK  4 active torsions:
REMARK  status: ('A' for Active; 'I' for Inactive)
REMARK    1  A    between atoms: C_2  and  N_1 
REMARK    2  A    between atoms: C_2  and  C_3 
REMARK    3  A    between atoms: C_2  and  C_5 
REMARK    4  A    between atoms: C_5  and  O_6 
ROOT
HETATM    1  C   UNK N   1      22.771  11.923  10.951  0.00  0.00     0.196 C 
ENDROOT
BRANCH   1   2
HETATM    2  N   UNK N   1      23.166  11.358   9.673  0.00  0.00    -0.415 N 
HETATM    3  H   UNK N   1      24.144  11.129   9.497  0.00  0.00     0.151 HD
HETATM    4  H   UNK N   1      22.465  11.190   8.951  0.00  0.00     0.151 HD
ENDBRANCH   1   2
BRANCH   1   5
HETATM    5  C   UNK N   1      21.319  12.290  11.088  0.00  0.00    -0.002 C 
HETATM    6  C   UNK N   1      20.728  13.192  10.308  0.00  0.00     0.009 C 
ENDBRANCH   1   5
BRANCH   1   7
HETATM    7  C   UNK N   1      23.850  12.078  11.989  0.00  0.00     0.166 C 
HETATM    8  O   UNK N   1      23.586  11.998  13.179  0.00  0.00    -0.648 OA
BRANCH   7   9
HETATM    9  O   UNK N   1      25.120  12.306  11.604  0.00  0.00    -0.775 OA
HETATM   10  H   UNK N   1      25.516  13.139  11.769  0.00  0.00     0.167 HD
ENDBRANCH   7   9
ENDBRANCH   1   7
TORSDOF 4
ENDMDL
MODEL 5
REMARK VINA RESULT:      -3.7      4.033      4.668
REMARK  4 active torsions:
REMARK  status: ('A' for Active; 'I' for Inactive)
REMARK    1  A    between atoms: C_2  and  N_1 
REMARK    2  A    between atoms: C_2  and  C_3 
REMARK    3  A    between atoms: C_2  and  C_5 
REMARK    4  A    between atoms: C_5  and  O_6 
ROOT
HETATM    1  C   UNK N   1      34.823  15.036  11.316  0.00  0.00     0.196 C 
ENDROOT
BRANCH   1   2
HETATM    2  N   UNK N   1      33.453  15.049  10.835  0.00  0.00    -0.415 N 
HETATM    3  H   UNK N   1      32.774  14.389  11.211  0.00  0.00     0.151 HD
HETATM    4  H   UNK N   1      33.171  15.719  10.119  0.00  0.00     0.151 HD
ENDBRANCH   1   2
BRANCH   1   5
HETATM    5  C   UNK N   1      35.217  13.850  12.153  0.00  0.00    -0.002 C 
HETATM    6  C   UNK N   1      35.719  13.970  13.379  0.00  0.00     0.009 C 
ENDBRANCH   1   5
BRANCH   1   7
HETATM    7  C   UNK N   1      35.691  16.203  10.928  0.00  0.00     0.166 C 
HETATM    8  O   UNK N   1      35.197  17.292  10.676  0.00  0.00    -0.648 OA
BRANCH   7   9
HETATM    9  O   UNK N   1      37.028  16.048  10.856  0.00  0.00    -0.775 OA
HETATM   10  H   UNK N   1      37.392  15.200  10.695  0.00  0.00     0.167 HD
ENDBRANCH   7   9
ENDBRANCH   1   7
TORSDOF 4
ENDMDL
MODEL 6
REMARK VINA RESULT:      -3.5     11.762     12.337
REMARK  4 active torsions:
REMARK  status: ('A' for Active; 'I' for Inactive)
REMARK    1  A    between atoms: C_2  and  N_1 
REMARK    2  A    between atoms: C_2  and  C_3 
REMARK    3  A    between atoms: C_2  and  C_5 
REMARK    4  A    between atoms: C_5  and  O_6 
ROOT
HETATM    1  C   UNK N   1      44.463  22.022   3.476  0.00  0.00     0.196 C 
ENDROOT
BRANCH   1   2
HETATM    2  N   UNK N   1      45.723  22.173   4.183  0.00  0.00    -0.415 N 
HETATM    3  H   UNK N   1      45.740  22.164   5.203  0.00  0.00     0.151 HD
HETATM    4  H   UNK N   1      46.591  22.288   3.659  0.00  0.00     0.151 HD
ENDBRANCH   1   2
BRANCH   1   5
HETATM    5  C   UNK N   1      44.210  20.674   2.862  0.00  0.00    -0.002 C 
HETATM    6  C   UNK N   1      43.112  19.964   3.112  0.00  0.00     0.009 C 
ENDBRANCH   1   5
BRANCH   1   7
HETATM    7  C   UNK N   1      43.557  23.223   3.438  0.00  0.00     0.166 C 
HETATM    8  O   UNK N   1      42.853  23.443   2.463  0.00  0.00    -0.648 OA
BRANCH   7   9
HETATM    9  O   UNK N   1      43.520  24.068   4.487  0.00  0.00    -0.775 OA
HETATM   10  H   UNK N   1      42.890  24.761   4.507  0.00  0.00     0.167 HD
ENDBRANCH   7   9
ENDBRANCH   1   7
TORSDOF 4
ENDMDL
MODEL 7
REMARK VINA RESULT:      -3.4     12.725     13.643
REMARK  4 active torsions:
REMARK  status: ('A' for Active; 'I' for Inactive)
REMARK    1  A    between atoms: C_2  and  N_1 
REMARK    2  A    between atoms: C_2  and  C_3 
REMARK    3  A    between atoms: C_2  and  C_5 
REMARK    4  A    between atoms: C_5  and  O_6 
ROOT
HETATM    1  C   UNK N   1      21.349  12.407  10.759  0.00  0.00     0.196 C 
ENDROOT
BRANCH   1   2
HETATM    2  N   UNK N   1      20.557  11.861  11.848  0.00  0.00    -0.415 N 
HETATM    3  H   UNK N   1      20.913  11.077  12.394  0.00  0.00     0.151 HD
HETATM    4  H   UNK N   1      19.645  12.263  12.066  0.00  0.00     0.151 HD
ENDBRANCH   1   2
BRANCH   1   5
HETATM    5  C   UNK N   1      22.660  11.722  10.489  0.00  0.00    -0.002 C 
HETATM    6  C   UNK N   1      23.788  12.057  11.112  0.00  0.00     0.009 C 
ENDBRANCH   1   5
BRANCH   1   7
HETATM    7  C   UNK N   1      20.773  13.589  10.027  0.00  0.00     0.166 C 
HETATM    8  O   UNK N   1      19.563  13.733   9.928  0.00  0.00    -0.648 OA
BRANCH   7   9
HETATM    9  O   UNK N   1      21.597  14.499   9.473  0.00  0.00    -0.775 OA
HETATM   10  H   UNK N   1      21.294  15.371   9.316  0.00  0.00     0.167 HD
ENDBRANCH   7   9
ENDBRANCH   1   7
TORSDOF 4
ENDMDL
MODEL 8
REMARK VINA RESULT:      -3.4      7.548      8.014
REMARK  4 active torsions:
REMARK  status: ('A' for Active; 'I' for Inactive)
REMARK    1  A    between atoms: C_2  and  N_1 
REMARK    2  A    between atoms: C_2  and  C_3 
REMARK    3  A    between atoms: C_2  and  C_5 
REMARK    4  A    between atoms: C_5  and  O_6 
ROOT
HETATM    1  C   UNK N   1      36.372  13.791  15.006  0.00  0.00     0.196 C 
ENDROOT
BRANCH   1   2
HETATM    2  N   UNK N   1      37.310  14.800  15.467  0.00  0.00    -0.415 N 
HETATM    3  H   UNK N   1      38.299  14.572  15.561  0.00  0.00     0.151 HD
HETATM    4  H   UNK N   1      36.978  15.738  15.696  0.00  0.00     0.151 HD
ENDBRANCH   1   2
BRANCH   1   5
HETATM    5  C   UNK N   1      35.841  12.856  16.057  0.00  0.00    -0.002 C 
HETATM    6  C   UNK N   1      35.048  13.262  17.047  0.00  0.00     0.009 C 
ENDBRANCH   1   5
BRANCH   1   7
HETATM    7  C   UNK N   1      36.037  13.794  13.539  0.00  0.00     0.166 C 
HETATM    8  O   UNK N   1      34.877  13.705  13.163  0.00  0.00    -0.648 OA
BRANCH   7   9
HETATM    9  O   UNK N   1      37.024  13.894  12.628  0.00  0.00    -0.775 OA
HETATM   10  H   UNK N   1      36.993  14.568  11.977  0.00  0.00     0.167 HD
ENDBRANCH   7   9
ENDBRANCH   1   7
TORSDOF 4
ENDMDL
MODEL 9
REMARK VINA RESULT:      -3.2     11.895     12.211
REMARK  4 active torsions:
REMARK  status: ('A' for Active; 'I' for Inactive)
REMARK    1  A    between atoms: C_2  and  N_1 
REMARK    2  A    between atoms: C_2  and  C_3 
REMARK    3  A    between atoms: C_2  and  C_5 
REMARK    4  A    between atoms: C_5  and  O_6 
ROOT
HETATM    1  C   UNK N   1      43.166  22.823   3.215  0.00  0.00     0.196 C 
ENDROOT
BRANCH   1   2
HETATM    2  N   UNK N   1      43.630  24.031   3.875  0.00  0.00    -0.415 N 
HETATM    3  H   UNK N   1      42.958  24.716   4.216  0.00  0.00     0.151 HD
HETATM    4  H   UNK N   1      44.630  24.192   3.997  0.00  0.00     0.151 HD
ENDBRANCH   1   2
BRANCH   1   5
HETATM    5  C   UNK N   1      43.703  21.527   3.756  0.00  0.00    -0.002 C 
HETATM    6  C   UNK N   1      45.006  21.265   3.831  0.00  0.00     0.009 C 
ENDBRANCH   1   5
BRANCH   1   7
HETATM    7  C   UNK N   1      42.204  23.001   2.071  0.00  0.00     0.166 C 
HETATM    8  O   UNK N   1      42.254  22.269   1.094  0.00  0.00    -0.648 OA
BRANCH   7   9
HETATM    9  O   UNK N   1      41.277  23.978   2.121  0.00  0.00    -0.775 OA
HETATM   10  H   UNK N   1      40.499  23.911   1.604  0.00  0.00     0.167 HD
ENDBRANCH   7   9
ENDBRANCH   1   7
TORSDOF 4
ENDMDL
