MODEL 1
REMARK VINA RESULT:      -8.7      0.000      0.000
REMARK  9 active torsions:
REMARK  status: ('A' for Active; 'I' for Inactive)
REMARK       I    between atoms: N_1  and  C_2 
REMARK    1  A    between atoms: N_8  and  C_16 
REMARK    2  A    between atoms: C_12  and  O_13 
REMARK    3  A    between atoms: C_20  and  C_22 
REMARK       I    between atoms: C_22  and  N_24 
REMARK    4  A    between atoms: N_24  and  C_25 
REMARK    5  A    between atoms: C_25  and  C_26 
REMARK    6  A    between atoms: C_31  and  S_32 
REMARK    7  A    between atoms: S_32  and  C_33 
REMARK    8  A    between atoms: C_38  and  C_39 
REMARK    9  A    between atoms: C_39  and  O_40 
ROOT
HETATM    1  C   UNK N   1      21.779  17.532   5.173  0.00  0.00     0.075 A 
HETATM    2  C   UNK N   1      20.846  17.096   4.220  0.00  0.00     0.033 A 
HETATM    3  C   UNK N   1      19.702  16.394   4.664  0.00  0.00     0.003 A 
HETATM    4  C   UNK N   1      19.507  16.141   6.041  0.00  0.00     0.017 A 
HETATM    5  C   UNK N   1      20.433  16.646   6.971  0.00  0.00     0.034 A 
HETATM    6  C   UNK N   1      21.532  17.319   6.511  0.00  0.00     0.050 A 
ENDROOT
BRANCH   5   7
HETATM    7  C   UNK N   1      20.355  16.516   8.440  0.00  0.00     0.252 C 
HETATM    8  O   UNK N   1      19.918  17.457   9.085  0.00  0.00    -0.268 OA
HETATM    9  N   UNK N   1      20.842  15.465   9.118  0.00  0.00    -0.353 N 
HETATM   10  H   UNK N   1      20.682  15.444  10.089  0.00  0.00     0.163 HD
BRANCH   9  11
HETATM   11  C   UNK N   1      21.572  14.370   8.554  0.00  0.00     0.162 C 
BRANCH  11  12
HETATM   12  C   UNK N   1      21.732  13.441   9.674  0.00  0.00    -0.023 A 
HETATM   13  C   UNK N   1      20.561  13.064  10.339  0.00  0.00     0.010 A 
HETATM   14  C   UNK N   1      20.618  12.259  11.469  0.00  0.00     0.001 A 
HETATM   15  C   UNK N   1      21.855  11.842  11.957  0.00  0.00     0.001 A 
HETATM   16  C   UNK N   1      23.033  12.207  11.296  0.00  0.00     0.019 A 
HETATM   17  C   UNK N   1      23.004  13.016  10.152  0.00  0.00     0.013 A 
BRANCH  17  18
HETATM   18  S   UNK N   1      24.607  13.255   9.282  0.00  0.00    -0.089 SA
BRANCH  18  19
HETATM   19  C   UNK N   1      24.562  12.620   7.572  0.00  0.00     0.014 A 
HETATM   20  C   UNK N   1      23.958  11.369   7.378  0.00  0.00     0.019 A 
HETATM   21  C   UNK N   1      23.961  10.743   6.131  0.00  0.00     0.001 A 
HETATM   22  C   UNK N   1      24.598  11.345   5.052  0.00  0.00     0.001 A 
HETATM   23  C   UNK N   1      25.241  12.569   5.223  0.00  0.00     0.011 A 
HETATM   24  C   UNK N   1      25.249  13.221   6.466  0.00  0.00    -0.018 A 
BRANCH  24  25
HETATM   25  C   UNK N   1      26.048  14.499   6.507  0.00  0.00     0.204 C 
BRANCH  25  26
HETATM   26  O   UNK N   1      25.309  15.633   6.826  0.00  0.00    -0.396 OA
HETATM   27  H   UNK N   1      24.524  15.647   7.395  0.00  0.00     0.209 HD
ENDBRANCH  25  26
ENDBRANCH  24  25
ENDBRANCH  18  19
ENDBRANCH  17  18
ENDBRANCH  11  12
ENDBRANCH   9  11
ENDBRANCH   5   7
BRANCH   1  28
HETATM   28  N   UNK N   1      23.037  18.127   4.864  0.00  0.00    -0.195 N 
HETATM   29  N   UNK N   1      24.220  17.897   5.434  0.00  0.00    -0.261 N 
HETATM   30  C   UNK N   1      25.080  18.689   4.760  0.00  0.00     0.170 A 
ATOM     31  HN  UNK N   1      24.428  17.265   6.207  1.00  0.00     0.191 HD
HETATM   32  N   UNK N   1      26.420  18.816   4.909  0.00  0.00    -0.173 N 
HETATM   33  C   UNK N   1      24.399  19.383   3.831  0.00  0.00     0.147 A 
HETATM   34  C   UNK N   1      27.073  19.695   4.075  0.00  0.00     0.679 A 
ATOM     35  HN  UNK N   1      26.925  18.280   5.613  1.00  0.00     0.186 HD
HETATM   36  N   UNK N   1      28.469  19.842   4.167  0.00  0.00    -0.234 N 
HETATM   37  N   UNK N   1      26.374  20.427   3.139  0.00  0.00    -0.168 N 
HETATM   38  H   UNK N   1      28.983  19.279   4.790  0.00  0.00     0.174 HD
HETATM   39  H   UNK N   1      28.932  20.508   3.609  0.00  0.00     0.174 HD
HETATM   40  C   UNK N   1      25.026  20.283   3.005  0.00  0.00     0.187 A 
ATOM     41  HN  UNK N   1      26.874  21.084   2.540  1.00  0.00     0.186 HD
HETATM   42  N   UNK N   1      23.125  19.030   3.889  0.00  0.00    -0.272 N 
ATOM     43  HN  UNK N   1      22.366  19.378   3.305  1.00  0.00     0.189 HD
BRANCH  40  44
HETATM   44  O   UNK N   1      24.337  20.995   2.095  0.00  0.00    -0.344 OA
HETATM   45  H   UNK N   1      23.527  20.669   1.757  0.00  0.00     0.219 HD
ENDBRANCH  40  44
ENDBRANCH   1  28
TORSDOF 9
ENDMDL
MODEL 2
REMARK VINA RESULT:      -8.7      8.685     12.494
REMARK  9 active torsions:
REMARK  status: ('A' for Active; 'I' for Inactive)
REMARK       I    between atoms: N_1  and  C_2 
REMARK    1  A    between atoms: N_8  and  C_16 
REMARK    2  A    between atoms: C_12  and  O_13 
REMARK    3  A    between atoms: C_20  and  C_22 
REMARK       I    between atoms: C_22  and  N_24 
REMARK    4  A    between atoms: N_24  and  C_25 
REMARK    5  A    between atoms: C_25  and  C_26 
REMARK    6  A    between atoms: C_31  and  S_32 
REMARK    7  A    between atoms: S_32  and  C_33 
REMARK    8  A    between atoms: C_38  and  C_39 
REMARK    9  A    between atoms: C_39  and  O_40 
ROOT
HETATM    1  C   UNK N   1      35.557  14.704   9.044  0.00  0.00     0.075 A 
HETATM    2  C   UNK N   1      35.877  13.807   8.014  0.00  0.00     0.033 A 
HETATM    3  C   UNK N   1      35.552  14.158   6.684  0.00  0.00     0.003 A 
HETATM    4  C   UNK N   1      34.918  15.391   6.404  0.00  0.00     0.017 A 
HETATM    5  C   UNK N   1      34.668  16.290   7.456  0.00  0.00     0.034 A 
HETATM    6  C   UNK N   1      34.993  15.920   8.733  0.00  0.00     0.050 A 
ENDROOT
BRANCH   5   7
HETATM    7  C   UNK N   1      34.063  17.632   7.333  0.00  0.00     0.252 C 
HETATM    8  O   UNK N   1      34.763  18.608   7.557  0.00  0.00    -0.268 OA
HETATM    9  N   UNK N   1      32.758  17.838   7.098  0.00  0.00    -0.353 N 
HETATM   10  H   UNK N   1      32.467  18.769   6.970  0.00  0.00     0.163 HD
BRANCH   9  11
HETATM   11  C   UNK N   1      31.751  16.822   7.018  0.00  0.00     0.162 C 
BRANCH  11  12
HETATM   12  C   UNK N   1      30.574  17.446   7.624  0.00  0.00    -0.023 A 
HETATM   13  C   UNK N   1      30.700  17.838   8.961  0.00  0.00     0.010 A 
HETATM   14  C   UNK N   1      29.611  18.354   9.651  0.00  0.00     0.001 A 
HETATM   15  C   UNK N   1      28.378  18.461   9.012  0.00  0.00     0.001 A 
HETATM   16  C   UNK N   1      28.241  18.079   7.673  0.00  0.00     0.019 A 
HETATM   17  C   UNK N   1      29.325  17.557   6.953  0.00  0.00     0.013 A 
BRANCH  17  18
HETATM   18  S   UNK N   1      29.048  17.278   5.155  0.00  0.00    -0.089 SA
BRANCH  18  19
HETATM   19  C   UNK N   1      27.581  18.171   4.540  0.00  0.00     0.014 A 
HETATM   20  C   UNK N   1      27.768  19.507   4.158  0.00  0.00     0.019 A 
HETATM   21  C   UNK N   1      26.696  20.313   3.772  0.00  0.00     0.001 A 
HETATM   22  C   UNK N   1      25.402  19.804   3.789  0.00  0.00     0.001 A 
HETATM   23  C   UNK N   1      25.180  18.492   4.202  0.00  0.00     0.011 A 
HETATM   24  C   UNK N   1      26.241  17.660   4.591  0.00  0.00    -0.018 A 
BRANCH  24  25
HETATM   25  C   UNK N   1      25.831  16.294   5.081  0.00  0.00     0.204 C 
BRANCH  25  26
HETATM   26  O   UNK N   1      25.049  16.303   6.231  0.00  0.00    -0.396 OA
HETATM   27  H   UNK N   1      25.251  16.799   7.040  0.00  0.00     0.209 HD
ENDBRANCH  25  26
ENDBRANCH  24  25
ENDBRANCH  18  19
ENDBRANCH  17  18
ENDBRANCH  11  12
ENDBRANCH   9  11
ENDBRANCH   5   7
BRANCH   1  28
HETATM   28  N   UNK N   1      35.700  14.426  10.435  0.00  0.00    -0.195 N 
HETATM   29  N   UNK N   1      36.433  15.082  11.335  0.00  0.00    -0.261 N 
HETATM   30  C   UNK N   1      36.199  14.436  12.497  0.00  0.00     0.170 A 
ATOM     31  HN  UNK N   1      37.036  15.890  11.181  1.00  0.00     0.191 HD
HETATM   32  N   UNK N   1      36.665  14.713  13.737  0.00  0.00    -0.173 N 
HETATM   33  C   UNK N   1      35.363  13.408  12.265  0.00  0.00     0.147 A 
HETATM   34  C   UNK N   1      36.258  13.897  14.769  0.00  0.00     0.679 A 
ATOM     35  HN  UNK N   1      37.294  15.499  13.901  1.00  0.00     0.186 HD
HETATM   36  N   UNK N   1      36.689  14.160  16.082  0.00  0.00    -0.234 N 
HETATM   37  N   UNK N   1      35.423  12.828  14.530  0.00  0.00    -0.168 N 
HETATM   38  H   UNK N   1      37.236  14.956  16.270  0.00  0.00     0.174 HD
HETATM   39  H   UNK N   1      36.444  13.547  16.812  0.00  0.00     0.174 HD
HETATM   40  C   UNK N   1      34.963  12.566  13.274  0.00  0.00     0.187 A 
ATOM     41  HN  UNK N   1      35.144  12.225  15.305  1.00  0.00     0.186 HD
HETATM   42  N   UNK N   1      35.045  13.403  10.981  0.00  0.00    -0.272 N 
ATOM     43  HN  UNK N   1      34.424  12.749  10.506  1.00  0.00     0.189 HD
BRANCH  40  44
HETATM   44  O   UNK N   1      34.149  11.523  13.034  0.00  0.00    -0.344 OA
HETATM   45  H   UNK N   1      33.794  11.391  12.177  0.00  0.00     0.219 HD
ENDBRANCH  40  44
ENDBRANCH   1  28
TORSDOF 9
ENDMDL
MODEL 3
REMARK VINA RESULT:      -8.7      3.259      8.046
REMARK  9 active torsions:
REMARK  status: ('A' for Active; 'I' for Inactive)
REMARK       I    between atoms: N_1  and  C_2 
REMARK    1  A    between atoms: N_8  and  C_16 
REMARK    2  A    between atoms: C_12  and  O_13 
REMARK    3  A    between atoms: C_20  and  C_22 
REMARK       I    between atoms: C_22  and  N_24 
REMARK    4  A    between atoms: N_24  and  C_25 
REMARK    5  A    between atoms: C_25  and  C_26 
REMARK    6  A    between atoms: C_31  and  S_32 
REMARK    7  A    between atoms: S_32  and  C_33 
REMARK    8  A    between atoms: C_38  and  C_39 
REMARK    9  A    between atoms: C_39  and  O_40 
ROOT
HETATM    1  C   UNK N   1      21.550  14.468   6.987  0.00  0.00     0.075 A 
HETATM    2  C   UNK N   1      20.796  13.830   5.990  0.00  0.00     0.033 A 
HETATM    3  C   UNK N   1      20.366  14.588   4.878  0.00  0.00     0.003 A 
HETATM    4  C   UNK N   1      20.692  15.960   4.777  0.00  0.00     0.017 A 
HETATM    5  C   UNK N   1      21.500  16.550   5.765  0.00  0.00     0.034 A 
HETATM    6  C   UNK N   1      21.900  15.790   6.831  0.00  0.00     0.050 A 
ENDROOT
BRANCH   5   7
HETATM    7  C   UNK N   1      21.973  17.948   5.787  0.00  0.00     0.252 C 
HETATM    8  O   UNK N   1      21.171  18.830   6.055  0.00  0.00    -0.268 OA
HETATM    9  N   UNK N   1      23.211  18.318   5.420  0.00  0.00    -0.353 N 
HETATM   10  H   UNK N   1      23.447  19.267   5.532  0.00  0.00     0.163 HD
BRANCH   9  11
HETATM   11  C   UNK N   1      24.217  17.455   4.880  0.00  0.00     0.162 C 
BRANCH  11  12
HETATM   12  C   UNK N   1      25.332  18.356   4.586  0.00  0.00    -0.023 A 
HETATM   13  C   UNK N   1      25.013  19.536   3.907  0.00  0.00     0.010 A 
HETATM   14  C   UNK N   1      26.013  20.411   3.502  0.00  0.00     0.001 A 
HETATM   15  C   UNK N   1      27.347  20.099   3.756  0.00  0.00     0.001 A 
HETATM   16  C   UNK N   1      27.678  18.924   4.441  0.00  0.00     0.019 A 
HETATM   17  C   UNK N   1      26.688  18.025   4.863  0.00  0.00     0.013 A 
BRANCH  17  18
HETATM   18  S   UNK N   1      27.254  16.626   5.915  0.00  0.00    -0.089 SA
BRANCH  18  19
HETATM   19  C   UNK N   1      28.906  16.928   6.629  0.00  0.00     0.014 A 
HETATM   20  C   UNK N   1      29.947  16.103   6.182  0.00  0.00     0.019 A 
HETATM   21  C   UNK N   1      31.226  16.176   6.736  0.00  0.00     0.001 A 
HETATM   22  C   UNK N   1      31.483  17.062   7.777  0.00  0.00     0.001 A 
HETATM   23  C   UNK N   1      30.457  17.866   8.270  0.00  0.00     0.011 A 
HETATM   24  C   UNK N   1      29.164  17.813   7.727  0.00  0.00    -0.018 A 
BRANCH  24  25
HETATM   25  C   UNK N   1      28.150  18.690   8.417  0.00  0.00     0.204 C 
BRANCH  25  26
HETATM   26  O   UNK N   1      27.455  18.068   9.449  0.00  0.00    -0.396 OA
HETATM   27  H   UNK N   1      26.852  18.514  10.065  0.00  0.00     0.209 HD
ENDBRANCH  25  26
ENDBRANCH  24  25
ENDBRANCH  18  19
ENDBRANCH  17  18
ENDBRANCH  11  12
ENDBRANCH   9  11
ENDBRANCH   5   7
BRANCH   1  28
HETATM   28  N   UNK N   1      21.934  13.868   8.223  0.00  0.00    -0.195 N 
HETATM   29  N   UNK N   1      21.152  13.303   9.142  0.00  0.00    -0.261 N 
HETATM   30  C   UNK N   1      22.007  12.873  10.094  0.00  0.00     0.170 A 
ATOM     31  HN  UNK N   1      20.135  13.217   9.130  1.00  0.00     0.191 HD
HETATM   32  N   UNK N   1      21.742  12.194  11.235  0.00  0.00    -0.173 N 
HETATM   33  C   UNK N   1      23.260  13.206   9.740  0.00  0.00     0.147 A 
HETATM   34  C   UNK N   1      22.808  11.857  12.038  0.00  0.00     0.679 A 
ATOM     35  HN  UNK N   1      20.787  11.942  11.490  1.00  0.00     0.186 HD
HETATM   36  N   UNK N   1      22.591  11.125  13.220  0.00  0.00    -0.234 N 
HETATM   37  N   UNK N   1      24.091  12.220  11.691  0.00  0.00    -0.168 N 
HETATM   38  H   UNK N   1      21.687  10.810  13.444  0.00  0.00     0.174 HD
HETATM   39  H   UNK N   1      23.345  10.929  13.823  0.00  0.00     0.174 HD
HETATM   40  C   UNK N   1      24.337  12.902  10.537  0.00  0.00     0.187 A 
ATOM     41  HN  UNK N   1      24.867  11.975  12.306  1.00  0.00     0.186 HD
HETATM   42  N   UNK N   1      23.219  13.822   8.570  0.00  0.00    -0.272 N 
ATOM     43  HN  UNK N   1      24.010  14.187   8.041  1.00  0.00     0.189 HD
BRANCH  40  44
HETATM   44  O   UNK N   1      25.586  13.262  10.192  0.00  0.00    -0.344 OA
HETATM   45  H   UNK N   1      26.323  12.864  10.612  0.00  0.00     0.219 HD
ENDBRANCH  40  44
ENDBRANCH   1  28
TORSDOF 9
ENDMDL
MODEL 4
REMARK VINA RESULT:      -8.6      9.184     12.740
REMARK  9 active torsions:
REMARK  status: ('A' for Active; 'I' for Inactive)
REMARK       I    between atoms: N_1  and  C_2 
REMARK    1  A    between atoms: N_8  and  C_16 
REMARK    2  A    between atoms: C_12  and  O_13 
REMARK    3  A    between atoms: C_20  and  C_22 
REMARK       I    between atoms: C_22  and  N_24 
REMARK    4  A    between atoms: N_24  and  C_25 
REMARK    5  A    between atoms: C_25  and  C_26 
REMARK    6  A    between atoms: C_31  and  S_32 
REMARK    7  A    between atoms: S_32  and  C_33 
REMARK    8  A    between atoms: C_38  and  C_39 
REMARK    9  A    between atoms: C_39  and  O_40 
ROOT
HETATM    1  C   UNK N   1      35.676  14.578   9.126  0.00  0.00     0.075 A 
HETATM    2  C   UNK N   1      36.100  13.704   8.115  0.00  0.00     0.033 A 
HETATM    3  C   UNK N   1      35.801  14.026   6.772  0.00  0.00     0.003 A 
HETATM    4  C   UNK N   1      35.090  15.208   6.460  0.00  0.00     0.017 A 
HETATM    5  C   UNK N   1      34.735  16.090   7.496  0.00  0.00     0.034 A 
HETATM    6  C   UNK N   1      35.037  15.749   8.786  0.00  0.00     0.050 A 
ENDROOT
BRANCH   5   7
HETATM    7  C   UNK N   1      34.039  17.383   7.342  0.00  0.00     0.252 C 
HETATM    8  O   UNK N   1      34.712  18.400   7.261  0.00  0.00    -0.268 OA
HETATM    9  N   UNK N   1      32.705  17.518   7.398  0.00  0.00    -0.353 N 
HETATM   10  H   UNK N   1      32.337  18.414   7.220  0.00  0.00     0.163 HD
BRANCH   9  11
HETATM   11  C   UNK N   1      31.770  16.476   7.696  0.00  0.00     0.162 C 
BRANCH  11  12
HETATM   12  C   UNK N   1      30.510  17.187   7.921  0.00  0.00    -0.023 A 
HETATM   13  C   UNK N   1      30.475  18.053   9.019  0.00  0.00     0.010 A 
HETATM   14  C   UNK N   1      29.298  18.702   9.369  0.00  0.00     0.001 A 
HETATM   15  C   UNK N   1      28.138  18.472   8.633  0.00  0.00     0.001 A 
HETATM   16  C   UNK N   1      28.163  17.613   7.528  0.00  0.00     0.019 A 
HETATM   17  C   UNK N   1      29.338  16.947   7.152  0.00  0.00     0.013 A 
BRANCH  17  18
HETATM   18  S   UNK N   1      29.269  16.006   5.572  0.00  0.00    -0.089 SA
BRANCH  18  19
HETATM   19  C   UNK N   1      30.869  16.017   4.696  0.00  0.00     0.014 A 
HETATM   20  C   UNK N   1      31.238  17.216   4.070  0.00  0.00     0.019 A 
HETATM   21  C   UNK N   1      32.389  17.307   3.286  0.00  0.00     0.001 A 
HETATM   22  C   UNK N   1      33.183  16.183   3.085  0.00  0.00     0.001 A 
HETATM   23  C   UNK N   1      32.821  14.967   3.661  0.00  0.00     0.011 A 
HETATM   24  C   UNK N   1      31.670  14.851   4.457  0.00  0.00    -0.018 A 
BRANCH  24  25
HETATM   25  C   UNK N   1      31.374  13.456   4.946  0.00  0.00     0.204 C 
BRANCH  25  26
HETATM   26  O   UNK N   1      32.079  13.082   6.085  0.00  0.00    -0.396 OA
HETATM   27  H   UNK N   1      32.313  12.171   6.324  0.00  0.00     0.209 HD
ENDBRANCH  25  26
ENDBRANCH  24  25
ENDBRANCH  18  19
ENDBRANCH  17  18
ENDBRANCH  11  12
ENDBRANCH   9  11
ENDBRANCH   5   7
BRANCH   1  28
HETATM   28  N   UNK N   1      35.786  14.317  10.524  0.00  0.00    -0.195 N 
HETATM   29  N   UNK N   1      36.509  14.973  11.431  0.00  0.00    -0.261 N 
HETATM   30  C   UNK N   1      36.240  14.345  12.595  0.00  0.00     0.170 A 
ATOM     31  HN  UNK N   1      37.127  15.770  11.279  1.00  0.00     0.191 HD
HETATM   32  N   UNK N   1      36.685  14.632  13.842  0.00  0.00    -0.173 N 
HETATM   33  C   UNK N   1      35.394  13.328  12.359  0.00  0.00     0.147 A 
HETATM   34  C   UNK N   1      36.244  13.835  14.875  0.00  0.00     0.679 A 
ATOM     35  HN  UNK N   1      37.322  15.411  14.009  1.00  0.00     0.186 HD
HETATM   36  N   UNK N   1      36.651  14.109  16.193  0.00  0.00    -0.234 N 
HETATM   37  N   UNK N   1      35.398  12.775  14.632  0.00  0.00    -0.168 N 
HETATM   38  H   UNK N   1      37.206  14.899  16.382  0.00  0.00     0.174 HD
HETATM   39  H   UNK N   1      36.381  13.509  16.926  0.00  0.00     0.174 HD
HETATM   40  C   UNK N   1      34.961  12.504  13.370  0.00  0.00     0.187 A 
ATOM     41  HN  UNK N   1      35.094  12.187  15.408  1.00  0.00     0.186 HD
HETATM   42  N   UNK N   1      35.103  13.310  11.069  0.00  0.00    -0.272 N 
ATOM     43  HN  UNK N   1      34.483  12.660  10.588  1.00  0.00     0.189 HD
BRANCH  40  44
HETATM   44  O   UNK N   1      34.136  11.471  13.125  0.00  0.00    -0.344 OA
HETATM   45  H   UNK N   1      34.479  10.661  12.800  0.00  0.00     0.219 HD
ENDBRANCH  40  44
ENDBRANCH   1  28
TORSDOF 9
ENDMDL
MODEL 5
REMARK VINA RESULT:      -8.5      6.650     10.624
REMARK  9 active torsions:
REMARK  status: ('A' for Active; 'I' for Inactive)
REMARK       I    between atoms: N_1  and  C_2 
REMARK    1  A    between atoms: N_8  and  C_16 
REMARK    2  A    between atoms: C_12  and  O_13 
REMARK    3  A    between atoms: C_20  and  C_22 
REMARK       I    between atoms: C_22  and  N_24 
REMARK    4  A    between atoms: N_24  and  C_25 
REMARK    5  A    between atoms: C_25  and  C_26 
REMARK    6  A    between atoms: C_31  and  S_32 
REMARK    7  A    between atoms: S_32  and  C_33 
REMARK    8  A    between atoms: C_38  and  C_39 
REMARK    9  A    between atoms: C_39  and  O_40 
ROOT
HETATM    1  C   UNK N   1      33.018  16.157   5.858  0.00  0.00     0.075 A 
HETATM    2  C   UNK N   1      33.237  17.419   5.287  0.00  0.00     0.033 A 
HETATM    3  C   UNK N   1      32.930  17.608   3.921  0.00  0.00     0.003 A 
HETATM    4  C   UNK N   1      32.411  16.542   3.150  0.00  0.00     0.017 A 
HETATM    5  C   UNK N   1      32.147  15.308   3.772  0.00  0.00     0.034 A 
HETATM    6  C   UNK N   1      32.458  15.156   5.096  0.00  0.00     0.050 A 
ENDROOT
BRANCH   5   7
HETATM    7  C   UNK N   1      31.563  14.114   3.130  0.00  0.00     0.252 C 
HETATM    8  O   UNK N   1      32.289  13.156   2.913  0.00  0.00    -0.268 OA
HETATM    9  N   UNK N   1      30.303  14.061   2.669  0.00  0.00    -0.353 N 
HETATM   10  H   UNK N   1      29.990  13.197   2.316  0.00  0.00     0.163 HD
BRANCH   9  11
HETATM   11  C   UNK N   1      29.374  15.151   2.645  0.00  0.00     0.162 C 
BRANCH  11  12
HETATM   12  C   UNK N   1      28.519  14.908   3.808  0.00  0.00    -0.023 A 
HETATM   13  C   UNK N   1      27.833  13.690   3.829  0.00  0.00     0.010 A 
HETATM   14  C   UNK N   1      26.927  13.407   4.843  0.00  0.00     0.001 A 
HETATM   15  C   UNK N   1      26.684  14.354   5.835  0.00  0.00     0.001 A 
HETATM   16  C   UNK N   1      27.369  15.574   5.828  0.00  0.00     0.019 A 
HETATM   17  C   UNK N   1      28.291  15.884   4.818  0.00  0.00     0.013 A 
BRANCH  17  18
HETATM   18  S   UNK N   1      29.254  17.436   5.043  0.00  0.00    -0.089 SA
BRANCH  18  19
HETATM   19  C   UNK N   1      28.203  18.823   5.590  0.00  0.00     0.014 A 
HETATM   20  C   UNK N   1      27.825  19.753   4.611  0.00  0.00     0.019 A 
HETATM   21  C   UNK N   1      27.111  20.907   4.937  0.00  0.00     0.001 A 
HETATM   22  C   UNK N   1      26.785  21.171   6.263  0.00  0.00     0.001 A 
HETATM   23  C   UNK N   1      27.182  20.286   7.263  0.00  0.00     0.011 A 
HETATM   24  C   UNK N   1      27.898  19.116   6.960  0.00  0.00    -0.018 A 
BRANCH  24  25
HETATM   25  C   UNK N   1      28.318  18.301   8.157  0.00  0.00     0.204 C 
BRANCH  25  26
HETATM   26  O   UNK N   1      27.502  18.450   9.273  0.00  0.00    -0.396 OA
HETATM   27  H   UNK N   1      27.332  19.287   9.734  0.00  0.00     0.209 HD
ENDBRANCH  25  26
ENDBRANCH  24  25
ENDBRANCH  18  19
ENDBRANCH  17  18
ENDBRANCH  11  12
ENDBRANCH   9  11
ENDBRANCH   5   7
BRANCH   1  28
HETATM   28  N   UNK N   1      33.406  15.784   7.178  0.00  0.00    -0.195 N 
HETATM   29  N   UNK N   1      33.151  14.646   7.822  0.00  0.00    -0.261 N 
HETATM   30  C   UNK N   1      33.760  14.790   9.018  0.00  0.00     0.170 A 
ATOM     31  HN  UNK N   1      32.615  13.845   7.487  1.00  0.00     0.191 HD
HETATM   32  N   UNK N   1      33.846  13.911  10.044  0.00  0.00    -0.173 N 
HETATM   33  C   UNK N   1      34.336  16.003   9.072  0.00  0.00     0.147 A 
HETATM   34  C   UNK N   1      34.545  14.303  11.163  0.00  0.00     0.679 A 
ATOM     35  HN  UNK N   1      33.409  12.991   9.989  1.00  0.00     0.186 HD
HETATM   36  N   UNK N   1      34.690  13.416  12.245  0.00  0.00    -0.234 N 
HETATM   37  N   UNK N   1      35.115  15.556  11.232  0.00  0.00    -0.168 N 
HETATM   38  H   UNK N   1      34.339  12.499  12.180  0.00  0.00     0.174 HD
HETATM   39  H   UNK N   1      35.143  13.713  13.067  0.00  0.00     0.174 HD
HETATM   40  C   UNK N   1      35.018  16.426  10.187  0.00  0.00     0.187 A 
ATOM     41  HN  UNK N   1      35.616  15.834  12.075  1.00  0.00     0.186 HD
HETATM   42  N   UNK N   1      34.123  16.624   7.923  0.00  0.00    -0.272 N 
ATOM     43  HN  UNK N   1      34.444  17.556   7.661  1.00  0.00     0.189 HD
BRANCH  40  44
HETATM   44  O   UNK N   1      35.570  17.651  10.247  0.00  0.00    -0.344 OA
HETATM   45  H   UNK N   1      36.027  17.924  11.018  0.00  0.00     0.219 HD
ENDBRANCH  40  44
ENDBRANCH   1  28
TORSDOF 9
ENDMDL
MODEL 6
REMARK VINA RESULT:      -8.3      9.385     13.393
REMARK  9 active torsions:
REMARK  status: ('A' for Active; 'I' for Inactive)
REMARK       I    between atoms: N_1  and  C_2 
REMARK    1  A    between atoms: N_8  and  C_16 
REMARK    2  A    between atoms: C_12  and  O_13 
REMARK    3  A    between atoms: C_20  and  C_22 
REMARK       I    between atoms: C_22  and  N_24 
REMARK    4  A    between atoms: N_24  and  C_25 
REMARK    5  A    between atoms: C_25  and  C_26 
REMARK    6  A    between atoms: C_31  and  S_32 
REMARK    7  A    between atoms: S_32  and  C_33 
REMARK    8  A    between atoms: C_38  and  C_39 
REMARK    9  A    between atoms: C_39  and  O_40 
ROOT
HETATM    1  C   UNK N   1      34.790  14.871  10.987  0.00  0.00     0.075 A 
HETATM    2  C   UNK N   1      35.156  16.216  10.828  0.00  0.00     0.033 A 
HETATM    3  C   UNK N   1      34.960  16.826   9.568  0.00  0.00     0.003 A 
HETATM    4  C   UNK N   1      34.406  16.091   8.495  0.00  0.00     0.017 A 
HETATM    5  C   UNK N   1      33.996  14.763   8.710  0.00  0.00     0.034 A 
HETATM    6  C   UNK N   1      34.201  14.200   9.940  0.00  0.00     0.050 A 
ENDROOT
BRANCH   5   7
HETATM    7  C   UNK N   1      33.357  13.875   7.718  0.00  0.00     0.252 C 
HETATM    8  O   UNK N   1      33.929  12.840   7.411  0.00  0.00    -0.268 OA
HETATM    9  N   UNK N   1      32.236  14.193   7.051  0.00  0.00    -0.353 N 
HETATM   10  H   UNK N   1      31.856  13.505   6.459  0.00  0.00     0.163 HD
BRANCH   9  11
HETATM   11  C   UNK N   1      31.546  15.445   7.124  0.00  0.00     0.162 C 
BRANCH  11  12
HETATM   12  C   UNK N   1      31.658  15.988   5.770  0.00  0.00    -0.023 A 
HETATM   13  C   UNK N   1      32.930  15.946   5.189  0.00  0.00     0.010 A 
HETATM   14  C   UNK N   1      33.157  16.519   3.944  0.00  0.00     0.001 A 
HETATM   15  C   UNK N   1      32.115  17.161   3.280  0.00  0.00     0.001 A 
HETATM   16  C   UNK N   1      30.837  17.204   3.848  0.00  0.00     0.019 A 
HETATM   17  C   UNK N   1      30.579  16.631   5.102  0.00  0.00     0.013 A 
BRANCH  17  18
HETATM   18  S   UNK N   1      28.818  16.595   5.634  0.00  0.00    -0.089 SA
BRANCH  18  19
HETATM   19  C   UNK N   1      28.103  18.269   5.754  0.00  0.00     0.014 A 
HETATM   20  C   UNK N   1      27.772  18.903   4.548  0.00  0.00     0.019 A 
HETATM   21  C   UNK N   1      27.318  20.222   4.516  0.00  0.00     0.001 A 
HETATM   22  C   UNK N   1      27.211  20.949   5.697  0.00  0.00     0.001 A 
HETATM   23  C   UNK N   1      27.570  20.359   6.907  0.00  0.00     0.011 A 
HETATM   24  C   UNK N   1      28.027  19.033   6.966  0.00  0.00    -0.018 A 
BRANCH  24  25
HETATM   25  C   UNK N   1      28.445  18.565   8.336  0.00  0.00     0.204 C 
BRANCH  25  26
HETATM   26  O   UNK N   1      27.392  18.352   9.220  0.00  0.00    -0.396 OA
HETATM   27  H   UNK N   1      26.451  18.446   9.003  0.00  0.00     0.209 HD
ENDBRANCH  25  26
ENDBRANCH  24  25
ENDBRANCH  18  19
ENDBRANCH  17  18
ENDBRANCH  11  12
ENDBRANCH   9  11
ENDBRANCH   5   7
BRANCH   1  28
HETATM   28  N   UNK N   1      35.054  14.091  12.152  0.00  0.00    -0.195 N 
HETATM   29  N   UNK N   1      34.535  12.910  12.487  0.00  0.00    -0.261 N 
HETATM   30  C   UNK N   1      35.132  12.599  13.657  0.00  0.00     0.170 A 
ATOM     31  HN  UNK N   1      33.843  12.363  11.974  1.00  0.00     0.191 HD
HETATM   32  N   UNK N   1      34.995  11.486  14.416  0.00  0.00    -0.173 N 
HETATM   33  C   UNK N   1      35.963  13.597  14.003  0.00  0.00     0.147 A 
HETATM   34  C   UNK N   1      35.736  11.408  15.573  0.00  0.00     0.679 A 
ATOM     35  HN  UNK N   1      34.365  10.733  14.139  1.00  0.00     0.186 HD
HETATM   36  N   UNK N   1      35.654  10.260  16.382  0.00  0.00    -0.234 N 
HETATM   37  N   UNK N   1      36.569  12.442  15.944  0.00  0.00    -0.168 N 
HETATM   38  H   UNK N   1      35.109   9.494  16.094  0.00  0.00     0.174 HD
HETATM   39  H   UNK N   1      36.141  10.225  17.237  0.00  0.00     0.174 HD
HETATM   40  C   UNK N   1      36.694  13.553  15.166  0.00  0.00     0.187 A 
ATOM     41  HN  UNK N   1      37.099  12.373  16.813  1.00  0.00     0.186 HD
HETATM   42  N   UNK N   1      35.922  14.527  13.063  0.00  0.00    -0.272 N 
ATOM     43  HN  UNK N   1      36.448  15.400  13.041  1.00  0.00     0.189 HD
BRANCH  40  44
HETATM   44  O   UNK N   1      37.503  14.566  15.522  0.00  0.00    -0.344 OA
HETATM   45  H   UNK N   1      37.220  15.453  15.420  0.00  0.00     0.219 HD
ENDBRANCH  40  44
ENDBRANCH   1  28
TORSDOF 9
ENDMDL
MODEL 7
REMARK VINA RESULT:      -8.3      9.600     13.566
REMARK  9 active torsions:
REMARK  status: ('A' for Active; 'I' for Inactive)
REMARK       I    between atoms: N_1  and  C_2 
REMARK    1  A    between atoms: N_8  and  C_16 
REMARK    2  A    between atoms: C_12  and  O_13 
REMARK    3  A    between atoms: C_20  and  C_22 
REMARK       I    between atoms: C_22  and  N_24 
REMARK    4  A    between atoms: N_24  and  C_25 
REMARK    5  A    between atoms: C_25  and  C_26 
REMARK    6  A    between atoms: C_31  and  S_32 
REMARK    7  A    between atoms: S_32  and  C_33 
REMARK    8  A    between atoms: C_38  and  C_39 
REMARK    9  A    between atoms: C_39  and  O_40 
ROOT
HETATM    1  C   UNK N   1      35.623  14.175  10.697  0.00  0.00     0.075 A 
HETATM    2  C   UNK N   1      35.985  13.290   9.671  0.00  0.00     0.033 A 
HETATM    3  C   UNK N   1      35.829  13.707   8.329  0.00  0.00     0.003 A 
HETATM    4  C   UNK N   1      35.318  14.992   8.034  0.00  0.00     0.017 A 
HETATM    5  C   UNK N   1      35.023  15.874   9.089  0.00  0.00     0.034 A 
HETATM    6  C   UNK N   1      35.183  15.440  10.377  0.00  0.00     0.050 A 
ENDROOT
BRANCH   5   7
HETATM    7  C   UNK N   1      34.531  17.260   8.958  0.00  0.00     0.252 C 
HETATM    8  O   UNK N   1      35.224  18.167   9.394  0.00  0.00    -0.268 OA
HETATM    9  N   UNK N   1      33.314  17.574   8.486  0.00  0.00    -0.353 N 
HETATM   10  H   UNK N   1      33.108  18.530   8.378  0.00  0.00     0.163 HD
BRANCH   9  11
HETATM   11  C   UNK N   1      32.290  16.641   8.125  0.00  0.00     0.162 C 
BRANCH  11  12
HETATM   12  C   UNK N   1      32.081  16.882   6.697  0.00  0.00    -0.023 A 
HETATM   13  C   UNK N   1      33.215  16.799   5.882  0.00  0.00     0.010 A 
HETATM   14  C   UNK N   1      33.135  17.102   4.529  0.00  0.00     0.001 A 
HETATM   15  C   UNK N   1      31.921  17.513   3.984  0.00  0.00     0.001 A 
HETATM   16  C   UNK N   1      30.778  17.594   4.788  0.00  0.00     0.019 A 
HETATM   17  C   UNK N   1      30.830  17.291   6.156  0.00  0.00     0.013 A 
BRANCH  17  18
HETATM   18  S   UNK N   1      29.218  17.255   7.043  0.00  0.00    -0.089 SA
BRANCH  18  19
HETATM   19  C   UNK N   1      28.033  18.465   6.365  0.00  0.00     0.014 A 
HETATM   20  C   UNK N   1      27.932  19.693   7.034  0.00  0.00     0.019 A 
HETATM   21  C   UNK N   1      26.985  20.649   6.665  0.00  0.00     0.001 A 
HETATM   22  C   UNK N   1      26.094  20.382   5.631  0.00  0.00     0.001 A 
HETATM   23  C   UNK N   1      26.144  19.155   4.974  0.00  0.00     0.011 A 
HETATM   24  C   UNK N   1      27.090  18.178   5.324  0.00  0.00    -0.018 A 
BRANCH  24  25
HETATM   25  C   UNK N   1      26.968  16.878   4.570  0.00  0.00     0.204 C 
BRANCH  25  26
HETATM   26  O   UNK N   1      27.618  16.859   3.341  0.00  0.00    -0.396 OA
HETATM   27  H   UNK N   1      28.417  16.348   3.138  0.00  0.00     0.209 HD
ENDBRANCH  25  26
ENDBRANCH  24  25
ENDBRANCH  18  19
ENDBRANCH  17  18
ENDBRANCH  11  12
ENDBRANCH   9  11
ENDBRANCH   5   7
BRANCH   1  28
HETATM   28  N   UNK N   1      35.598  13.844  12.083  0.00  0.00    -0.195 N 
HETATM   29  N   UNK N   1      34.836  12.942  12.701  0.00  0.00    -0.261 N 
HETATM   30  C   UNK N   1      35.220  13.003  13.994  0.00  0.00     0.170 A 
ATOM     31  HN  UNK N   1      34.122  12.340  12.290  1.00  0.00     0.191 HD
HETATM   32  N   UNK N   1      34.792  12.269  15.048  0.00  0.00    -0.173 N 
HETATM   33  C   UNK N   1      36.172  13.944  14.123  0.00  0.00     0.147 A 
HETATM   34  C   UNK N   1      35.362  12.522  16.275  0.00  0.00     0.679 A 
ATOM     35  HN  UNK N   1      34.074  11.554  14.936  1.00  0.00     0.186 HD
HETATM   36  N   UNK N   1      34.975  11.767  17.397  0.00  0.00    -0.234 N 
HETATM   37  N   UNK N   1      36.319  13.504  16.415  0.00  0.00    -0.168 N 
HETATM   38  H   UNK N   1      34.338  11.025  17.293  0.00  0.00     0.174 HD
HETATM   39  H   UNK N   1      35.341  11.982  18.285  0.00  0.00     0.174 HD
HETATM   40  C   UNK N   1      36.738  14.231  15.341  0.00  0.00     0.187 A 
ATOM     41  HN  UNK N   1      36.720  13.688  17.335  1.00  0.00     0.186 HD
HETATM   42  N   UNK N   1      36.415  14.467  12.932  0.00  0.00    -0.272 N 
ATOM     43  HN  UNK N   1      37.090  15.197  12.709  1.00  0.00     0.189 HD
BRANCH  40  44
HETATM   44  O   UNK N   1      37.670  15.192  15.471  0.00  0.00    -0.344 OA
HETATM   45  H   UNK N   1      37.502  15.942  16.006  0.00  0.00     0.219 HD
ENDBRANCH  40  44
ENDBRANCH   1  28
TORSDOF 9
ENDMDL
MODEL 8
REMARK VINA RESULT:      -8.3      9.186     13.365
REMARK  9 active torsions:
REMARK  status: ('A' for Active; 'I' for Inactive)
REMARK       I    between atoms: N_1  and  C_2 
REMARK    1  A    between atoms: N_8  and  C_16 
REMARK    2  A    between atoms: C_12  and  O_13 
REMARK    3  A    between atoms: C_20  and  C_22 
REMARK       I    between atoms: C_22  and  N_24 
REMARK    4  A    between atoms: N_24  and  C_25 
REMARK    5  A    between atoms: C_25  and  C_26 
REMARK    6  A    between atoms: C_31  and  S_32 
REMARK    7  A    between atoms: S_32  and  C_33 
REMARK    8  A    between atoms: C_38  and  C_39 
REMARK    9  A    between atoms: C_39  and  O_40 
ROOT
HETATM    1  C   UNK N   1      35.637  14.107  10.208  0.00  0.00     0.075 A 
HETATM    2  C   UNK N   1      36.288  13.353   9.221  0.00  0.00     0.033 A 
HETATM    3  C   UNK N   1      36.231  13.798   7.881  0.00  0.00     0.003 A 
HETATM    4  C   UNK N   1      35.533  14.982   7.549  0.00  0.00     0.017 A 
HETATM    5  C   UNK N   1      34.945  15.744   8.574  0.00  0.00     0.034 A 
HETATM    6  C   UNK N   1      35.014  15.285   9.861  0.00  0.00     0.050 A 
ENDROOT
BRANCH   5   7
HETATM    7  C   UNK N   1      34.225  17.023   8.409  0.00  0.00     0.252 C 
HETATM    8  O   UNK N   1      34.693  18.024   8.929  0.00  0.00    -0.268 OA
HETATM    9  N   UNK N   1      33.026  17.128   7.814  0.00  0.00    -0.353 N 
HETATM   10  H   UNK N   1      32.661  18.034   7.698  0.00  0.00     0.163 HD
BRANCH   9  11
HETATM   11  C   UNK N   1      32.232  16.038   7.335  0.00  0.00     0.162 C 
BRANCH  11  12
HETATM   12  C   UNK N   1      32.086  16.312   5.904  0.00  0.00    -0.023 A 
HETATM   13  C   UNK N   1      33.256  16.255   5.140  0.00  0.00     0.010 A 
HETATM   14  C   UNK N   1      33.236  16.589   3.792  0.00  0.00     0.001 A 
HETATM   15  C   UNK N   1      32.044  17.006   3.202  0.00  0.00     0.001 A 
HETATM   16  C   UNK N   1      30.866  17.061   3.955  0.00  0.00     0.019 A 
HETATM   17  C   UNK N   1      30.858  16.727   5.317  0.00  0.00     0.013 A 
BRANCH  17  18
HETATM   18  S   UNK N   1      29.208  16.660   6.129  0.00  0.00    -0.089 SA
BRANCH  18  19
HETATM   19  C   UNK N   1      28.348  18.268   6.071  0.00  0.00     0.014 A 
HETATM   20  C   UNK N   1      28.139  18.827   4.802  0.00  0.00     0.019 A 
HETATM   21  C   UNK N   1      27.587  20.099   4.646  0.00  0.00     0.001 A 
HETATM   22  C   UNK N   1      27.258  20.856   5.766  0.00  0.00     0.001 A 
HETATM   23  C   UNK N   1      27.490  20.343   7.040  0.00  0.00     0.011 A 
HETATM   24  C   UNK N   1      28.042  19.065   7.223  0.00  0.00    -0.018 A 
BRANCH  24  25
HETATM   25  C   UNK N   1      28.301  18.684   8.659  0.00  0.00     0.204 C 
BRANCH  25  26
HETATM   26  O   UNK N   1      27.505  17.648   9.135  0.00  0.00    -0.396 OA
HETATM   27  H   UNK N   1      27.330  16.816   8.666  0.00  0.00     0.209 HD
ENDBRANCH  25  26
ENDBRANCH  24  25
ENDBRANCH  18  19
ENDBRANCH  17  18
ENDBRANCH  11  12
ENDBRANCH   9  11
ENDBRANCH   5   7
BRANCH   1  28
HETATM   28  N   UNK N   1      35.494  13.710  11.571  0.00  0.00    -0.195 N 
HETATM   29  N   UNK N   1      36.035  14.269  12.653  0.00  0.00    -0.261 N 
HETATM   30  C   UNK N   1      35.566  13.533  13.683  0.00  0.00     0.170 A 
ATOM     31  HN  UNK N   1      36.663  15.072  12.693  1.00  0.00     0.191 HD
HETATM   32  N   UNK N   1      35.774  13.694  15.011  0.00  0.00    -0.173 N 
HETATM   33  C   UNK N   1      34.787  12.551  13.200  0.00  0.00     0.147 A 
HETATM   34  C   UNK N   1      35.162  12.805  15.865  0.00  0.00     0.679 A 
ATOM     35  HN  UNK N   1      36.363  14.448  15.366  1.00  0.00     0.186 HD
HETATM   36  N   UNK N   1      35.321  12.946  17.255  0.00  0.00    -0.234 N 
HETATM   37  N   UNK N   1      34.384  11.780  15.371  0.00  0.00    -0.168 N 
HETATM   38  H   UNK N   1      35.824  13.709  17.618  0.00  0.00     0.174 HD
HETATM   39  H   UNK N   1      34.928  12.280  17.865  0.00  0.00     0.174 HD
HETATM   40  C   UNK N   1      34.186  11.636  14.030  0.00  0.00     0.187 A 
ATOM     41  HN  UNK N   1      33.950  11.122  16.018  1.00  0.00     0.186 HD
HETATM   42  N   UNK N   1      34.734  12.661  11.882  0.00  0.00    -0.272 N 
ATOM     43  HN  UNK N   1      34.217  12.065  11.237  1.00  0.00     0.189 HD
BRANCH  40  44
HETATM   44  O   UNK N   1      33.428  10.638  13.541  0.00  0.00    -0.344 OA
HETATM   45  H   UNK N   1      33.376   9.821  13.996  0.00  0.00     0.219 HD
ENDBRANCH  40  44
ENDBRANCH   1  28
TORSDOF 9
ENDMDL
MODEL 9
REMARK VINA RESULT:      -8.1      2.594      6.029
REMARK  9 active torsions:
REMARK  status: ('A' for Active; 'I' for Inactive)
REMARK       I    between atoms: N_1  and  C_2 
REMARK    1  A    between atoms: N_8  and  C_16 
REMARK    2  A    between atoms: C_12  and  O_13 
REMARK    3  A    between atoms: C_20  and  C_22 
REMARK       I    between atoms: C_22  and  N_24 
REMARK    4  A    between atoms: N_24  and  C_25 
REMARK    5  A    between atoms: C_25  and  C_26 
REMARK    6  A    between atoms: C_31  and  S_32 
REMARK    7  A    between atoms: S_32  and  C_33 
REMARK    8  A    between atoms: C_38  and  C_39 
REMARK    9  A    between atoms: C_39  and  O_40 
ROOT
HETATM    1  C   UNK N   1      25.527  18.764   4.595  0.00  0.00     0.075 A 
HETATM    2  C   UNK N   1      26.178  19.796   5.288  0.00  0.00     0.033 A 
HETATM    3  C   UNK N   1      27.445  19.537   5.856  0.00  0.00     0.003 A 
HETATM    4  C   UNK N   1      28.041  18.261   5.725  0.00  0.00     0.017 A 
HETATM    5  C   UNK N   1      27.386  17.270   4.972  0.00  0.00     0.034 A 
HETATM    6  C   UNK N   1      26.159  17.551   4.436  0.00  0.00     0.050 A 
ENDROOT
BRANCH   5   7
HETATM    7  C   UNK N   1      27.888  15.909   4.696  0.00  0.00     0.252 C 
HETATM    8  O   UNK N   1      28.643  15.749   3.749  0.00  0.00    -0.268 OA
HETATM    9  N   UNK N   1      27.474  14.817   5.358  0.00  0.00    -0.353 N 
HETATM   10  H   UNK N   1      27.917  13.966   5.141  0.00  0.00     0.163 HD
BRANCH   9  11
HETATM   11  C   UNK N   1      26.443  14.782   6.351  0.00  0.00     0.162 C 
BRANCH  11  12
HETATM   12  C   UNK N   1      25.783  13.495   6.127  0.00  0.00    -0.023 A 
HETATM   13  C   UNK N   1      25.966  12.916   4.867  0.00  0.00     0.010 A 
HETATM   14  C   UNK N   1      25.306  11.742   4.526  0.00  0.00     0.001 A 
HETATM   15  C   UNK N   1      24.439  11.149   5.441  0.00  0.00     0.001 A 
HETATM   16  C   UNK N   1      24.253  11.715   6.707  0.00  0.00     0.019 A 
HETATM   17  C   UNK N   1      24.909  12.897   7.077  0.00  0.00     0.013 A 
BRANCH  17  18
HETATM   18  S   UNK N   1      24.721  13.418   8.832  0.00  0.00    -0.089 SA
BRANCH  18  19
HETATM   19  C   UNK N   1      23.006  13.224   9.426  0.00  0.00     0.014 A 
HETATM   20  C   UNK N   1      22.029  14.012   8.802  0.00  0.00     0.019 A 
HETATM   21  C   UNK N   1      20.706  14.021   9.245  0.00  0.00     0.001 A 
HETATM   22  C   UNK N   1      20.337  13.260  10.349  0.00  0.00     0.001 A 
HETATM   23  C   UNK N   1      21.295  12.497  11.015  0.00  0.00     0.011 A 
HETATM   24  C   UNK N   1      22.632  12.468  10.586  0.00  0.00    -0.018 A 
BRANCH  24  25
HETATM   25  C   UNK N   1      23.559  11.656  11.453  0.00  0.00     0.204 C 
BRANCH  25  26
HETATM   26  O   UNK N   1      24.341  12.407  12.325  0.00  0.00    -0.396 OA
HETATM   27  H   UNK N   1      24.075  13.246  12.733  0.00  0.00     0.209 HD
ENDBRANCH  25  26
ENDBRANCH  24  25
ENDBRANCH  18  19
ENDBRANCH  17  18
ENDBRANCH  11  12
ENDBRANCH   9  11
ENDBRANCH   5   7
BRANCH   1  28
HETATM   28  N   UNK N   1      24.195  18.838   4.091  0.00  0.00    -0.195 N 
HETATM   29  N   UNK N   1      23.303  17.855   3.974  0.00  0.00    -0.261 N 
HETATM   30  C   UNK N   1      22.203  18.455   3.473  0.00  0.00     0.170 A 
ATOM     31  HN  UNK N   1      23.424  16.870   4.210  1.00  0.00     0.191 HD
HETATM   32  N   UNK N   1      20.990  17.921   3.196  0.00  0.00    -0.173 N 
HETATM   33  C   UNK N   1      22.465  19.760   3.281  0.00  0.00     0.147 A 
HETATM   34  C   UNK N   1      20.021  18.763   2.699  0.00  0.00     0.679 A 
ATOM     35  HN  UNK N   1      20.801  16.931   3.352  1.00  0.00     0.186 HD
HETATM   36  N   UNK N   1      18.734  18.265   2.424  0.00  0.00    -0.234 N 
HETATM   37  N   UNK N   1      20.295  20.095   2.477  0.00  0.00    -0.168 N 
HETATM   38  H   UNK N   1      18.513  17.331   2.636  0.00  0.00     0.174 HD
HETATM   39  H   UNK N   1      18.056  18.852   2.018  0.00  0.00     0.174 HD
HETATM   40  C   UNK N   1      21.522  20.614   2.763  0.00  0.00     0.187 A 
ATOM     41  HN  UNK N   1      19.569  20.701   2.094  1.00  0.00     0.186 HD
HETATM   42  N   UNK N   1      23.706  20.004   3.672  0.00  0.00    -0.272 N 
ATOM     43  HN  UNK N   1      24.188  20.901   3.656  1.00  0.00     0.189 HD
BRANCH  40  44
HETATM   44  O   UNK N   1      21.798  21.912   2.548  0.00  0.00    -0.344 OA
HETATM   45  H   UNK N   1      21.735  22.530   3.250  0.00  0.00     0.219 HD
ENDBRANCH  40  44
ENDBRANCH   1  28
TORSDOF 9
ENDMDL
