MODEL 1
REMARK VINA RESULT:      -4.1      0.000      0.000
REMARK  7 active torsions:
REMARK  status: ('A' for Active; 'I' for Inactive)
REMARK    1  A    between atoms: O_1  and  C_2 
REMARK    2  A    between atoms: C_2  and  C_3 
REMARK    3  A    between atoms: C_3  and  O_4 
REMARK    4  A    between atoms: C_3  and  C_5 
REMARK    5  A    between atoms: C_5  and  O_6 
REMARK    6  A    between atoms: C_5  and  C_7 
REMARK    7  A    between atoms: C_7  and  O_8 
ROOT
HETATM    1  C   UNK N   1      33.942  17.270   9.058  0.00  0.00     0.172 C 
ENDROOT
BRANCH   1   2
HETATM    2  C   UNK N   1      34.395  18.290   8.012  0.00  0.00     0.198 C 
BRANCH   2   3
HETATM    3  O   UNK N   1      35.296  19.219   8.532  0.00  0.00    -0.398 OA
HETATM    4  H   UNK N   1      35.667  19.091   9.418  0.00  0.00     0.209 HD
ENDBRANCH   2   3
ENDBRANCH   1   2
BRANCH   1   5
HETATM    5  O   UNK N   1      32.586  16.947   9.039  0.00  0.00    -0.391 OA
HETATM    6  H   UNK N   1      32.306  16.024   9.145  0.00  0.00     0.210 HD
ENDBRANCH   1   5
BRANCH   1   7
HETATM    7  C   UNK N   1      34.838  16.585  10.106  0.00  0.00     0.172 C 
BRANCH   7   8
HETATM    8  O   UNK N   1      35.975  17.261  10.545  0.00  0.00    -0.391 OA
HETATM    9  H   UNK N   1      36.856  16.906  10.353  0.00  0.00     0.210 HD
ENDBRANCH   7   8
BRANCH   7  10
HETATM   10  C   UNK N   1      34.605  15.208  10.731  0.00  0.00     0.198 C 
BRANCH  10  11
HETATM   11  O   UNK N   1      33.284  15.024  11.138  0.00  0.00    -0.398 OA
HETATM   12  H   UNK N   1      33.080  14.892  12.077  0.00  0.00     0.209 HD
ENDBRANCH  10  11
ENDBRANCH   7  10
ENDBRANCH   1   7
TORSDOF 7
ENDMDL
MODEL 2
REMARK VINA RESULT:      -4.1     15.201     16.132
REMARK  7 active torsions:
REMARK  status: ('A' for Active; 'I' for Inactive)
REMARK    1  A    between atoms: O_1  and  C_2 
REMARK    2  A    between atoms: C_2  and  C_3 
REMARK    3  A    between atoms: C_3  and  O_4 
REMARK    4  A    between atoms: C_3  and  C_5 
REMARK    5  A    between atoms: C_5  and  O_6 
REMARK    6  A    between atoms: C_5  and  C_7 
REMARK    7  A    between atoms: C_7  and  O_8 
ROOT
HETATM    1  C   UNK N   1      21.023  20.864   2.324  0.00  0.00     0.172 C 
ENDROOT
BRANCH   1   2
HETATM    2  C   UNK N   1      20.430  21.326   0.991  0.00  0.00     0.198 C 
BRANCH   2   3
HETATM    3  O   UNK N   1      20.697  20.433  -0.046  0.00  0.00    -0.398 OA
HETATM    4  H   UNK N   1      19.974  19.931  -0.453  0.00  0.00     0.209 HD
ENDBRANCH   2   3
ENDBRANCH   1   2
BRANCH   1   5
HETATM    5  O   UNK N   1      22.131  21.581   2.772  0.00  0.00    -0.391 OA
HETATM    6  H   UNK N   1      22.080  22.545   2.864  0.00  0.00     0.210 HD
ENDBRANCH   1   5
BRANCH   1   7
HETATM    7  C   UNK N   1      20.509  19.700   3.192  0.00  0.00     0.172 C 
BRANCH   7   8
HETATM    8  O   UNK N   1      20.784  19.724   4.558  0.00  0.00    -0.391 OA
HETATM    9  H   UNK N   1      21.594  19.316   4.898  0.00  0.00     0.210 HD
ENDBRANCH   7   8
BRANCH   7  10
HETATM   10  C   UNK N   1      19.711  18.491   2.699  0.00  0.00     0.198 C 
BRANCH  10  11
HETATM   11  O   UNK N   1      18.381  18.809   2.424  0.00  0.00    -0.398 OA
HETATM   12  H   UNK N   1      17.672  18.205   2.697  0.00  0.00     0.209 HD
ENDBRANCH  10  11
ENDBRANCH   7  10
ENDBRANCH   1   7
TORSDOF 7
ENDMDL
MODEL 3
REMARK VINA RESULT:      -4.1      0.112      3.927
REMARK  7 active torsions:
REMARK  status: ('A' for Active; 'I' for Inactive)
REMARK    1  A    between atoms: O_1  and  C_2 
REMARK    2  A    between atoms: C_2  and  C_3 
REMARK    3  A    between atoms: C_3  and  O_4 
REMARK    4  A    between atoms: C_3  and  C_5 
REMARK    5  A    between atoms: C_5  and  O_6 
REMARK    6  A    between atoms: C_5  and  C_7 
REMARK    7  A    between atoms: C_7  and  O_8 
ROOT
HETATM    1  C   UNK N   1      34.741  16.537  10.044  0.00  0.00     0.172 C 
ENDROOT
BRANCH   1   2
HETATM    2  C   UNK N   1      34.487  15.137  10.607  0.00  0.00     0.198 C 
BRANCH   2   3
HETATM    3  O   UNK N   1      33.196  14.995  11.115  0.00  0.00    -0.398 OA
HETATM    4  H   UNK N   1      32.703  14.173  10.965  0.00  0.00     0.209 HD
ENDBRANCH   2   3
ENDBRANCH   1   2
BRANCH   1   5
HETATM    5  O   UNK N   1      35.881  17.181  10.520  0.00  0.00    -0.391 OA
HETATM    6  H   UNK N   1      36.708  16.686  10.630  0.00  0.00     0.210 HD
ENDBRANCH   1   5
BRANCH   1   7
HETATM    7  C   UNK N   1      33.862  17.276   9.018  0.00  0.00     0.172 C 
BRANCH   7   8
HETATM    8  O   UNK N   1      32.496  16.999   8.998  0.00  0.00    -0.391 OA
HETATM    9  H   UNK N   1      32.129  16.323   9.588  0.00  0.00     0.210 HD
ENDBRANCH   7   8
BRANCH   7  10
HETATM   10  C   UNK N   1      34.342  18.307   7.995  0.00  0.00     0.198 C 
BRANCH  10  11
HETATM   11  O   UNK N   1      35.266  19.201   8.534  0.00  0.00    -0.398 OA
HETATM   12  H   UNK N   1      36.176  18.912   8.709  0.00  0.00     0.209 HD
ENDBRANCH  10  11
ENDBRANCH   7  10
ENDBRANCH   1   7
TORSDOF 7
ENDMDL
MODEL 4
REMARK VINA RESULT:      -4.1     15.712     16.756
REMARK  7 active torsions:
REMARK  status: ('A' for Active; 'I' for Inactive)
REMARK    1  A    between atoms: O_1  and  C_2 
REMARK    2  A    between atoms: C_2  and  C_3 
REMARK    3  A    between atoms: C_3  and  O_4 
REMARK    4  A    between atoms: C_3  and  C_5 
REMARK    5  A    between atoms: C_5  and  O_6 
REMARK    6  A    between atoms: C_5  and  C_7 
REMARK    7  A    between atoms: C_7  and  O_8 
ROOT
HETATM    1  C   UNK N   1      19.678  18.663   2.055  0.00  0.00     0.172 C 
ENDROOT
BRANCH   1   2
HETATM    2  C   UNK N   1      20.218  17.425   1.335  0.00  0.00     0.198 C 
BRANCH   2   3
HETATM    3  O   UNK N   1      20.295  17.606  -0.045  0.00  0.00    -0.398 OA
HETATM    4  H   UNK N   1      21.146  17.815  -0.461  0.00  0.00     0.209 HD
ENDBRANCH   2   3
ENDBRANCH   1   2
BRANCH   1   5
HETATM    5  O   UNK N   1      18.369  18.564   2.524  0.00  0.00    -0.391 OA
HETATM    6  H   UNK N   1      17.799  17.839   2.223  0.00  0.00     0.210 HD
ENDBRANCH   1   5
BRANCH   1   7
HETATM    7  C   UNK N   1      20.441  19.977   2.299  0.00  0.00     0.172 C 
BRANCH   7   8
HETATM    8  O   UNK N   1      20.871  20.260   3.595  0.00  0.00    -0.391 OA
HETATM    9  H   UNK N   1      20.697  21.130   3.985  0.00  0.00     0.210 HD
ENDBRANCH   7   8
BRANCH   7  10
HETATM   10  C   UNK N   1      20.786  21.030   1.244  0.00  0.00     0.198 C 
BRANCH  10  11
HETATM   11  O   UNK N   1      20.592  20.563  -0.056  0.00  0.00    -0.398 OA
HETATM   12  H   UNK N   1      21.189  20.846  -0.767  0.00  0.00     0.209 HD
ENDBRANCH  10  11
ENDBRANCH   7  10
ENDBRANCH   1   7
TORSDOF 7
ENDMDL
MODEL 5
REMARK VINA RESULT:      -3.8     15.686     16.550
REMARK  7 active torsions:
REMARK  status: ('A' for Active; 'I' for Inactive)
REMARK    1  A    between atoms: O_1  and  C_2 
REMARK    2  A    between atoms: C_2  and  C_3 
REMARK    3  A    between atoms: C_3  and  O_4 
REMARK    4  A    between atoms: C_3  and  C_5 
REMARK    5  A    between atoms: C_5  and  O_6 
REMARK    6  A    between atoms: C_5  and  C_7 
REMARK    7  A    between atoms: C_7  and  O_8 
ROOT
HETATM    1  C   UNK N   1      20.388  18.429   1.239  0.00  0.00     0.172 C 
ENDROOT
BRANCH   1   2
HETATM    2  C   UNK N   1      20.090  17.531   2.441  0.00  0.00     0.198 C 
BRANCH   2   3
HETATM    3  O   UNK N   1      18.919  17.900   3.102  0.00  0.00    -0.398 OA
HETATM    4  H   UNK N   1      18.057  17.623   2.754  0.00  0.00     0.209 HD
ENDBRANCH   2   3
ENDBRANCH   1   2
BRANCH   1   5
HETATM    5  O   UNK N   1      20.322  17.811  -0.008  0.00  0.00    -0.391 OA
HETATM    6  H   UNK N   1      19.663  18.102  -0.659  0.00  0.00     0.210 HD
ENDBRANCH   1   5
BRANCH   1   7
HETATM    7  C   UNK N   1      20.748  19.926   1.292  0.00  0.00     0.172 C 
BRANCH   7   8
HETATM    8  O   UNK N   1      20.634  20.674   0.121  0.00  0.00    -0.391 OA
HETATM    9  H   UNK N   1      20.254  21.564   0.150  0.00  0.00     0.210 HD
ENDBRANCH   7   8
BRANCH   7  10
HETATM   10  C   UNK N   1      21.230  20.695   2.524  0.00  0.00     0.198 C 
BRANCH  10  11
HETATM   11  O   UNK N   1      20.315  20.643   3.575  0.00  0.00    -0.398 OA
HETATM   12  H   UNK N   1      20.601  20.341   4.452  0.00  0.00     0.209 HD
ENDBRANCH  10  11
ENDBRANCH   7  10
ENDBRANCH   1   7
TORSDOF 7
ENDMDL
MODEL 6
REMARK VINA RESULT:      -3.7     15.056     16.214
REMARK  7 active torsions:
REMARK  status: ('A' for Active; 'I' for Inactive)
REMARK    1  A    between atoms: O_1  and  C_2 
REMARK    2  A    between atoms: C_2  and  C_3 
REMARK    3  A    between atoms: C_3  and  O_4 
REMARK    4  A    between atoms: C_3  and  C_5 
REMARK    5  A    between atoms: C_5  and  O_6 
REMARK    6  A    between atoms: C_5  and  C_7 
REMARK    7  A    between atoms: C_7  and  O_8 
ROOT
HETATM    1  C   UNK N   1      20.375  20.169   2.388  0.00  0.00     0.172 C 
ENDROOT
BRANCH   1   2
HETATM    2  C   UNK N   1      20.939  20.602   1.033  0.00  0.00     0.198 C 
BRANCH   2   3
HETATM    3  O   UNK N   1      20.581  19.729   0.006  0.00  0.00    -0.398 OA
HETATM    4  H   UNK N   1      20.172  20.074  -0.803  0.00  0.00     0.209 HD
ENDBRANCH   2   3
ENDBRANCH   1   2
BRANCH   1   5
HETATM    5  O   UNK N   1      20.599  21.050   3.444  0.00  0.00    -0.391 OA
HETATM    6  H   UNK N   1      20.481  22.004   3.313  0.00  0.00     0.210 HD
ENDBRANCH   1   5
BRANCH   1   7
HETATM    7  C   UNK N   1      19.599  18.870   2.676  0.00  0.00     0.172 C 
BRANCH   7   8
HETATM    8  O   UNK N   1      18.238  18.835   2.375  0.00  0.00    -0.391 OA
HETATM    9  H   UNK N   1      17.823  19.580   1.915  0.00  0.00     0.210 HD
ENDBRANCH   7   8
BRANCH   7  10
HETATM   10  C   UNK N   1      20.178  17.585   3.271  0.00  0.00     0.198 C 
BRANCH  10  11
HETATM   11  O   UNK N   1      21.565  17.643   3.413  0.00  0.00    -0.398 OA
HETATM   12  H   UNK N   1      22.137  17.245   2.738  0.00  0.00     0.209 HD
ENDBRANCH  10  11
ENDBRANCH   7  10
ENDBRANCH   1   7
TORSDOF 7
ENDMDL
MODEL 7
REMARK VINA RESULT:      -3.7      1.089      3.086
REMARK  7 active torsions:
REMARK  status: ('A' for Active; 'I' for Inactive)
REMARK    1  A    between atoms: O_1  and  C_2 
REMARK    2  A    between atoms: C_2  and  C_3 
REMARK    3  A    between atoms: C_3  and  O_4 
REMARK    4  A    between atoms: C_3  and  C_5 
REMARK    5  A    between atoms: C_5  and  O_6 
REMARK    6  A    between atoms: C_5  and  C_7 
REMARK    7  A    between atoms: C_7  and  O_8 
ROOT
HETATM    1  C   UNK N   1      34.708  15.672  10.765  0.00  0.00     0.172 C 
ENDROOT
BRANCH   1   2
HETATM    2  C   UNK N   1      36.040  15.200  11.352  0.00  0.00     0.198 C 
BRANCH   2   3
HETATM    3  O   UNK N   1      37.122  15.942  10.879  0.00  0.00    -0.398 OA
HETATM    4  H   UNK N   1      37.413  15.843   9.959  0.00  0.00     0.209 HD
ENDBRANCH   2   3
ENDBRANCH   1   2
BRANCH   1   5
HETATM    5  O   UNK N   1      33.577  14.996  11.216  0.00  0.00    -0.391 OA
HETATM    6  H   UNK N   1      32.707  15.425  11.177  0.00  0.00     0.210 HD
ENDBRANCH   1   5
BRANCH   1   7
HETATM    7  C   UNK N   1      34.519  16.806   9.741  0.00  0.00     0.172 C 
BRANCH   7   8
HETATM    8  O   UNK N   1      35.411  17.877   9.769  0.00  0.00    -0.391 OA
HETATM    9  H   UNK N   1      35.193  18.703   9.311  0.00  0.00     0.210 HD
ENDBRANCH   7   8
BRANCH   7  10
HETATM   10  C   UNK N   1      33.428  16.883   8.671  0.00  0.00     0.198 C 
BRANCH  10  11
HETATM   11  O   UNK N   1      32.160  16.610   9.184  0.00  0.00    -0.398 OA
HETATM   12  H   UNK N   1      31.404  17.162   8.928  0.00  0.00     0.209 HD
ENDBRANCH  10  11
ENDBRANCH   7  10
ENDBRANCH   1   7
TORSDOF 7
ENDMDL
MODEL 8
REMARK VINA RESULT:      -3.6      2.701      5.342
REMARK  7 active torsions:
REMARK  status: ('A' for Active; 'I' for Inactive)
REMARK    1  A    between atoms: O_1  and  C_2 
REMARK    2  A    between atoms: C_2  and  C_3 
REMARK    3  A    between atoms: C_3  and  O_4 
REMARK    4  A    between atoms: C_3  and  C_5 
REMARK    5  A    between atoms: C_5  and  O_6 
REMARK    6  A    between atoms: C_5  and  C_7 
REMARK    7  A    between atoms: C_7  and  O_8 
ROOT
HETATM    1  C   UNK N   1      35.795  14.300  12.814  0.00  0.00     0.172 C 
ENDROOT
BRANCH   1   2
HETATM    2  C   UNK N   1      35.549  12.880  13.328  0.00  0.00     0.198 C 
BRANCH   2   3
HETATM    3  O   UNK N   1      34.258  12.432  13.051  0.00  0.00    -0.398 OA
HETATM    4  H   UNK N   1      34.118  11.531  12.720  0.00  0.00     0.209 HD
ENDBRANCH   2   3
ENDBRANCH   1   2
BRANCH   1   5
HETATM    5  O   UNK N   1      36.735  15.044  13.524  0.00  0.00    -0.391 OA
HETATM    6  H   UNK N   1      36.625  16.004  13.616  0.00  0.00     0.210 HD
ENDBRANCH   1   5
BRANCH   1   7
HETATM    7  C   UNK N   1      35.107  14.960  11.605  0.00  0.00     0.172 C 
BRANCH   7   8
HETATM    8  O   UNK N   1      33.727  14.815  11.471  0.00  0.00    -0.391 OA
HETATM    9  H   UNK N   1      33.170  14.723  12.258  0.00  0.00     0.210 HD
ENDBRANCH   7   8
BRANCH   7  10
HETATM   10  C   UNK N   1      35.796  15.778  10.511  0.00  0.00     0.198 C 
BRANCH  10  11
HETATM   11  O   UNK N   1      37.116  16.092  10.832  0.00  0.00    -0.398 OA
HETATM   12  H   UNK N   1      37.481  16.959  10.593  0.00  0.00     0.209 HD
ENDBRANCH  10  11
ENDBRANCH   7  10
ENDBRANCH   1   7
TORSDOF 7
ENDMDL
MODEL 9
REMARK VINA RESULT:      -3.6      2.532      3.607
REMARK  7 active torsions:
REMARK  status: ('A' for Active; 'I' for Inactive)
REMARK    1  A    between atoms: O_1  and  C_2 
REMARK    2  A    between atoms: C_2  and  C_3 
REMARK    3  A    between atoms: C_3  and  O_4 
REMARK    4  A    between atoms: C_3  and  C_5 
REMARK    5  A    between atoms: C_5  and  O_6 
REMARK    6  A    between atoms: C_5  and  C_7 
REMARK    7  A    between atoms: C_7  and  O_8 
ROOT
HETATM    1  C   UNK N   1      34.881  15.044  11.473  0.00  0.00     0.172 C 
ENDROOT
BRANCH   1   2
HETATM    2  C   UNK N   1      35.534  16.292  10.875  0.00  0.00     0.198 C 
BRANCH   2   3
HETATM    3  O   UNK N   1      36.924  16.192  10.826  0.00  0.00    -0.398 OA
HETATM    4  H   UNK N   1      37.426  16.010  11.635  0.00  0.00     0.209 HD
ENDBRANCH   2   3
ENDBRANCH   1   2
BRANCH   1   5
HETATM    5  O   UNK N   1      33.510  14.921  11.262  0.00  0.00    -0.391 OA
HETATM    6  H   UNK N   1      32.889  15.452  11.786  0.00  0.00     0.210 HD
ENDBRANCH   1   5
BRANCH   1   7
HETATM    7  C   UNK N   1      35.598  13.938  12.269  0.00  0.00     0.172 C 
BRANCH   7   8
HETATM    8  O   UNK N   1      36.827  14.236  12.854  0.00  0.00    -0.391 OA
HETATM    9  H   UNK N   1      37.009  15.134  13.171  0.00  0.00     0.210 HD
ENDBRANCH   7   8
BRANCH   7  10
HETATM   10  C   UNK N   1      35.088  12.512  12.491  0.00  0.00     0.198 C 
BRANCH  10  11
HETATM   11  O   UNK N   1      34.259  12.411  13.608  0.00  0.00    -0.398 OA
HETATM   12  H   UNK N   1      34.556  12.757  14.464  0.00  0.00     0.209 HD
ENDBRANCH  10  11
ENDBRANCH   7  10
ENDBRANCH   1   7
TORSDOF 7
ENDMDL
