MODEL 1
REMARK VINA RESULT:      -5.0      0.000      0.000
REMARK  2 active torsions:
REMARK  status: ('A' for Active; 'I' for Inactive)
REMARK    1  A    between atoms: C_5  and  S_8 
REMARK    2  A    between atoms: S_8  and  O_9 
ROOT
HETATM    1  C   UNK N   1      35.273  13.447  12.107  0.00  0.00     0.048 C 
HETATM    2  C   UNK N   1      35.083  14.549  11.128  0.00  0.00    -0.062 A 
HETATM    3  C   UNK N   1      34.465  14.295   9.900  0.00  0.00     0.008 A 
HETATM    4  C   UNK N   1      34.267  15.336   8.987  0.00  0.00     0.026 A 
HETATM    5  C   UNK N   1      34.688  16.633   9.301  0.00  0.00     0.072 A 
HETATM    6  C   UNK N   1      35.313  16.885  10.528  0.00  0.00     0.026 A 
HETATM    7  C   UNK N   1      35.511  15.843  11.440  0.00  0.00     0.008 A 
ENDROOT
BRANCH   5   8
HETATM    8  S   UNK N   1      34.377  17.971   8.157  0.00  0.00     0.129 S 
HETATM    9  O   UNK N   1      35.241  19.202   8.471  0.00  0.00    -0.598 OA
HETATM   10  O   UNK N   1      32.965  18.546   8.348  0.00  0.00    -0.598 OA
BRANCH   8  11
HETATM   11  O   UNK N   1      34.546  17.717   6.468  0.00  0.00    -0.292 OA
HETATM   12  H   UNK N   1      35.232  17.757   5.783  0.00  0.00     0.232 HD
ENDBRANCH   8  11
ENDBRANCH   5   8
TORSDOF 2
ENDMDL
MODEL 2
REMARK VINA RESULT:      -4.9      6.831      8.005
REMARK  2 active torsions:
REMARK  status: ('A' for Active; 'I' for Inactive)
REMARK    1  A    between atoms: C_5  and  S_8 
REMARK    2  A    between atoms: S_8  and  O_9 
ROOT
HETATM    1  C   UNK N   1      35.218  11.293  19.899  0.00  0.00     0.048 C 
HETATM    2  C   UNK N   1      35.441  11.788  18.516  0.00  0.00    -0.062 A 
HETATM    3  C   UNK N   1      35.960  10.930  17.541  0.00  0.00     0.008 A 
HETATM    4  C   UNK N   1      36.150  11.389  16.234  0.00  0.00     0.026 A 
HETATM    5  C   UNK N   1      35.825  12.708  15.901  0.00  0.00     0.072 A 
HETATM    6  C   UNK N   1      35.313  13.568  16.878  0.00  0.00     0.026 A 
HETATM    7  C   UNK N   1      35.122  13.109  18.185  0.00  0.00     0.008 A 
ENDROOT
BRANCH   5   8
HETATM    8  S   UNK N   1      36.013  13.272  14.214  0.00  0.00     0.129 S 
HETATM    9  O   UNK N   1      34.654  13.437  13.515  0.00  0.00    -0.598 OA
HETATM   10  O   UNK N   1      36.665  12.191  13.338  0.00  0.00    -0.598 OA
BRANCH   8  11
HETATM   11  O   UNK N   1      36.875  14.717  13.880  0.00  0.00    -0.292 OA
HETATM   12  H   UNK N   1      37.380  15.122  13.157  0.00  0.00     0.232 HD
ENDBRANCH   8  11
ENDBRANCH   5   8
TORSDOF 2
ENDMDL
MODEL 3
REMARK VINA RESULT:      -4.9      3.903      5.288
REMARK  2 active torsions:
REMARK  status: ('A' for Active; 'I' for Inactive)
REMARK    1  A    between atoms: C_5  and  S_8 
REMARK    2  A    between atoms: S_8  and  O_9 
ROOT
HETATM    1  C   UNK N   1      28.298  17.396   6.618  0.00  0.00     0.048 C 
HETATM    2  C   UNK N   1      29.719  17.490   7.041  0.00  0.00    -0.062 A 
HETATM    3  C   UNK N   1      30.040  17.965   8.316  0.00  0.00     0.008 A 
HETATM    4  C   UNK N   1      31.377  18.035   8.722  0.00  0.00     0.026 A 
HETATM    5  C   UNK N   1      32.395  17.632   7.851  0.00  0.00     0.072 A 
HETATM    6  C   UNK N   1      32.074  17.164   6.572  0.00  0.00     0.026 A 
HETATM    7  C   UNK N   1      30.737  17.095   6.167  0.00  0.00     0.008 A 
ENDROOT
BRANCH   5   8
HETATM    8  S   UNK N   1      34.098  17.665   8.397  0.00  0.00     0.129 S 
HETATM    9  O   UNK N   1      34.724  19.057   8.224  0.00  0.00    -0.598 OA
HETATM   10  O   UNK N   1      34.992  16.822   7.475  0.00  0.00    -0.598 OA
BRANCH   8  11
HETATM   11  O   UNK N   1      34.499  17.182   9.994  0.00  0.00    -0.292 OA
HETATM   12  H   UNK N   1      34.128  17.222  10.890  0.00  0.00     0.232 HD
ENDBRANCH   8  11
ENDBRANCH   5   8
TORSDOF 2
ENDMDL
MODEL 4
REMARK VINA RESULT:      -4.8      5.105      6.111
REMARK  2 active torsions:
REMARK  status: ('A' for Active; 'I' for Inactive)
REMARK    1  A    between atoms: C_5  and  S_8 
REMARK    2  A    between atoms: S_8  and  O_9 
ROOT
HETATM    1  C   UNK N   1      32.656  16.915   4.580  0.00  0.00     0.048 C 
HETATM    2  C   UNK N   1      31.814  17.170   5.777  0.00  0.00    -0.062 A 
HETATM    3  C   UNK N   1      30.421  17.216   5.656  0.00  0.00     0.008 A 
HETATM    4  C   UNK N   1      29.627  17.436   6.786  0.00  0.00     0.026 A 
HETATM    5  C   UNK N   1      30.225  17.613   8.039  0.00  0.00     0.072 A 
HETATM    6  C   UNK N   1      31.619  17.575   8.158  0.00  0.00     0.026 A 
HETATM    7  C   UNK N   1      32.412  17.355   7.027  0.00  0.00     0.008 A 
ENDROOT
BRANCH   5   8
HETATM    8  S   UNK N   1      29.202  17.831   9.489  0.00  0.00     0.129 S 
HETATM    9  O   UNK N   1      29.708  18.982  10.374  0.00  0.00    -0.598 OA
HETATM   10  O   UNK N   1      29.340  16.640  10.450  0.00  0.00    -0.598 OA
BRANCH   8  11
HETATM   11  O   UNK N   1      27.515  18.095   9.322  0.00  0.00    -0.292 OA
HETATM   12  H   UNK N   1      26.837  18.727   9.609  0.00  0.00     0.232 HD
ENDBRANCH   8  11
ENDBRANCH   5   8
TORSDOF 2
ENDMDL
MODEL 5
REMARK VINA RESULT:      -4.7      5.470      6.107
REMARK  2 active torsions:
REMARK  status: ('A' for Active; 'I' for Inactive)
REMARK    1  A    between atoms: C_5  and  S_8 
REMARK    2  A    between atoms: S_8  and  O_9 
ROOT
HETATM    1  C   UNK N   1      34.048  17.340   6.686  0.00  0.00     0.048 C 
HETATM    2  C   UNK N   1      32.632  17.379   7.133  0.00  0.00    -0.062 A 
HETATM    3  C   UNK N   1      32.292  18.023   8.327  0.00  0.00     0.008 A 
HETATM    4  C   UNK N   1      30.956  18.077   8.738  0.00  0.00     0.026 A 
HETATM    5  C   UNK N   1      29.958  17.484   7.956  0.00  0.00     0.072 A 
HETATM    6  C   UNK N   1      30.300  16.832   6.766  0.00  0.00     0.026 A 
HETATM    7  C   UNK N   1      31.636  16.779   6.356  0.00  0.00     0.008 A 
ENDROOT
BRANCH   5   8
HETATM    8  S   UNK N   1      28.245  17.609   8.455  0.00  0.00     0.129 S 
HETATM    9  O   UNK N   1      28.006  16.971   9.832  0.00  0.00    -0.598 OA
HETATM   10  O   UNK N   1      27.344  16.738   7.566  0.00  0.00    -0.598 OA
BRANCH   8  11
HETATM   11  O   UNK N   1      27.479  19.143   8.524  0.00  0.00    -0.292 OA
HETATM   12  H   UNK N   1      27.588  20.000   8.966  0.00  0.00     0.232 HD
ENDBRANCH   8  11
ENDBRANCH   5   8
TORSDOF 2
ENDMDL
MODEL 6
REMARK VINA RESULT:      -4.7      3.373      4.846
REMARK  2 active torsions:
REMARK  status: ('A' for Active; 'I' for Inactive)
REMARK    1  A    between atoms: C_5  and  S_8 
REMARK    2  A    between atoms: S_8  and  O_9 
ROOT
HETATM    1  C   UNK N   1      33.084  17.454   4.586  0.00  0.00     0.048 C 
HETATM    2  C   UNK N   1      33.518  17.078   5.956  0.00  0.00    -0.062 A 
HETATM    3  C   UNK N   1      33.024  17.775   7.063  0.00  0.00     0.008 A 
HETATM    4  C   UNK N   1      33.415  17.407   8.354  0.00  0.00     0.026 A 
HETATM    5  C   UNK N   1      34.305  16.343   8.540  0.00  0.00     0.072 A 
HETATM    6  C   UNK N   1      34.805  15.651   7.431  0.00  0.00     0.026 A 
HETATM    7  C   UNK N   1      34.413  16.019   6.141  0.00  0.00     0.008 A 
ENDROOT
BRANCH   5   8
HETATM    8  S   UNK N   1      34.754  15.838  10.195  0.00  0.00     0.129 S 
HETATM    9  O   UNK N   1      35.259  17.022  11.034  0.00  0.00    -0.598 OA
HETATM   10  O   UNK N   1      35.998  14.936  10.181  0.00  0.00    -0.598 OA
BRANCH   8  11
HETATM   11  O   UNK N   1      33.612  15.031  11.189  0.00  0.00    -0.292 OA
HETATM   12  H   UNK N   1      32.826  14.469  11.100  0.00  0.00     0.232 HD
ENDBRANCH   8  11
ENDBRANCH   5   8
TORSDOF 2
ENDMDL
MODEL 7
REMARK VINA RESULT:      -4.7     13.410     14.208
REMARK  2 active torsions:
REMARK  status: ('A' for Active; 'I' for Inactive)
REMARK    1  A    between atoms: C_5  and  S_8 
REMARK    2  A    between atoms: S_8  and  O_9 
ROOT
HETATM    1  C   UNK N   1      23.000  11.505  10.997  0.00  0.00     0.048 C 
HETATM    2  C   UNK N   1      22.157  12.574  10.402  0.00  0.00    -0.062 A 
HETATM    3  C   UNK N   1      20.804  12.667  10.739  0.00  0.00     0.008 A 
HETATM    4  C   UNK N   1      20.015  13.686  10.195  0.00  0.00     0.026 A 
HETATM    5  C   UNK N   1      20.579  14.612   9.310  0.00  0.00     0.072 A 
HETATM    6  C   UNK N   1      21.932  14.513   8.967  0.00  0.00     0.026 A 
HETATM    7  C   UNK N   1      22.720  13.494   9.511  0.00  0.00     0.008 A 
ENDROOT
BRANCH   5   8
HETATM    8  S   UNK N   1      19.581  15.949   8.665  0.00  0.00     0.129 S 
HETATM    9  O   UNK N   1      19.383  15.829   7.147  0.00  0.00    -0.598 OA
HETATM   10  O   UNK N   1      20.324  17.290   8.761  0.00  0.00    -0.598 OA
BRANCH   8  11
HETATM   11  O   UNK N   1      18.017  16.241   9.306  0.00  0.00    -0.292 OA
HETATM   12  H   UNK N   1      17.509  16.965   9.706  0.00  0.00     0.232 HD
ENDBRANCH   8  11
ENDBRANCH   5   8
TORSDOF 2
ENDMDL
MODEL 8
REMARK VINA RESULT:      -4.7     20.270     21.006
REMARK  2 active torsions:
REMARK  status: ('A' for Active; 'I' for Inactive)
REMARK    1  A    between atoms: C_5  and  S_8 
REMARK    2  A    between atoms: S_8  and  O_9 
ROOT
HETATM    1  C   UNK N   1      26.891  26.083  -9.198  0.00  0.00     0.048 C 
HETATM    2  C   UNK N   1      26.754  26.757  -7.881  0.00  0.00    -0.062 A 
HETATM    3  C   UNK N   1      25.700  26.417  -7.027  0.00  0.00     0.008 A 
HETATM    4  C   UNK N   1      25.582  27.036  -5.779  0.00  0.00     0.026 A 
HETATM    5  C   UNK N   1      26.517  27.999  -5.383  0.00  0.00     0.072 A 
HETATM    6  C   UNK N   1      27.567  28.345  -6.241  0.00  0.00     0.026 A 
HETATM    7  C   UNK N   1      27.684  27.725  -7.489  0.00  0.00     0.008 A 
ENDROOT
BRANCH   5   8
HETATM    8  S   UNK N   1      26.397  28.742  -3.761  0.00  0.00     0.129 S 
HETATM    9  O   UNK N   1      27.712  28.611  -2.977  0.00  0.00    -0.598 OA
HETATM   10  O   UNK N   1      25.436  27.952  -2.859  0.00  0.00    -0.598 OA
BRANCH   8  11
HETATM   11  O   UNK N   1      25.933  30.386  -3.600  0.00  0.00    -0.292 OA
HETATM   12  H   UNK N   1      25.169  30.956  -3.780  0.00  0.00     0.232 HD
ENDBRANCH   8  11
ENDBRANCH   5   8
TORSDOF 2
ENDMDL
MODEL 9
REMARK VINA RESULT:      -4.6     13.421     14.255
REMARK  2 active torsions:
REMARK  status: ('A' for Active; 'I' for Inactive)
REMARK    1  A    between atoms: C_5  and  S_8 
REMARK    2  A    between atoms: S_8  and  O_9 
ROOT
HETATM    1  C   UNK N   1      23.048  11.495   9.912  0.00  0.00     0.048 C 
HETATM    2  C   UNK N   1      22.194  12.670   9.598  0.00  0.00    -0.062 A 
HETATM    3  C   UNK N   1      22.556  13.544   8.569  0.00  0.00     0.008 A 
HETATM    4  C   UNK N   1      21.742  14.638   8.260  0.00  0.00     0.026 A 
HETATM    5  C   UNK N   1      20.564  14.861   8.982  0.00  0.00     0.072 A 
HETATM    6  C   UNK N   1      20.206  13.990  10.017  0.00  0.00     0.026 A 
HETATM    7  C   UNK N   1      21.021  12.896  10.325  0.00  0.00     0.008 A 
ENDROOT
BRANCH   5   8
HETATM    8  S   UNK N   1      19.495  16.225   8.542  0.00  0.00     0.129 S 
HETATM    9  O   UNK N   1      18.170  16.184   9.319  0.00  0.00    -0.598 OA
HETATM   10  O   UNK N   1      18.993  16.092   7.096  0.00  0.00    -0.598 OA
BRANCH   8  11
HETATM   11  O   UNK N   1      20.057  17.840   8.687  0.00  0.00    -0.292 OA
HETATM   12  H   UNK N   1      20.763  18.408   8.340  0.00  0.00     0.232 HD
ENDBRANCH   8  11
ENDBRANCH   5   8
TORSDOF 2
ENDMDL
