MODEL 1
REMARK VINA RESULT:      -7.9      0.000      0.000
REMARK  6 active torsions:
REMARK  status: ('A' for Active; 'I' for Inactive)
REMARK    1  A    between atoms: C_2  and  C_3 
REMARK    2  A    between atoms: C_3  and  N_4 
REMARK    3  A    between atoms: C_5  and  C_30 
REMARK    4  A    between atoms: C_8  and  C_9 
REMARK    5  A    between atoms: C_17  and  C_18 
REMARK       I    between atoms: C_23  and  N_24 
REMARK    6  A    between atoms: N_24  and  C_25 
ROOT
HETATM    1  N   UNK N   1      30.089  17.588   7.502  0.00  0.00    -0.333 N 
HETATM    2  C   UNK N   1      29.154  17.398   6.543  0.00  0.00     0.088 A 
HETATM    3  N   UNK N   1      29.626  16.680   5.512  0.00  0.00    -0.343 N 
ATOM      4  HN  UNK N   1      29.110  16.397   4.680  1.00  0.00     0.167 HD
HETATM    5  C   UNK N   1      30.920  16.406   5.794  0.00  0.00     0.073 A 
HETATM    6  C   UNK N   1      31.225  16.983   7.058  0.00  0.00     0.091 A 
ENDROOT
BRANCH   6   7
HETATM    7  C   UNK N   1      32.546  17.123   7.782  0.00  0.00     0.079 A 
HETATM    8  C   UNK N   1      33.452  18.126   7.458  0.00  0.00     0.050 A 
HETATM    9  C   UNK N   1      34.577  18.336   8.243  0.00  0.00     0.108 A 
HETATM   10  N   UNK N   1      34.785  17.564   9.331  0.00  0.00    -0.202 N 
HETATM   11  C   UNK N   1      33.931  16.557   9.636  0.00  0.00     0.678 A 
ATOM     12  HN  UNK N   1      35.593  17.740   9.928  1.00  0.00     0.183 HD
HETATM   13  N   UNK N   1      34.194  15.756  10.766  0.00  0.00    -0.221 N 
HETATM   14  N   UNK N   1      32.824  16.342   8.867  0.00  0.00    -0.190 N 
HETATM   15  H   UNK N   1      34.212  16.172  11.658  0.00  0.00     0.178 HD
ATOM     16  HN  UNK N   1      32.190  15.581   9.108  1.00  0.00     0.184 HD
BRANCH  13  17
HETATM   17  C   UNK N   1      34.435  14.346  10.642  0.00  0.00     0.099 A 
HETATM   18  C   UNK N   1      35.919  14.074  10.845  0.00  0.00     0.028 A 
HETATM   19  C   UNK N   1      34.949  13.835  11.977  0.00  0.00     0.028 A 
ENDBRANCH  13  17
ENDBRANCH   6   7
BRANCH   5  20
HETATM   20  C   UNK N   1      31.766  15.770   4.734  0.00  0.00    -0.005 A 
HETATM   21  C   UNK N   1      32.371  16.597   3.772  0.00  0.00     0.015 A 
HETATM   22  C   UNK N   1      33.323  16.086   2.883  0.00  0.00     0.026 A 
HETATM   23  C   UNK N   1      33.690  14.740   2.946  0.00  0.00     0.055 A 
HETATM   24 Cl   UNK N   1      34.951  14.142   1.880  0.00  0.00    -0.083 Cl
HETATM   25  C   UNK N   1      33.065  13.898   3.873  0.00  0.00     0.056 A 
HETATM   26 Cl   UNK N   1      33.488  12.198   4.010  0.00  0.00    -0.083 Cl
HETATM   27  C   UNK N   1      32.120  14.423   4.750  0.00  0.00     0.039 A 
ENDBRANCH   5  20
BRANCH   1  28
HETATM   28  C   UNK N   1      29.917  18.407   8.696  0.00  0.00     0.130 C 
BRANCH  28  29
HETATM   29  C   UNK N   1      28.782  17.874   9.552  0.00  0.00     0.016 C 
HETATM   30  C   UNK N   1      29.305  16.756  10.428  0.00  0.00     0.006 C 
ENDBRANCH  28  29
ENDBRANCH   1  28
BRANCH   2  31
HETATM   31  C   UNK N   1      27.821  18.117   6.471  0.00  0.00     0.057 C 
HETATM   32  C   UNK N   1      26.691  17.466   5.684  0.00  0.00     0.042 C 
HETATM   33  C   UNK N   1      26.795  17.829   4.204  0.00  0.00     0.272 C 
HETATM   34  N   UNK N   1      26.827  19.282   3.996  0.00  0.00     0.084 N 
HETATM   35  C   UNK N   1      25.565  19.890   4.409  0.00  0.00     0.309 C 
HETATM   36  C   UNK N   1      27.957  19.895   4.708  0.00  0.00     0.272 C 
HETATM   37  C   UNK N   1      27.912  19.618   6.214  0.00  0.00     0.042 C 
ENDBRANCH   2  31
TORSDOF 6
ENDMDL
MODEL 2
REMARK VINA RESULT:      -7.6      5.065     10.214
REMARK  6 active torsions:
REMARK  status: ('A' for Active; 'I' for Inactive)
REMARK    1  A    between atoms: C_2  and  C_3 
REMARK    2  A    between atoms: C_3  and  N_4 
REMARK    3  A    between atoms: C_5  and  C_30 
REMARK    4  A    between atoms: C_8  and  C_9 
REMARK    5  A    between atoms: C_17  and  C_18 
REMARK       I    between atoms: C_23  and  N_24 
REMARK    6  A    between atoms: N_24  and  C_25 
ROOT
HETATM    1  N   UNK N   1      26.483  16.803   4.986  0.00  0.00    -0.333 N 
HETATM    2  C   UNK N   1      27.127  16.827   6.176  0.00  0.00     0.088 A 
HETATM    3  N   UNK N   1      26.581  15.981   7.063  0.00  0.00    -0.343 N 
ATOM      4  HN  UNK N   1      26.896  15.813   8.018  1.00  0.00     0.167 HD
HETATM    5  C   UNK N   1      25.531  15.397   6.442  0.00  0.00     0.073 A 
HETATM    6  C   UNK N   1      25.459  15.916   5.120  0.00  0.00     0.091 A 
ENDROOT
BRANCH   6   7
HETATM    7  C   UNK N   1      24.404  15.739   4.049  0.00  0.00     0.079 A 
HETATM    8  C   UNK N   1      24.439  14.668   3.163  0.00  0.00     0.050 A 
HETATM    9  C   UNK N   1      23.376  14.436   2.303  0.00  0.00     0.108 A 
HETATM   10  N   UNK N   1      22.301  15.253   2.334  0.00  0.00    -0.202 N 
HETATM   11  C   UNK N   1      22.271  16.323   3.164  0.00  0.00     0.678 A 
ATOM     12  HN  UNK N   1      21.504  15.063   1.726  1.00  0.00     0.183 HD
HETATM   13  N   UNK N   1      21.142  17.168   3.152  0.00  0.00    -0.221 N 
HETATM   14  N   UNK N   1      23.315  16.560   4.013  0.00  0.00    -0.190 N 
HETATM   15  H   UNK N   1      20.263  16.800   3.399  0.00  0.00     0.178 HD
ATOM     16  HN  UNK N   1      23.280  17.369   4.632  1.00  0.00     0.184 HD
BRANCH  13  17
HETATM   17  C   UNK N   1      21.250  18.553   2.788  0.00  0.00     0.099 A 
HETATM   18  C   UNK N   1      19.893  19.220   2.961  0.00  0.00     0.028 A 
HETATM   19  C   UNK N   1      20.955  19.390   4.020  0.00  0.00     0.028 A 
ENDBRANCH  13  17
ENDBRANCH   6   7
BRANCH   5  20
HETATM   20  C   UNK N   1      24.610  14.535   7.250  0.00  0.00    -0.005 A 
HETATM   21  C   UNK N   1      25.165  13.698   8.233  0.00  0.00     0.015 A 
HETATM   22  C   UNK N   1      24.347  13.023   9.146  0.00  0.00     0.026 A 
HETATM   23  C   UNK N   1      22.960  13.179   9.094  0.00  0.00     0.055 A 
HETATM   24 Cl   UNK N   1      21.960  12.394  10.305  0.00  0.00    -0.083 Cl
HETATM   25  C   UNK N   1      22.393  13.979   8.094  0.00  0.00     0.056 A 
HETATM   26 Cl   UNK N   1      20.658  14.225   7.980  0.00  0.00    -0.083 Cl
HETATM   27  C   UNK N   1      23.223  14.643   7.194  0.00  0.00     0.039 A 
ENDBRANCH   5  20
BRANCH   1  28
HETATM   28  C   UNK N   1      26.773  17.675   3.854  0.00  0.00     0.130 C 
BRANCH  28  29
HETATM   29  C   UNK N   1      26.010  18.982   3.976  0.00  0.00     0.016 C 
HETATM   30  C   UNK N   1      26.984  20.136   3.868  0.00  0.00     0.006 C 
ENDBRANCH  28  29
ENDBRANCH   1  28
BRANCH   2  31
HETATM   31  C   UNK N   1      28.160  17.858   6.587  0.00  0.00     0.057 C 
HETATM   32  C   UNK N   1      29.629  17.456   6.568  0.00  0.00     0.042 C 
HETATM   33  C   UNK N   1      30.011  16.772   7.879  0.00  0.00     0.272 C 
HETATM   34  N   UNK N   1      29.697  17.607   9.046  0.00  0.00     0.084 N 
HETATM   35  C   UNK N   1      30.510  18.820   9.044  0.00  0.00     0.309 C 
HETATM   36  C   UNK N   1      28.267  17.939   9.091  0.00  0.00     0.272 C 
HETATM   37  C   UNK N   1      27.801  18.670   7.828  0.00  0.00     0.042 C 
ENDBRANCH   2  31
TORSDOF 6
ENDMDL
MODEL 3
REMARK VINA RESULT:      -7.4      5.350     10.496
REMARK  6 active torsions:
REMARK  status: ('A' for Active; 'I' for Inactive)
REMARK    1  A    between atoms: C_2  and  C_3 
REMARK    2  A    between atoms: C_3  and  N_4 
REMARK    3  A    between atoms: C_5  and  C_30 
REMARK    4  A    between atoms: C_8  and  C_9 
REMARK    5  A    between atoms: C_17  and  C_18 
REMARK       I    between atoms: C_23  and  N_24 
REMARK    6  A    between atoms: N_24  and  C_25 
ROOT
HETATM    1  N   UNK N   1      25.658  17.040   4.450  0.00  0.00    -0.333 N 
HETATM    2  C   UNK N   1      26.759  16.488   5.011  0.00  0.00     0.088 A 
HETATM    3  N   UNK N   1      26.449  15.524   5.891  0.00  0.00    -0.343 N 
ATOM      4  HN  UNK N   1      27.103  14.956   6.429  1.00  0.00     0.167 HD
HETATM    5  C   UNK N   1      25.098  15.454   5.925  0.00  0.00     0.073 A 
HETATM    6  C   UNK N   1      24.586  16.417   5.013  0.00  0.00     0.091 A 
ENDROOT
BRANCH   6   7
HETATM    7  C   UNK N   1      23.167  16.879   4.764  0.00  0.00     0.079 A 
HETATM    8  C   UNK N   1      22.571  17.860   5.550  0.00  0.00     0.050 A 
HETATM    9  C   UNK N   1      21.335  18.383   5.200  0.00  0.00     0.108 A 
HETATM   10  N   UNK N   1      20.712  17.939   4.087  0.00  0.00    -0.202 N 
HETATM   11  C   UNK N   1      21.263  16.956   3.335  0.00  0.00     0.678 A 
ATOM     12  HN  UNK N   1      19.820  18.347   3.810  1.00  0.00     0.183 HD
HETATM   13  N   UNK N   1      20.572  16.500   2.193  0.00  0.00    -0.221 N 
HETATM   14  N   UNK N   1      22.478  16.434   3.674  0.00  0.00    -0.190 N 
HETATM   15  H   UNK N   1      20.393  17.128   1.456  0.00  0.00     0.178 HD
ATOM     16  HN  UNK N   1      22.881  15.694   3.099  1.00  0.00     0.184 HD
BRANCH  13  17
HETATM   17  C   UNK N   1      20.127  15.139   2.082  0.00  0.00     0.099 A 
HETATM   18  C   UNK N   1      19.491  14.934   0.715  0.00  0.00     0.028 A 
HETATM   19  C   UNK N   1      20.908  14.476   0.961  0.00  0.00     0.028 A 
ENDBRANCH  13  17
ENDBRANCH   6   7
BRANCH   5  20
HETATM   20  C   UNK N   1      24.452  14.587   6.962  0.00  0.00    -0.005 A 
HETATM   21  C   UNK N   1      25.276  13.900   7.870  0.00  0.00     0.015 A 
HETATM   22  C   UNK N   1      24.729  13.238   8.975  0.00  0.00     0.026 A 
HETATM   23  C   UNK N   1      23.349  13.259   9.194  0.00  0.00     0.055 A 
HETATM   24 Cl   UNK N   1      22.696  12.497  10.635  0.00  0.00    -0.083 Cl
HETATM   25  C   UNK N   1      22.516  13.906   8.274  0.00  0.00     0.056 A 
HETATM   26 Cl   UNK N   1      20.774  13.977   8.496  0.00  0.00    -0.083 Cl
HETATM   27  C   UNK N   1      23.077  14.560   7.180  0.00  0.00     0.039 A 
ENDBRANCH   5  20
BRANCH   1  28
HETATM   28  C   UNK N   1      25.658  18.174   3.534  0.00  0.00     0.130 C 
BRANCH  28  29
HETATM   29  C   UNK N   1      25.648  19.484   4.302  0.00  0.00     0.016 C 
HETATM   30  C   UNK N   1      26.744  20.380   3.766  0.00  0.00     0.006 C 
ENDBRANCH  28  29
ENDBRANCH   1  28
BRANCH   2  31
HETATM   31  C   UNK N   1      28.166  17.042   4.897  0.00  0.00     0.057 C 
HETATM   32  C   UNK N   1      29.276  16.104   4.443  0.00  0.00     0.042 C 
HETATM   33  C   UNK N   1      29.840  15.332   5.633  0.00  0.00     0.272 C 
HETATM   34  N   UNK N   1      30.297  16.228   6.704  0.00  0.00     0.084 N 
HETATM   35  C   UNK N   1      31.429  17.033   6.253  0.00  0.00     0.309 C 
HETATM   36  C   UNK N   1      29.204  17.086   7.179  0.00  0.00     0.272 C 
HETATM   37  C   UNK N   1      28.602  17.935   6.055  0.00  0.00     0.042 C 
ENDBRANCH   2  31
TORSDOF 6
ENDMDL
MODEL 4
REMARK VINA RESULT:      -7.4      3.654      8.588
REMARK  6 active torsions:
REMARK  status: ('A' for Active; 'I' for Inactive)
REMARK    1  A    between atoms: C_2  and  C_3 
REMARK    2  A    between atoms: C_3  and  N_4 
REMARK    3  A    between atoms: C_5  and  C_30 
REMARK    4  A    between atoms: C_8  and  C_9 
REMARK    5  A    between atoms: C_17  and  C_18 
REMARK       I    between atoms: C_23  and  N_24 
REMARK    6  A    between atoms: N_24  and  C_25 
ROOT
HETATM    1  N   UNK N   1      28.002  18.515   4.361  0.00  0.00    -0.333 N 
HETATM    2  C   UNK N   1      28.938  17.539   4.388  0.00  0.00     0.088 A 
HETATM    3  N   UNK N   1      28.496  16.399   3.836  0.00  0.00    -0.343 N 
ATOM      4  HN  UNK N   1      29.020  15.530   3.728  1.00  0.00     0.167 HD
HETATM    5  C   UNK N   1      27.219  16.627   3.452  0.00  0.00     0.073 A 
HETATM    6  C   UNK N   1      26.895  17.970   3.785  0.00  0.00     0.091 A 
ENDROOT
BRANCH   6   7
HETATM    7  C   UNK N   1      25.573  18.706   3.730  0.00  0.00     0.079 A 
HETATM    8  C   UNK N   1      25.429  19.892   3.019  0.00  0.00     0.050 A 
HETATM    9  C   UNK N   1      24.174  20.458   2.847  0.00  0.00     0.108 A 
HETATM   10  N   UNK N   1      23.088  19.846   3.369  0.00  0.00    -0.202 N 
HETATM   11  C   UNK N   1      23.219  18.712   4.097  0.00  0.00     0.678 A 
ATOM     12  HN  UNK N   1      22.162  20.243   3.213  1.00  0.00     0.183 HD
HETATM   13  N   UNK N   1      22.067  18.115   4.647  0.00  0.00    -0.221 N 
HETATM   14  N   UNK N   1      24.452  18.150   4.274  0.00  0.00    -0.190 N 
HETATM   15  H   UNK N   1      21.359  17.789   4.045  0.00  0.00     0.178 HD
ATOM     16  HN  UNK N   1      24.536  17.297   4.825  1.00  0.00     0.184 HD
BRANCH  13  17
HETATM   17  C   UNK N   1      21.905  17.971   6.067  0.00  0.00     0.099 A 
HETATM   18  C   UNK N   1      20.692  17.092   6.343  0.00  0.00     0.028 A 
HETATM   19  C   UNK N   1      22.080  16.503   6.416  0.00  0.00     0.028 A 
ENDBRANCH  13  17
ENDBRANCH   6   7
BRANCH   5  20
HETATM   20  C   UNK N   1      26.399  15.470   2.967  0.00  0.00    -0.005 A 
HETATM   21  C   UNK N   1      25.584  15.654   1.837  0.00  0.00     0.015 A 
HETATM   22  C   UNK N   1      24.952  14.565   1.224  0.00  0.00     0.026 A 
HETATM   23  C   UNK N   1      25.132  13.275   1.728  0.00  0.00     0.055 A 
HETATM   24 Cl   UNK N   1      24.402  11.916   0.890  0.00  0.00    -0.083 Cl
HETATM   25  C   UNK N   1      25.909  13.086   2.877  0.00  0.00     0.056 A 
HETATM   26 Cl   UNK N   1      26.182  11.489   3.555  0.00  0.00    -0.083 Cl
HETATM   27  C   UNK N   1      26.530  14.180   3.474  0.00  0.00     0.039 A 
ENDBRANCH   5  20
BRANCH   1  28
HETATM   28  C   UNK N   1      28.141  19.834   4.968  0.00  0.00     0.130 C 
BRANCH  28  29
HETATM   29  C   UNK N   1      27.537  19.848   6.361  0.00  0.00     0.016 C 
HETATM   30  C   UNK N   1      26.772  21.140   6.555  0.00  0.00     0.006 C 
ENDBRANCH  28  29
ENDBRANCH   1  28
BRANCH   2  31
HETATM   31  C   UNK N   1      30.233  17.595   5.175  0.00  0.00     0.057 C 
HETATM   32  C   UNK N   1      31.547  17.536   4.408  0.00  0.00     0.042 C 
HETATM   33  C   UNK N   1      31.947  16.086   4.145  0.00  0.00     0.272 C 
HETATM   34  N   UNK N   1      32.012  15.301   5.385  0.00  0.00     0.084 N 
HETATM   35  C   UNK N   1      33.077  15.797   6.253  0.00  0.00     0.309 C 
HETATM   36  C   UNK N   1      30.722  15.311   6.088  0.00  0.00     0.272 C 
HETATM   37  C   UNK N   1      30.260  16.731   6.432  0.00  0.00     0.042 C 
ENDBRANCH   2  31
TORSDOF 6
ENDMDL
MODEL 5
REMARK VINA RESULT:      -7.3      4.591      9.334
REMARK  6 active torsions:
REMARK  status: ('A' for Active; 'I' for Inactive)
REMARK    1  A    between atoms: C_2  and  C_3 
REMARK    2  A    between atoms: C_3  and  N_4 
REMARK    3  A    between atoms: C_5  and  C_30 
REMARK    4  A    between atoms: C_8  and  C_9 
REMARK    5  A    between atoms: C_17  and  C_18 
REMARK       I    between atoms: C_23  and  N_24 
REMARK    6  A    between atoms: N_24  and  C_25 
ROOT
HETATM    1  N   UNK N   1      26.483  18.010   5.241  0.00  0.00    -0.333 N 
HETATM    2  C   UNK N   1      27.553  17.325   5.706  0.00  0.00     0.088 A 
HETATM    3  N   UNK N   1      27.230  16.079   6.085  0.00  0.00    -0.343 N 
ATOM      4  HN  UNK N   1      27.864  15.370   6.455  1.00  0.00     0.167 HD
HETATM    5  C   UNK N   1      25.899  15.948   5.881  0.00  0.00     0.073 A 
HETATM    6  C   UNK N   1      25.415  17.173   5.347  0.00  0.00     0.091 A 
ENDROOT
BRANCH   6   7
HETATM    7  C   UNK N   1      24.000  17.639   5.081  0.00  0.00     0.079 A 
HETATM    8  C   UNK N   1      23.684  18.413   3.970  0.00  0.00     0.050 A 
HETATM    9  C   UNK N   1      22.360  18.687   3.660  0.00  0.00     0.108 A 
HETATM   10  N   UNK N   1      21.375  18.192   4.440  0.00  0.00    -0.202 N 
HETATM   11  C   UNK N   1      21.670  17.470   5.548  0.00  0.00     0.678 A 
ATOM     12  HN  UNK N   1      20.400  18.364   4.194  1.00  0.00     0.183 HD
HETATM   13  N   UNK N   1      20.616  16.990   6.353  0.00  0.00    -0.221 N 
HETATM   14  N   UNK N   1      22.971  17.199   5.862  0.00  0.00    -0.190 N 
HETATM   15  H   UNK N   1      19.965  16.359   5.968  0.00  0.00     0.178 HD
ATOM     16  HN  UNK N   1      23.178  16.655   6.699  1.00  0.00     0.184 HD
BRANCH  13  17
HETATM   17  C   UNK N   1      20.473  17.403   7.721  0.00  0.00     0.099 A 
HETATM   18  C   UNK N   1      19.234  16.745   8.312  0.00  0.00     0.028 A 
HETATM   19  C   UNK N   1      20.600  16.172   8.601  0.00  0.00     0.028 A 
ENDBRANCH  13  17
ENDBRANCH   6   7
BRANCH   5  20
HETATM   20  C   UNK N   1      25.215  14.715   6.389  0.00  0.00    -0.005 A 
HETATM   21  C   UNK N   1      24.706  13.798   5.453  0.00  0.00     0.015 A 
HETATM   22  C   UNK N   1      24.236  12.544   5.861  0.00  0.00     0.026 A 
HETATM   23  C   UNK N   1      24.275  12.185   7.210  0.00  0.00     0.055 A 
HETATM   24 Cl   UNK N   1      23.764  10.574   7.686  0.00  0.00    -0.083 Cl
HETATM   25  C   UNK N   1      24.743  13.106   8.155  0.00  0.00     0.056 A 
HETATM   26 Cl   UNK N   1      24.826  12.713   9.866  0.00  0.00    -0.083 Cl
HETATM   27  C   UNK N   1      25.206  14.349   7.732  0.00  0.00     0.039 A 
ENDBRANCH   5  20
BRANCH   1  28
HETATM   28  C   UNK N   1      26.488  19.414   4.848  0.00  0.00     0.130 C 
BRANCH  28  29
HETATM   29  C   UNK N   1      26.235  20.308   6.049  0.00  0.00     0.016 C 
HETATM   30  C   UNK N   1      27.292  21.390   6.092  0.00  0.00     0.006 C 
ENDBRANCH  28  29
ENDBRANCH   1  28
BRANCH   2  31
HETATM   31  C   UNK N   1      28.903  17.934   6.034  0.00  0.00     0.057 C 
HETATM   32  C   UNK N   1      30.152  17.256   5.488  0.00  0.00     0.042 C 
HETATM   33  C   UNK N   1      30.601  16.135   6.423  0.00  0.00     0.272 C 
HETATM   34  N   UNK N   1      30.805  16.613   7.796  0.00  0.00     0.084 N 
HETATM   35  C   UNK N   1      31.911  17.566   7.851  0.00  0.00     0.309 C 
HETATM   36  C   UNK N   1      29.578  17.210   8.338  0.00  0.00     0.272 C 
HETATM   37  C   UNK N   1      29.074  18.378   7.483  0.00  0.00     0.042 C 
ENDBRANCH   2  31
TORSDOF 6
ENDMDL
MODEL 6
REMARK VINA RESULT:      -7.2      2.206      7.276
REMARK  6 active torsions:
REMARK  status: ('A' for Active; 'I' for Inactive)
REMARK    1  A    between atoms: C_2  and  C_3 
REMARK    2  A    between atoms: C_3  and  N_4 
REMARK    3  A    between atoms: C_5  and  C_30 
REMARK    4  A    between atoms: C_8  and  C_9 
REMARK    5  A    between atoms: C_17  and  C_18 
REMARK       I    between atoms: C_23  and  N_24 
REMARK    6  A    between atoms: N_24  and  C_25 
ROOT
HETATM    1  N   UNK N   1      29.488  17.205   7.080  0.00  0.00    -0.333 N 
HETATM    2  C   UNK N   1      30.779  16.803   7.141  0.00  0.00     0.088 A 
HETATM    3  N   UNK N   1      31.078  15.915   6.181  0.00  0.00    -0.343 N 
ATOM      4  HN  UNK N   1      31.985  15.479   6.015  1.00  0.00     0.167 HD
HETATM    5  C   UNK N   1      29.940  15.710   5.478  0.00  0.00     0.073 A 
HETATM    6  C   UNK N   1      28.922  16.524   6.045  0.00  0.00     0.091 A 
ENDROOT
BRANCH   6   7
HETATM    7  C   UNK N   1      27.436  16.578   5.765  0.00  0.00     0.079 A 
HETATM    8  C   UNK N   1      26.574  15.583   6.211  0.00  0.00     0.050 A 
HETATM    9  C   UNK N   1      25.201  15.737   6.088  0.00  0.00     0.108 A 
HETATM   10  N   UNK N   1      24.702  16.865   5.537  0.00  0.00    -0.202 N 
HETATM   11  C   UNK N   1      25.531  17.826   5.063  0.00  0.00     0.678 A 
ATOM     12  HN  UNK N   1      23.693  16.995   5.477  1.00  0.00     0.183 HD
HETATM   13  N   UNK N   1      24.976  18.979   4.472  0.00  0.00    -0.221 N 
HETATM   14  N   UNK N   1      26.885  17.680   5.178  0.00  0.00    -0.190 N 
HETATM   15  H   UNK N   1      24.405  19.571   5.014  0.00  0.00     0.178 HD
ATOM     16  HN  UNK N   1      27.497  18.410   4.816  1.00  0.00     0.184 HD
BRANCH  13  17
HETATM   17  C   UNK N   1      25.226  19.308   3.097  0.00  0.00     0.099 A 
HETATM   18  C   UNK N   1      24.591  20.656   2.784  0.00  0.00     0.028 A 
HETATM   19  C   UNK N   1      26.072  20.568   3.059  0.00  0.00     0.028 A 
ENDBRANCH  13  17
ENDBRANCH   6   7
BRANCH   5  20
HETATM   20  C   UNK N   1      29.919  14.620   4.450  0.00  0.00    -0.005 A 
HETATM   21  C   UNK N   1      29.198  14.832   3.263  0.00  0.00     0.015 A 
HETATM   22  C   UNK N   1      29.303  13.939   2.190  0.00  0.00     0.026 A 
HETATM   23  C   UNK N   1      30.138  12.823   2.286  0.00  0.00     0.055 A 
HETATM   24 Cl   UNK N   1      30.323  11.766   0.896  0.00  0.00    -0.083 Cl
HETATM   25  C   UNK N   1      30.830  12.580   3.479  0.00  0.00     0.056 A 
HETATM   26 Cl   UNK N   1      31.903  11.201   3.660  0.00  0.00    -0.083 Cl
HETATM   27  C   UNK N   1      30.714  13.479   4.535  0.00  0.00     0.039 A 
ENDBRANCH   5  20
BRANCH   1  28
HETATM   28  C   UNK N   1      28.833  18.086   8.040  0.00  0.00     0.130 C 
BRANCH  28  29
HETATM   29  C   UNK N   1      28.118  17.277   9.107  0.00  0.00     0.016 C 
HETATM   30  C   UNK N   1      28.974  17.240  10.356  0.00  0.00     0.006 C 
ENDBRANCH  28  29
ENDBRANCH   1  28
BRANCH   2  31
HETATM   31  C   UNK N   1      31.725  17.083   8.292  0.00  0.00     0.057 C 
HETATM   32  C   UNK N   1      32.826  18.114   8.088  0.00  0.00     0.042 C 
HETATM   33  C   UNK N   1      34.049  17.466   7.441  0.00  0.00     0.272 C 
HETATM   34  N   UNK N   1      34.529  16.310   8.209  0.00  0.00     0.084 N 
HETATM   35  C   UNK N   1      35.020  16.731   9.519  0.00  0.00     0.309 C 
HETATM   36  C   UNK N   1      33.480  15.293   8.349  0.00  0.00     0.272 C 
HETATM   37  C   UNK N   1      32.224  15.844   9.031  0.00  0.00     0.042 C 
ENDBRANCH   2  31
TORSDOF 6
ENDMDL
MODEL 7
REMARK VINA RESULT:      -7.2      4.514      7.564
REMARK  6 active torsions:
REMARK  status: ('A' for Active; 'I' for Inactive)
REMARK    1  A    between atoms: C_2  and  C_3 
REMARK    2  A    between atoms: C_3  and  N_4 
REMARK    3  A    between atoms: C_5  and  C_30 
REMARK    4  A    between atoms: C_8  and  C_9 
REMARK    5  A    between atoms: C_17  and  C_18 
REMARK       I    between atoms: C_23  and  N_24 
REMARK    6  A    between atoms: N_24  and  C_25 
ROOT
HETATM    1  N   UNK N   1      23.569  17.165   4.146  0.00  0.00    -0.333 N 
HETATM    2  C   UNK N   1      23.013  16.087   3.548  0.00  0.00     0.088 A 
HETATM    3  N   UNK N   1      23.938  15.236   3.078  0.00  0.00    -0.343 N 
ATOM      4  HN  UNK N   1      23.767  14.350   2.603  1.00  0.00     0.167 HD
HETATM    5  C   UNK N   1      25.143  15.784   3.359  0.00  0.00     0.073 A 
HETATM    6  C   UNK N   1      24.918  17.014   4.036  0.00  0.00     0.091 A 
ENDROOT
BRANCH   6   7
HETATM    7  C   UNK N   1      25.885  18.107   4.439  0.00  0.00     0.079 A 
HETATM    8  C   UNK N   1      26.159  19.182   3.601  0.00  0.00     0.050 A 
HETATM    9  C   UNK N   1      26.917  20.250   4.058  0.00  0.00     0.108 A 
HETATM   10  N   UNK N   1      27.382  20.246   5.326  0.00  0.00    -0.202 N 
HETATM   11  C   UNK N   1      27.155  19.187   6.140  0.00  0.00     0.678 A 
ATOM     12  HN  UNK N   1      27.909  21.046   5.674  1.00  0.00     0.183 HD
HETATM   13  N   UNK N   1      27.677  19.206   7.449  0.00  0.00    -0.221 N 
HETATM   14  N   UNK N   1      26.413  18.129   5.697  0.00  0.00    -0.190 N 
HETATM   15  H   UNK N   1      27.380  19.905   8.076  0.00  0.00     0.178 HD
ATOM     16  HN  UNK N   1      26.251  17.339   6.320  1.00  0.00     0.184 HD
BRANCH  13  17
HETATM   17  C   UNK N   1      28.633  18.227   7.887  0.00  0.00     0.099 A 
HETATM   18  C   UNK N   1      29.111  18.590   9.287  0.00  0.00     0.028 A 
HETATM   19  C   UNK N   1      28.061  17.520   9.104  0.00  0.00     0.028 A 
ENDBRANCH  13  17
ENDBRANCH   6   7
BRANCH   5  20
HETATM   20  C   UNK N   1      26.372  15.145   2.787  0.00  0.00    -0.005 A 
HETATM   21  C   UNK N   1      27.599  15.818   2.916  0.00  0.00     0.015 A 
HETATM   22  C   UNK N   1      28.802  15.186   2.580  0.00  0.00     0.026 A 
HETATM   23  C   UNK N   1      28.797  13.868   2.118  0.00  0.00     0.055 A 
HETATM   24 Cl   UNK N   1      30.324  13.067   1.789  0.00  0.00    -0.083 Cl
HETATM   25  C   UNK N   1      27.577  13.202   1.948  0.00  0.00     0.056 A 
HETATM   26 Cl   UNK N   1      27.503  11.541   1.380  0.00  0.00    -0.083 Cl
HETATM   27  C   UNK N   1      26.390  13.846   2.287  0.00  0.00     0.039 A 
ENDBRANCH   5  20
BRANCH   1  28
HETATM   28  C   UNK N   1      22.834  18.313   4.667  0.00  0.00     0.130 C 
BRANCH  28  29
HETATM   29  C   UNK N   1      22.468  19.268   3.545  0.00  0.00     0.016 C 
HETATM   30  C   UNK N   1      20.997  19.610   3.647  0.00  0.00     0.006 C 
ENDBRANCH  28  29
ENDBRANCH   1  28
BRANCH   2  31
HETATM   31  C   UNK N   1      21.547  15.949   3.187  0.00  0.00     0.057 C 
HETATM   32  C   UNK N   1      20.690  14.989   4.002  0.00  0.00     0.042 C 
HETATM   33  C   UNK N   1      20.803  13.572   3.445  0.00  0.00     0.272 C 
HETATM   34  N   UNK N   1      20.466  13.514   2.016  0.00  0.00     0.084 N 
HETATM   35  C   UNK N   1      19.061  13.853   1.804  0.00  0.00     0.309 C 
HETATM   36  C   UNK N   1      21.338  14.396   1.230  0.00  0.00     0.272 C 
HETATM   37  C   UNK N   1      21.257  15.855   1.692  0.00  0.00     0.042 C 
ENDBRANCH   2  31
TORSDOF 6
ENDMDL
MODEL 8
REMARK VINA RESULT:      -7.1      4.152      9.098
REMARK  6 active torsions:
REMARK  status: ('A' for Active; 'I' for Inactive)
REMARK    1  A    between atoms: C_2  and  C_3 
REMARK    2  A    between atoms: C_3  and  N_4 
REMARK    3  A    between atoms: C_5  and  C_30 
REMARK    4  A    between atoms: C_8  and  C_9 
REMARK    5  A    between atoms: C_17  and  C_18 
REMARK       I    between atoms: C_23  and  N_24 
REMARK    6  A    between atoms: N_24  and  C_25 
ROOT
HETATM    1  N   UNK N   1      27.333  17.497   4.870  0.00  0.00    -0.333 N 
HETATM    2  C   UNK N   1      28.508  17.089   4.338  0.00  0.00     0.088 A 
HETATM    3  N   UNK N   1      28.340  16.119   3.426  0.00  0.00    -0.343 N 
ATOM      4  HN  UNK N   1      29.071  15.661   2.881  1.00  0.00     0.167 HD
HETATM    5  C   UNK N   1      27.012  15.866   3.373  0.00  0.00     0.073 A 
HETATM    6  C   UNK N   1      26.363  16.737   4.290  0.00  0.00     0.091 A 
ENDROOT
BRANCH   6   7
HETATM    7  C   UNK N   1      24.923  16.782   4.753  0.00  0.00     0.079 A 
HETATM    8  C   UNK N   1      24.433  15.887   5.697  0.00  0.00     0.050 A 
HETATM    9  C   UNK N   1      23.161  16.052   6.226  0.00  0.00     0.108 A 
HETATM   10  N   UNK N   1      22.401  17.094   5.825  0.00  0.00    -0.202 N 
HETATM   11  C   UNK N   1      22.851  17.951   4.877  0.00  0.00     0.678 A 
ATOM     12  HN  UNK N   1      21.480  17.237   6.238  1.00  0.00     0.183 HD
HETATM   13  N   UNK N   1      22.020  19.013   4.465  0.00  0.00    -0.221 N 
HETATM   14  N   UNK N   1      24.101  17.793   4.349  0.00  0.00    -0.190 N 
HETATM   15  H   UNK N   1      21.747  19.694   5.122  0.00  0.00     0.178 HD
ATOM     16  HN  UNK N   1      24.426  18.446   3.636  1.00  0.00     0.184 HD
BRANCH  13  17
HETATM   17  C   UNK N   1      21.566  19.123   3.107  0.00  0.00     0.099 A 
HETATM   18  C   UNK N   1      20.387  20.084   3.053  0.00  0.00     0.028 A 
HETATM   19  C   UNK N   1      21.764  20.560   2.657  0.00  0.00     0.028 A 
ENDBRANCH  13  17
ENDBRANCH   6   7
BRANCH   5  20
HETATM   20  C   UNK N   1      26.537  14.694   2.570  0.00  0.00    -0.005 A 
HETATM   21  C   UNK N   1      27.208  13.467   2.714  0.00  0.00     0.015 A 
HETATM   22  C   UNK N   1      26.693  12.296   2.146  0.00  0.00     0.026 A 
HETATM   23  C   UNK N   1      25.494  12.333   1.431  0.00  0.00     0.055 A 
HETATM   24 Cl   UNK N   1      24.821  10.837   0.804  0.00  0.00    -0.083 Cl
HETATM   25  C   UNK N   1      24.837  13.556   1.247  0.00  0.00     0.056 A 
HETATM   26 Cl   UNK N   1      23.322  13.669   0.366  0.00  0.00    -0.083 Cl
HETATM   27  C   UNK N   1      25.365  14.711   1.819  0.00  0.00     0.039 A 
ENDBRANCH   5  20
BRANCH   1  28
HETATM   28  C   UNK N   1      27.189  18.463   5.953  0.00  0.00     0.130 C 
BRANCH  28  29
HETATM   29  C   UNK N   1      26.964  19.859   5.399  0.00  0.00     0.016 C 
HETATM   30  C   UNK N   1      27.602  20.869   6.328  0.00  0.00     0.006 C 
ENDBRANCH  28  29
ENDBRANCH   1  28
BRANCH   2  31
HETATM   31  C   UNK N   1      29.880  17.455   4.869  0.00  0.00     0.057 C 
HETATM   32  C   UNK N   1      31.064  17.394   3.914  0.00  0.00     0.042 C 
HETATM   33  C   UNK N   1      31.632  15.977   3.860  0.00  0.00     0.272 C 
HETATM   34  N   UNK N   1      31.989  15.477   5.194  0.00  0.00     0.084 N 
HETATM   35  C   UNK N   1      33.083  16.260   5.761  0.00  0.00     0.309 C 
HETATM   36  C   UNK N   1      30.826  15.481   6.091  0.00  0.00     0.272 C 
HETATM   37  C   UNK N   1      30.214  16.877   6.241  0.00  0.00     0.042 C 
ENDBRANCH   2  31
TORSDOF 6
ENDMDL
MODEL 9
REMARK VINA RESULT:      -7.0      5.049     10.884
REMARK  6 active torsions:
REMARK  status: ('A' for Active; 'I' for Inactive)
REMARK    1  A    between atoms: C_2  and  C_3 
REMARK    2  A    between atoms: C_3  and  N_4 
REMARK    3  A    between atoms: C_5  and  C_30 
REMARK    4  A    between atoms: C_8  and  C_9 
REMARK    5  A    between atoms: C_17  and  C_18 
REMARK       I    between atoms: C_23  and  N_24 
REMARK    6  A    between atoms: N_24  and  C_25 
ROOT
HETATM    1  N   UNK N   1      35.730  12.205   9.925  0.00  0.00    -0.333 N 
HETATM    2  C   UNK N   1      36.081  11.048  10.532  0.00  0.00     0.088 A 
HETATM    3  N   UNK N   1      35.891  11.096  11.859  0.00  0.00    -0.343 N 
ATOM      4  HN  UNK N   1      36.069  10.347  12.528  1.00  0.00     0.167 HD
HETATM    5  C   UNK N   1      35.419  12.333  12.136  0.00  0.00     0.073 A 
HETATM    6  C   UNK N   1      35.315  13.047  10.912  0.00  0.00     0.091 A 
ENDROOT
BRANCH   6   7
HETATM    7  C   UNK N   1      35.000  14.503  10.645  0.00  0.00     0.079 A 
HETATM    8  C   UNK N   1      35.765  15.527  11.193  0.00  0.00     0.050 A 
HETATM    9  C   UNK N   1      35.559  16.842  10.803  0.00  0.00     0.108 A 
HETATM   10  N   UNK N   1      34.614  17.124   9.880  0.00  0.00    -0.202 N 
HETATM   11  C   UNK N   1      33.835  16.142   9.368  0.00  0.00     0.678 A 
ATOM     12  HN  UNK N   1      34.485  18.086   9.567  1.00  0.00     0.183 HD
HETATM   13  N   UNK N   1      32.842  16.478   8.425  0.00  0.00    -0.221 N 
HETATM   14  N   UNK N   1      34.029  14.845   9.749  0.00  0.00    -0.190 N 
HETATM   15  H   UNK N   1      33.109  16.879   7.566  0.00  0.00     0.178 HD
ATOM     16  HN  UNK N   1      33.435  14.116   9.355  1.00  0.00     0.184 HD
BRANCH  13  17
HETATM   17  C   UNK N   1      31.450  16.246   8.691  0.00  0.00     0.099 A 
HETATM   18  C   UNK N   1      30.704  17.571   8.631  0.00  0.00     0.028 A 
HETATM   19  C   UNK N   1      30.661  16.630   7.451  0.00  0.00     0.028 A 
ENDBRANCH  13  17
ENDBRANCH   6   7
BRANCH   5  20
HETATM   20  C   UNK N   1      35.287  12.745  13.571  0.00  0.00    -0.005 A 
HETATM   21  C   UNK N   1      34.394  12.035  14.393  0.00  0.00     0.015 A 
HETATM   22  C   UNK N   1      34.372  12.243  15.776  0.00  0.00     0.026 A 
HETATM   23  C   UNK N   1      35.250  13.159  16.361  0.00  0.00     0.055 A 
HETATM   24 Cl   UNK N   1      35.267  13.337  18.108  0.00  0.00    -0.083 Cl
HETATM   25  C   UNK N   1      36.116  13.900  15.549  0.00  0.00     0.056 A 
HETATM   26 Cl   UNK N   1      37.251  15.060  16.223  0.00  0.00    -0.083 Cl
HETATM   27  C   UNK N   1      36.124  13.680  14.174  0.00  0.00     0.039 A 
ENDBRANCH   5  20
BRANCH   1  28
HETATM   28  C   UNK N   1      35.909  12.502   8.508  0.00  0.00     0.130 C 
BRANCH  28  29
HETATM   29  C   UNK N   1      37.281  13.103   8.257  0.00  0.00     0.016 C 
HETATM   30  C   UNK N   1      37.986  12.297   7.187  0.00  0.00     0.006 C 
ENDBRANCH  28  29
ENDBRANCH   1  28
BRANCH   2  31
HETATM   31  C   UNK N   1      36.851   9.919   9.876  0.00  0.00     0.057 C 
HETATM   32  C   UNK N   1      36.146   8.584   9.678  0.00  0.00     0.042 C 
HETATM   33  C   UNK N   1      36.263   7.728  10.938  0.00  0.00     0.272 C 
HETATM   34  N   UNK N   1      37.661   7.543  11.349  0.00  0.00     0.084 N 
HETATM   35  C   UNK N   1      38.395   6.775  10.346  0.00  0.00     0.309 C 
HETATM   36  C   UNK N   1      38.316   8.834  11.597  0.00  0.00     0.272 C 
HETATM   37  C   UNK N   1      38.285   9.747  10.368  0.00  0.00     0.042 C 
ENDBRANCH   2  31
TORSDOF 6
ENDMDL
