MODEL 1
REMARK VINA RESULT:      -5.0      0.000      0.000
REMARK  3 active torsions:
REMARK  status: ('A' for Active; 'I' for Inactive)
REMARK    1  A    between atoms: C_7  and  C_6 
REMARK    2  A    between atoms: S_11  and  C_6 
REMARK    3  A    between atoms: S_11  and  O_8 
ROOT
HETATM    1  C   UNK N   1      35.280  12.167  19.395  0.00  0.00     0.000 A 
HETATM    2  C   UNK N   1      35.372  11.023  18.594  0.00  0.00     0.001 A 
HETATM    3  C   UNK N   1      35.170  13.427  18.801  0.00  0.00     0.001 A 
HETATM    4  C   UNK N   1      35.354  11.139  17.203  0.00  0.00     0.008 A 
HETATM    5  C   UNK N   1      35.148  13.544  17.410  0.00  0.00     0.008 A 
HETATM    6  C   UNK N   1      35.245  12.400  16.602  0.00  0.00    -0.043 A 
ENDROOT
BRANCH   6   7
HETATM    7  C   UNK N   1      35.177  12.515  15.112  0.00  0.00     0.194 C 
BRANCH   7   8
HETATM    8  S   UNK N   1      36.335  13.764  14.454  0.00  0.00     0.098 S 
HETATM    9  O   UNK N   1      36.927  12.380  14.152  0.00  0.00    -0.601 OA
HETATM   10  O   UNK N   1      35.076  13.725  13.572  0.00  0.00    -0.601 OA
BRANCH   8  11
HETATM   11  O   UNK N   1      36.939  13.990  12.863  0.00  0.00    -0.295 OA
HETATM   12  H   UNK N   1      36.803  13.313  12.183  0.00  0.00     0.232 HD
ENDBRANCH   8  11
ENDBRANCH   7   8
ENDBRANCH   6   7
TORSDOF 3
ENDMDL
MODEL 2
REMARK VINA RESULT:      -5.0     14.418     15.490
REMARK  3 active torsions:
REMARK  status: ('A' for Active; 'I' for Inactive)
REMARK    1  A    between atoms: C_7  and  C_6 
REMARK    2  A    between atoms: S_11  and  C_6 
REMARK    3  A    between atoms: S_11  and  O_8 
ROOT
HETATM    1  C   UNK N   1      24.520  12.122  11.284  0.00  0.00     0.000 A 
HETATM    2  C   UNK N   1      24.619  12.710  10.018  0.00  0.00     0.001 A 
HETATM    3  C   UNK N   1      23.262  11.867  11.838  0.00  0.00     0.001 A 
HETATM    4  C   UNK N   1      23.464  13.041   9.307  0.00  0.00     0.008 A 
HETATM    5  C   UNK N   1      22.107  12.194  11.127  0.00  0.00     0.008 A 
HETATM    6  C   UNK N   1      22.200  12.788   9.859  0.00  0.00    -0.043 A 
ENDROOT
BRANCH   6   7
HETATM    7  C   UNK N   1      20.966  13.101   9.073  0.00  0.00     0.194 C 
BRANCH   7   8
HETATM    8  S   UNK N   1      20.519  14.869   9.149  0.00  0.00     0.098 S 
HETATM    9  O   UNK N   1      20.284  14.394   7.708  0.00  0.00    -0.601 OA
HETATM   10  O   UNK N   1      19.454  14.045   9.890  0.00  0.00    -0.601 OA
BRANCH   8  11
HETATM   11  O   UNK N   1      19.044  15.660   8.765  0.00  0.00    -0.295 OA
HETATM   12  H   UNK N   1      18.427  15.269   8.128  0.00  0.00     0.232 HD
ENDBRANCH   8  11
ENDBRANCH   7   8
ENDBRANCH   6   7
TORSDOF 3
ENDMDL
MODEL 3
REMARK VINA RESULT:      -4.8     22.534     23.950
REMARK  3 active torsions:
REMARK  status: ('A' for Active; 'I' for Inactive)
REMARK    1  A    between atoms: C_7  and  C_6 
REMARK    2  A    between atoms: S_11  and  C_6 
REMARK    3  A    between atoms: S_11  and  O_8 
ROOT
HETATM    1  C   UNK N   1      26.321  23.767  -5.529  0.00  0.00     0.000 A 
HETATM    2  C   UNK N   1      26.260  24.266  -4.223  0.00  0.00     0.001 A 
HETATM    3  C   UNK N   1      27.543  23.339  -6.055  0.00  0.00     0.001 A 
HETATM    4  C   UNK N   1      27.417  24.337  -3.445  0.00  0.00     0.008 A 
HETATM    5  C   UNK N   1      28.700  23.406  -5.278  0.00  0.00     0.008 A 
HETATM    6  C   UNK N   1      28.645  23.911  -3.969  0.00  0.00    -0.043 A 
ENDROOT
BRANCH   6   7
HETATM    7  C   UNK N   1      29.873  23.944  -3.115  0.00  0.00     0.194 C 
BRANCH   7   8
HETATM    8  S   UNK N   1      30.642  22.298  -2.933  0.00  0.00     0.098 S 
HETATM    9  O   UNK N   1      31.669  23.216  -3.612  0.00  0.00    -0.601 OA
HETATM   10  O   UNK N   1      30.543  22.966  -1.552  0.00  0.00    -0.601 OA
BRANCH   8  11
HETATM   11  O   UNK N   1      32.093  21.830  -2.144  0.00  0.00    -0.295 OA
HETATM   12  H   UNK N   1      32.831  22.453  -2.059  0.00  0.00     0.232 HD
ENDBRANCH   8  11
ENDBRANCH   7   8
ENDBRANCH   6   7
TORSDOF 3
ENDMDL
MODEL 4
REMARK VINA RESULT:      -4.7     20.553     21.444
REMARK  3 active torsions:
REMARK  status: ('A' for Active; 'I' for Inactive)
REMARK    1  A    between atoms: C_7  and  C_6 
REMARK    2  A    between atoms: S_11  and  C_6 
REMARK    3  A    between atoms: S_11  and  O_8 
ROOT
HETATM    1  C   UNK N   1      20.324  15.112   1.943  0.00  0.00     0.000 A 
HETATM    2  C   UNK N   1      20.173  15.883   0.786  0.00  0.00     0.001 A 
HETATM    3  C   UNK N   1      20.430  15.737   3.189  0.00  0.00     0.001 A 
HETATM    4  C   UNK N   1      20.127  17.276   0.874  0.00  0.00     0.008 A 
HETATM    5  C   UNK N   1      20.381  17.129   3.278  0.00  0.00     0.008 A 
HETATM    6  C   UNK N   1      20.234  17.908   2.120  0.00  0.00    -0.043 A 
ENDROOT
BRANCH   6   7
HETATM    7  C   UNK N   1      20.136  19.398   2.214  0.00  0.00     0.194 C 
BRANCH   7   8
HETATM    8  S   UNK N   1      21.711  20.171   2.718  0.00  0.00     0.098 S 
HETATM    9  O   UNK N   1      21.383  20.670   1.303  0.00  0.00    -0.601 OA
HETATM   10  O   UNK N   1      20.558  20.807   3.511  0.00  0.00    -0.601 OA
BRANCH   8  11
HETATM   11  O   UNK N   1      22.151  21.827   2.829  0.00  0.00    -0.295 OA
HETATM   12  H   UNK N   1      21.576  22.515   2.459  0.00  0.00     0.232 HD
ENDBRANCH   8  11
ENDBRANCH   7   8
ENDBRANCH   6   7
TORSDOF 3
ENDMDL
MODEL 5
REMARK VINA RESULT:      -4.6     10.760     11.650
REMARK  3 active torsions:
REMARK  status: ('A' for Active; 'I' for Inactive)
REMARK    1  A    between atoms: C_7  and  C_6 
REMARK    2  A    between atoms: S_11  and  C_6 
REMARK    3  A    between atoms: S_11  and  O_8 
ROOT
HETATM    1  C   UNK N   1      33.734  17.555   6.164  0.00  0.00     0.000 A 
HETATM    2  C   UNK N   1      32.526  17.078   5.642  0.00  0.00     0.001 A 
HETATM    3  C   UNK N   1      33.806  17.955   7.501  0.00  0.00     0.001 A 
HETATM    4  C   UNK N   1      31.393  17.001   6.455  0.00  0.00     0.008 A 
HETATM    5  C   UNK N   1      32.676  17.876   8.316  0.00  0.00     0.008 A 
HETATM    6  C   UNK N   1      31.460  17.403   7.797  0.00  0.00    -0.043 A 
ENDROOT
BRANCH   6   7
HETATM    7  C   UNK N   1      30.257  17.273   8.676  0.00  0.00     0.194 C 
BRANCH   7   8
HETATM    8  S   UNK N   1      28.974  18.514   8.292  0.00  0.00     0.098 S 
HETATM    9  O   UNK N   1      28.316  17.129   8.214  0.00  0.00    -0.601 OA
HETATM   10  O   UNK N   1      29.308  18.578   9.791  0.00  0.00    -0.601 OA
BRANCH   8  11
HETATM   11  O   UNK N   1      27.459  18.814   9.040  0.00  0.00    -0.295 OA
HETATM   12  H   UNK N   1      27.032  18.131   9.579  0.00  0.00     0.232 HD
ENDBRANCH   8  11
ENDBRANCH   7   8
ENDBRANCH   6   7
TORSDOF 3
ENDMDL
MODEL 6
REMARK VINA RESULT:      -4.6     10.553     12.004
REMARK  3 active torsions:
REMARK  status: ('A' for Active; 'I' for Inactive)
REMARK    1  A    between atoms: C_7  and  C_6 
REMARK    2  A    between atoms: S_11  and  C_6 
REMARK    3  A    between atoms: S_11  and  O_8 
ROOT
HETATM    1  C   UNK N   1      33.346  15.772   3.044  0.00  0.00     0.000 A 
HETATM    2  C   UNK N   1      33.970  15.184   4.150  0.00  0.00     0.001 A 
HETATM    3  C   UNK N   1      32.648  16.974   3.195  0.00  0.00     0.001 A 
HETATM    4  C   UNK N   1      33.897  15.796   5.403  0.00  0.00     0.008 A 
HETATM    5  C   UNK N   1      32.577  17.588   4.446  0.00  0.00     0.008 A 
HETATM    6  C   UNK N   1      33.197  17.001   5.559  0.00  0.00    -0.043 A 
ENDROOT
BRANCH   6   7
HETATM    7  C   UNK N   1      33.163  17.676   6.893  0.00  0.00     0.194 C 
BRANCH   7   8
HETATM    8  S   UNK N   1      34.518  17.130   7.988  0.00  0.00     0.098 S 
HETATM    9  O   UNK N   1      34.808  18.582   7.582  0.00  0.00    -0.601 OA
HETATM   10  O   UNK N   1      33.241  17.324   8.822  0.00  0.00    -0.601 OA
BRANCH   8  11
HETATM   11  O   UNK N   1      35.087  17.791   9.467  0.00  0.00    -0.295 OA
HETATM   12  H   UNK N   1      35.428  17.212  10.166  0.00  0.00     0.232 HD
ENDBRANCH   8  11
ENDBRANCH   7   8
ENDBRANCH   6   7
TORSDOF 3
ENDMDL
MODEL 7
REMARK VINA RESULT:      -4.6     18.767     19.859
REMARK  3 active torsions:
REMARK  status: ('A' for Active; 'I' for Inactive)
REMARK    1  A    between atoms: C_7  and  C_6 
REMARK    2  A    between atoms: S_11  and  C_6 
REMARK    3  A    between atoms: S_11  and  O_8 
ROOT
HETATM    1  C   UNK N   1      25.951  19.134   3.956  0.00  0.00     0.000 A 
HETATM    2  C   UNK N   1      24.802  18.471   4.399  0.00  0.00     0.001 A 
HETATM    3  C   UNK N   1      25.834  20.241   3.110  0.00  0.00     0.001 A 
HETATM    4  C   UNK N   1      23.539  18.912   3.999  0.00  0.00     0.008 A 
HETATM    5  C   UNK N   1      24.573  20.685   2.711  0.00  0.00     0.008 A 
HETATM    6  C   UNK N   1      23.417  20.021   3.149  0.00  0.00    -0.043 A 
ENDROOT
BRANCH   6   7
HETATM    7  C   UNK N   1      22.060  20.519   2.762  0.00  0.00     0.194 C 
BRANCH   7   8
HETATM    8  S   UNK N   1      20.760  19.259   2.998  0.00  0.00     0.098 S 
HETATM    9  O   UNK N   1      20.291  20.545   3.694  0.00  0.00    -0.601 OA
HETATM   10  O   UNK N   1      20.758  19.721   1.532  0.00  0.00    -0.601 OA
BRANCH   8  11
HETATM   11  O   UNK N   1      19.096  19.288   2.577  0.00  0.00    -0.295 OA
HETATM   12  H   UNK N   1      18.510  18.559   2.833  0.00  0.00     0.232 HD
ENDBRANCH   8  11
ENDBRANCH   7   8
ENDBRANCH   6   7
TORSDOF 3
ENDMDL
MODEL 8
REMARK VINA RESULT:      -4.5     10.131     11.014
REMARK  3 active torsions:
REMARK  status: ('A' for Active; 'I' for Inactive)
REMARK    1  A    between atoms: C_7  and  C_6 
REMARK    2  A    between atoms: S_11  and  C_6 
REMARK    3  A    between atoms: S_11  and  O_8 
ROOT
HETATM    1  C   UNK N   1      28.501  17.821   8.030  0.00  0.00     0.000 A 
HETATM    2  C   UNK N   1      29.223  18.448   9.051  0.00  0.00     0.001 A 
HETATM    3  C   UNK N   1      29.180  17.163   7.000  0.00  0.00     0.001 A 
HETATM    4  C   UNK N   1      30.619  18.418   9.043  0.00  0.00     0.008 A 
HETATM    5  C   UNK N   1      30.575  17.129   6.992  0.00  0.00     0.008 A 
HETATM    6  C   UNK N   1      31.304  17.761   8.012  0.00  0.00    -0.043 A 
ENDROOT
BRANCH   6   7
HETATM    7  C   UNK N   1      32.798  17.691   8.034  0.00  0.00     0.194 C 
BRANCH   7   8
HETATM    8  S   UNK N   1      33.484  16.930   6.522  0.00  0.00     0.098 S 
HETATM    9  O   UNK N   1      34.338  18.163   6.848  0.00  0.00    -0.601 OA
HETATM   10  O   UNK N   1      33.811  16.039   7.732  0.00  0.00    -0.601 OA
BRANCH   8  11
HETATM   11  O   UNK N   1      35.064  16.347   6.190  0.00  0.00    -0.295 OA
HETATM   12  H   UNK N   1      35.494  15.720   6.792  0.00  0.00     0.232 HD
ENDBRANCH   8  11
ENDBRANCH   7   8
ENDBRANCH   6   7
TORSDOF 3
ENDMDL
MODEL 9
REMARK VINA RESULT:      -4.4     12.393     14.125
REMARK  3 active torsions:
REMARK  status: ('A' for Active; 'I' for Inactive)
REMARK    1  A    between atoms: C_7  and  C_6 
REMARK    2  A    between atoms: S_11  and  C_6 
REMARK    3  A    between atoms: S_11  and  O_8 
ROOT
HETATM    1  C   UNK N   1      26.992  20.675   4.570  0.00  0.00     0.000 A 
HETATM    2  C   UNK N   1      27.034  21.013   5.927  0.00  0.00     0.001 A 
HETATM    3  C   UNK N   1      27.359  19.390   4.159  0.00  0.00     0.001 A 
HETATM    4  C   UNK N   1      27.441  20.068   6.872  0.00  0.00     0.008 A 
HETATM    5  C   UNK N   1      27.763  18.445   5.103  0.00  0.00     0.008 A 
HETATM    6  C   UNK N   1      27.812  18.779   6.465  0.00  0.00    -0.043 A 
ENDROOT
BRANCH   6   7
HETATM    7  C   UNK N   1      28.201  17.757   7.486  0.00  0.00     0.194 C 
BRANCH   7   8
HETATM    8  S   UNK N   1      28.928  18.507   8.983  0.00  0.00     0.098 S 
HETATM    9  O   UNK N   1      27.808  17.559   9.437  0.00  0.00    -0.601 OA
HETATM   10  O   UNK N   1      29.923  17.497   8.389  0.00  0.00    -0.601 OA
BRANCH   8  11
HETATM   11  O   UNK N   1      29.641  17.771  10.360  0.00  0.00    -0.295 OA
HETATM   12  H   UNK N   1      30.354  18.217  10.844  0.00  0.00     0.232 HD
ENDBRANCH   8  11
ENDBRANCH   7   8
ENDBRANCH   6   7
TORSDOF 3
ENDMDL
