MODEL 1
REMARK VINA RESULT:      -5.4      0.000      0.000
REMARK  5 active torsions:
REMARK  status: ('A' for Active; 'I' for Inactive)
REMARK    1  A    between atoms: C_4  and  C_3 
REMARK    2  A    between atoms: C_6  and  C_3 
REMARK    3  A    between atoms: C_5  and  C_7 
REMARK    4  A    between atoms: O_10  and  C_6 
REMARK    5  A    between atoms: O_12  and  C_7 
ROOT
HETATM    1  C   UNK N   1      31.034  17.089   6.536  0.00  0.00     0.028 C 
HETATM    2  C   UNK N   1      29.704  17.355   7.227  0.00  0.00     0.038 C 
HETATM    3  C   UNK N   1      32.065  17.092   7.658  0.00  0.00     0.087 C 
HETATM    4  C   UNK N   1      30.044  17.323   8.703  0.00  0.00     0.175 C 
HETATM    5  N   UNK N   1      31.431  17.747   8.791  0.00  0.00    -0.404 N 
HETATM    6  H   UNK N   1      31.859  18.361   9.484  0.00  0.00     0.154 HD
ENDROOT
BRANCH   3   7
HETATM    7  C   UNK N   1      33.339  17.847   7.286  0.00  0.00     0.134 C 
BRANCH   7   8
HETATM    8  C   UNK N   1      34.255  18.141   8.439  0.00  0.00     0.141 C 
HETATM    9  O   UNK N   1      35.028  19.082   8.362  0.00  0.00    -0.650 OA
BRANCH   8  10
HETATM   10  O   UNK N   1      34.229  17.391   9.558  0.00  0.00    -0.776 OA
HETATM   11  H   UNK N   1      33.541  16.767   9.691  0.00  0.00     0.167 HD
ENDBRANCH   8  10
ENDBRANCH   7   8
ENDBRANCH   3   7
BRANCH   4  12
HETATM   12  C   UNK N   1      29.135  18.194   9.524  0.00  0.00     0.163 C 
HETATM   13  O   UNK N   1      29.602  18.981  10.342  0.00  0.00    -0.648 OA
BRANCH  12  14
HETATM   14  O   UNK N   1      27.802  18.095   9.391  0.00  0.00    -0.775 OA
HETATM   15  H   UNK N   1      27.381  18.406   8.614  0.00  0.00     0.167 HD
ENDBRANCH  12  14
ENDBRANCH   4  12
TORSDOF 5
ENDMDL
MODEL 2
REMARK VINA RESULT:      -5.3      4.099      5.686
REMARK  5 active torsions:
REMARK  status: ('A' for Active; 'I' for Inactive)
REMARK    1  A    between atoms: C_4  and  C_3 
REMARK    2  A    between atoms: C_6  and  C_3 
REMARK    3  A    between atoms: C_5  and  C_7 
REMARK    4  A    between atoms: O_10  and  C_6 
REMARK    5  A    between atoms: O_12  and  C_7 
ROOT
HETATM    1  C   UNK N   1      35.097  14.887   9.671  0.00  0.00     0.028 C 
HETATM    2  C   UNK N   1      34.853  15.728   8.426  0.00  0.00     0.038 C 
HETATM    3  C   UNK N   1      34.839  15.832  10.838  0.00  0.00     0.087 C 
HETATM    4  C   UNK N   1      34.312  17.037   8.966  0.00  0.00     0.175 C 
HETATM    5  N   UNK N   1      34.894  17.179  10.291  0.00  0.00    -0.404 N 
HETATM    6  H   UNK N   1      35.256  18.024  10.732  0.00  0.00     0.154 HD
ENDROOT
BRANCH   3   7
HETATM    7  C   UNK N   1      35.879  15.695  11.948  0.00  0.00     0.134 C 
BRANCH   7   8
HETATM    8  C   UNK N   1      35.963  14.329  12.566  0.00  0.00     0.141 C 
HETATM    9  O   UNK N   1      34.967  13.843  13.077  0.00  0.00    -0.650 OA
BRANCH   8  10
HETATM   10  O   UNK N   1      37.114  13.630  12.556  0.00  0.00    -0.776 OA
HETATM   11  H   UNK N   1      37.480  13.336  11.744  0.00  0.00     0.167 HD
ENDBRANCH   8  10
ENDBRANCH   7   8
ENDBRANCH   3   7
BRANCH   4  12
HETATM   12  C   UNK N   1      34.638  18.206   8.080  0.00  0.00     0.163 C 
HETATM   13  O   UNK N   1      34.339  18.185   6.890  0.00  0.00    -0.648 OA
BRANCH  12  14
HETATM   14  O   UNK N   1      35.290  19.271   8.578  0.00  0.00    -0.775 OA
HETATM   15  H   UNK N   1      35.295  20.082   8.108  0.00  0.00     0.167 HD
ENDBRANCH  12  14
ENDBRANCH   4  12
TORSDOF 5
ENDMDL
MODEL 3
REMARK VINA RESULT:      -5.0     10.099     12.001
REMARK  5 active torsions:
REMARK  status: ('A' for Active; 'I' for Inactive)
REMARK    1  A    between atoms: C_4  and  C_3 
REMARK    2  A    between atoms: C_6  and  C_3 
REMARK    3  A    between atoms: C_5  and  C_7 
REMARK    4  A    between atoms: O_10  and  C_6 
REMARK    5  A    between atoms: O_12  and  C_7 
ROOT
HETATM    1  C   UNK N   1      20.219  17.098   2.654  0.00  0.00     0.028 C 
HETATM    2  C   UNK N   1      20.393  18.199   1.618  0.00  0.00     0.038 C 
HETATM    3  C   UNK N   1      20.196  17.822   3.994  0.00  0.00     0.087 C 
HETATM    4  C   UNK N   1      20.289  19.480   2.422  0.00  0.00     0.175 C 
HETATM    5  N   UNK N   1      20.760  19.141   3.754  0.00  0.00    -0.404 N 
HETATM    6  H   UNK N   1      21.349  19.697   4.374  0.00  0.00     0.154 HD
ENDROOT
BRANCH   3   7
HETATM    7  C   UNK N   1      21.020  17.108   5.064  0.00  0.00     0.134 C 
BRANCH   7   8
HETATM    8  C   UNK N   1      21.816  18.018   5.955  0.00  0.00     0.141 C 
HETATM    9  O   UNK N   1      21.260  18.579   6.885  0.00  0.00    -0.650 OA
BRANCH   8  10
HETATM   10  O   UNK N   1      23.133  18.215   5.750  0.00  0.00    -0.776 OA
HETATM   11  H   UNK N   1      23.423  18.902   5.181  0.00  0.00     0.167 HD
ENDBRANCH   8  10
ENDBRANCH   7   8
ENDBRANCH   3   7
BRANCH   4  12
HETATM   12  C   UNK N   1      21.076  20.608   1.816  0.00  0.00     0.163 C 
HETATM   13  O   UNK N   1      21.300  20.630   0.610  0.00  0.00    -0.648 OA
BRANCH  12  14
HETATM   14  O   UNK N   1      21.569  21.584   2.597  0.00  0.00    -0.775 OA
HETATM   15  H   UNK N   1      21.514  21.514   3.530  0.00  0.00     0.167 HD
ENDBRANCH  12  14
ENDBRANCH   4  12
TORSDOF 5
ENDMDL
MODEL 4
REMARK VINA RESULT:      -4.9     11.667     13.119
REMARK  5 active torsions:
REMARK  status: ('A' for Active; 'I' for Inactive)
REMARK    1  A    between atoms: C_4  and  C_3 
REMARK    2  A    between atoms: C_6  and  C_3 
REMARK    3  A    between atoms: C_5  and  C_7 
REMARK    4  A    between atoms: O_10  and  C_6 
REMARK    5  A    between atoms: O_12  and  C_7 
ROOT
HETATM    1  C   UNK N   1      21.273  18.089   3.611  0.00  0.00     0.028 C 
HETATM    2  C   UNK N   1      21.098  16.935   2.635  0.00  0.00     0.038 C 
HETATM    3  C   UNK N   1      20.124  19.041   3.302  0.00  0.00     0.087 C 
HETATM    4  C   UNK N   1      19.775  17.225   1.956  0.00  0.00     0.175 C 
HETATM    5  N   UNK N   1      19.633  18.671   1.983  0.00  0.00    -0.404 N 
HETATM    6  H   UNK N   1      19.276  19.283   1.250  0.00  0.00     0.154 HD
ENDROOT
BRANCH   3   7
HETATM    7  C   UNK N   1      20.559  20.505   3.286  0.00  0.00     0.134 C 
BRANCH   7   8
HETATM    8  C   UNK N   1      21.680  20.817   2.337  0.00  0.00     0.141 C 
HETATM    9  O   UNK N   1      22.709  21.308   2.772  0.00  0.00    -0.650 OA
BRANCH   8  10
HETATM   10  O   UNK N   1      21.572  20.555   1.020  0.00  0.00    -0.776 OA
HETATM   11  H   UNK N   1      22.337  20.360   0.515  0.00  0.00     0.167 HD
ENDBRANCH   8  10
ENDBRANCH   7   8
ENDBRANCH   3   7
BRANCH   4  12
HETATM   12  C   UNK N   1      19.711  16.679   0.557  0.00  0.00     0.163 C 
HETATM   13  O   UNK N   1      20.380  17.187  -0.338  0.00  0.00    -0.648 OA
BRANCH  12  14
HETATM   14  O   UNK N   1      18.896  15.651   0.268  0.00  0.00    -0.775 OA
HETATM   15  H   UNK N   1      18.011  15.811   0.003  0.00  0.00     0.167 HD
ENDBRANCH  12  14
ENDBRANCH   4  12
TORSDOF 5
ENDMDL
MODEL 5
REMARK VINA RESULT:      -4.9      8.746     11.177
REMARK  5 active torsions:
REMARK  status: ('A' for Active; 'I' for Inactive)
REMARK    1  A    between atoms: C_4  and  C_3 
REMARK    2  A    between atoms: C_6  and  C_3 
REMARK    3  A    between atoms: C_5  and  C_7 
REMARK    4  A    between atoms: O_10  and  C_6 
REMARK    5  A    between atoms: O_12  and  C_7 
ROOT
HETATM    1  C   UNK N   1      21.229  12.364  11.150  0.00  0.00     0.028 C 
HETATM    2  C   UNK N   1      22.716  12.103  11.341  0.00  0.00     0.038 C 
HETATM    3  C   UNK N   1      21.119  13.019   9.779  0.00  0.00     0.087 C 
HETATM    4  C   UNK N   1      23.329  12.472  10.005  0.00  0.00     0.175 C 
HETATM    5  N   UNK N   1      22.455  13.490   9.445  0.00  0.00    -0.404 N 
HETATM    6  H   UNK N   1      22.717  14.335   8.939  0.00  0.00     0.154 HD
ENDROOT
BRANCH   3   7
HETATM    7  C   UNK N   1      20.151  14.200   9.765  0.00  0.00     0.134 C 
BRANCH   7   8
HETATM    8  C   UNK N   1      20.339  15.154   8.621  0.00  0.00     0.141 C 
HETATM    9  O   UNK N   1      20.023  14.804   7.495  0.00  0.00    -0.650 OA
BRANCH   8  10
HETATM   10  O   UNK N   1      20.840  16.389   8.818  0.00  0.00    -0.776 OA
HETATM   11  H   UNK N   1      20.739  16.810   9.650  0.00  0.00     0.167 HD
ENDBRANCH   8  10
ENDBRANCH   7   8
ENDBRANCH   3   7
BRANCH   4  12
HETATM   12  C   UNK N   1      24.746  12.955  10.133  0.00  0.00     0.163 C 
HETATM   13  O   UNK N   1      25.289  13.539   9.201  0.00  0.00    -0.648 OA
BRANCH  12  14
HETATM   14  O   UNK N   1      25.441  12.720  11.259  0.00  0.00    -0.775 OA
HETATM   15  H   UNK N   1      25.030  12.819  12.096  0.00  0.00     0.167 HD
ENDBRANCH  12  14
ENDBRANCH   4  12
TORSDOF 5
ENDMDL
MODEL 6
REMARK VINA RESULT:      -4.8     13.009     14.263
REMARK  5 active torsions:
REMARK  status: ('A' for Active; 'I' for Inactive)
REMARK    1  A    between atoms: C_4  and  C_3 
REMARK    2  A    between atoms: C_6  and  C_3 
REMARK    3  A    between atoms: C_5  and  C_7 
REMARK    4  A    between atoms: O_10  and  C_6 
REMARK    5  A    between atoms: O_12  and  C_7 
ROOT
HETATM    1  C   UNK N   1      29.126  22.436  -5.672  0.00  0.00     0.028 C 
HETATM    2  C   UNK N   1      30.165  21.837  -4.735  0.00  0.00     0.038 C 
HETATM    3  C   UNK N   1      28.859  23.831  -5.121  0.00  0.00     0.087 C 
HETATM    4  C   UNK N   1      30.541  22.985  -3.820  0.00  0.00     0.175 C 
HETATM    5  N   UNK N   1      29.360  23.831  -3.755  0.00  0.00    -0.404 N 
HETATM    6  H   UNK N   1      28.973  24.311  -2.942  0.00  0.00     0.154 HD
ENDROOT
BRANCH   3   7
HETATM    7  C   UNK N   1      27.375  24.189  -5.114  0.00  0.00     0.134 C 
BRANCH   7   8
HETATM    8  C   UNK N   1      26.854  24.683  -3.795  0.00  0.00     0.141 C 
HETATM    9  O   UNK N   1      26.426  23.878  -2.984  0.00  0.00    -0.650 OA
BRANCH   8  10
HETATM   10  O   UNK N   1      26.859  25.996  -3.492  0.00  0.00    -0.776 OA
HETATM   11  H   UNK N   1      26.316  26.592  -3.970  0.00  0.00     0.167 HD
ENDBRANCH   8  10
ENDBRANCH   7   8
ENDBRANCH   3   7
BRANCH   4  12
HETATM   12  C   UNK N   1      30.977  22.521  -2.459  0.00  0.00     0.163 C 
HETATM   13  O   UNK N   1      30.487  23.015  -1.449  0.00  0.00    -0.648 OA
BRANCH  12  14
HETATM   14  O   UNK N   1      31.932  21.583  -2.339  0.00  0.00    -0.775 OA
HETATM   15  H   UNK N   1      31.700  20.696  -2.143  0.00  0.00     0.167 HD
ENDBRANCH  12  14
ENDBRANCH   4  12
TORSDOF 5
ENDMDL
MODEL 7
REMARK VINA RESULT:      -4.7      4.086      6.019
REMARK  5 active torsions:
REMARK  status: ('A' for Active; 'I' for Inactive)
REMARK    1  A    between atoms: C_4  and  C_3 
REMARK    2  A    between atoms: C_6  and  C_3 
REMARK    3  A    between atoms: C_5  and  C_7 
REMARK    4  A    between atoms: O_10  and  C_6 
REMARK    5  A    between atoms: O_12  and  C_7 
ROOT
HETATM    1  C   UNK N   1      35.487  14.955   9.123  0.00  0.00     0.028 C 
HETATM    2  C   UNK N   1      35.872  14.074  10.302  0.00  0.00     0.038 C 
HETATM    3  C   UNK N   1      35.427  16.367   9.691  0.00  0.00     0.087 C 
HETATM    4  C   UNK N   1      36.167  15.059  11.416  0.00  0.00     0.175 C 
HETATM    5  N   UNK N   1      35.339  16.220  11.136  0.00  0.00    -0.404 N 
HETATM    6  H   UNK N   1      34.817  16.796  11.797  0.00  0.00     0.154 HD
ENDROOT
BRANCH   3   7
HETATM    7  C   UNK N   1      34.219  17.154   9.189  0.00  0.00     0.134 C 
BRANCH   7   8
HETATM    8  C   UNK N   1      34.543  18.244   8.208  0.00  0.00     0.141 C 
HETATM    9  O   UNK N   1      34.086  18.185   7.078  0.00  0.00    -0.650 OA
BRANCH   8  10
HETATM   10  O   UNK N   1      35.319  19.289   8.559  0.00  0.00    -0.776 OA
HETATM   11  H   UNK N   1      35.218  20.115   8.128  0.00  0.00     0.167 HD
ENDBRANCH   8  10
ENDBRANCH   7   8
ENDBRANCH   3   7
BRANCH   4  12
HETATM   12  C   UNK N   1      35.895  14.488  12.779  0.00  0.00     0.163 C 
HETATM   13  O   UNK N   1      34.870  13.848  12.990  0.00  0.00    -0.648 OA
BRANCH  12  14
HETATM   14  O   UNK N   1      36.757  14.703  13.787  0.00  0.00    -0.775 OA
HETATM   15  H   UNK N   1      36.896  15.572  14.111  0.00  0.00     0.167 HD
ENDBRANCH  12  14
ENDBRANCH   4  12
TORSDOF 5
ENDMDL
MODEL 8
REMARK VINA RESULT:      -4.6     10.897     11.719
REMARK  5 active torsions:
REMARK  status: ('A' for Active; 'I' for Inactive)
REMARK    1  A    between atoms: C_4  and  C_3 
REMARK    2  A    between atoms: C_6  and  C_3 
REMARK    3  A    between atoms: C_5  and  C_7 
REMARK    4  A    between atoms: O_10  and  C_6 
REMARK    5  A    between atoms: O_12  and  C_7 
ROOT
HETATM    1  C   UNK N   1      21.678  15.256   7.474  0.00  0.00     0.028 C 
HETATM    2  C   UNK N   1      20.972  16.598   7.360  0.00  0.00     0.038 C 
HETATM    3  C   UNK N   1      20.900  14.494   8.540  0.00  0.00     0.087 C 
HETATM    4  C   UNK N   1      19.748  16.448   8.240  0.00  0.00     0.175 C 
HETATM    5  N   UNK N   1      20.124  15.488   9.265  0.00  0.00    -0.404 N 
HETATM    6  H   UNK N   1      19.898  15.509  10.260  0.00  0.00     0.154 HD
ENDROOT
BRANCH   3   7
HETATM    7  C   UNK N   1      21.809  13.752   9.517  0.00  0.00     0.134 C 
BRANCH   7   8
HETATM    8  C   UNK N   1      21.105  12.767  10.406  0.00  0.00     0.141 C 
HETATM    9  O   UNK N   1      19.913  12.909  10.627  0.00  0.00    -0.650 OA
BRANCH   8  10
HETATM   10  O   UNK N   1      21.765  11.728  10.953  0.00  0.00    -0.776 OA
HETATM   11  H   UNK N   1      21.820  11.643  11.886  0.00  0.00     0.167 HD
ENDBRANCH   8  10
ENDBRANCH   7   8
ENDBRANCH   3   7
BRANCH   4  12
HETATM   12  C   UNK N   1      19.295  17.754   8.829  0.00  0.00     0.163 C 
HETATM   13  O   UNK N   1      20.093  18.673   8.986  0.00  0.00    -0.648 OA
BRANCH  12  14
HETATM   14  O   UNK N   1      18.020  17.913   9.220  0.00  0.00    -0.775 OA
HETATM   15  H   UNK N   1      17.399  18.322   8.648  0.00  0.00     0.167 HD
ENDBRANCH  12  14
ENDBRANCH   4  12
TORSDOF 5
ENDMDL
MODEL 9
REMARK VINA RESULT:      -4.6     15.896     16.688
REMARK  5 active torsions:
REMARK  status: ('A' for Active; 'I' for Inactive)
REMARK    1  A    between atoms: C_4  and  C_3 
REMARK    2  A    between atoms: C_6  and  C_3 
REMARK    3  A    between atoms: C_5  and  C_7 
REMARK    4  A    between atoms: O_10  and  C_6 
REMARK    5  A    between atoms: O_12  and  C_7 
ROOT
HETATM    1  C   UNK N   1      26.408  26.711  -6.439  0.00  0.00     0.028 C 
HETATM    2  C   UNK N   1      26.626  28.089  -5.832  0.00  0.00     0.038 C 
HETATM    3  C   UNK N   1      25.534  25.973  -5.433  0.00  0.00     0.087 C 
HETATM    4  C   UNK N   1      25.728  28.099  -4.612  0.00  0.00     0.175 C 
HETATM    5  N   UNK N   1      25.638  26.713  -4.184  0.00  0.00    -0.404 N 
HETATM    6  H   UNK N   1      25.648  26.345  -3.233  0.00  0.00     0.154 HD
ENDROOT
BRANCH   3   7
HETATM    7  C   UNK N   1      25.983  24.532  -5.205  0.00  0.00     0.134 C 
BRANCH   7   8
HETATM    8  C   UNK N   1      26.956  24.348  -4.075  0.00  0.00     0.141 C 
HETATM    9  O   UNK N   1      28.143  24.548  -4.272  0.00  0.00    -0.650 OA
BRANCH   8  10
HETATM   10  O   UNK N   1      26.537  23.978  -2.849  0.00  0.00    -0.776 OA
HETATM   11  H   UNK N   1      25.836  23.362  -2.757  0.00  0.00     0.167 HD
ENDBRANCH   8  10
ENDBRANCH   7   8
ENDBRANCH   3   7
BRANCH   4  12
HETATM   12  C   UNK N   1      26.248  28.992  -3.520  0.00  0.00     0.163 C 
HETATM   13  O   UNK N   1      26.838  28.515  -2.556  0.00  0.00    -0.648 OA
BRANCH  12  14
HETATM   14  O   UNK N   1      26.040  30.319  -3.575  0.00  0.00    -0.775 OA
HETATM   15  H   UNK N   1      25.413  30.722  -3.007  0.00  0.00     0.167 HD
ENDBRANCH  12  14
ENDBRANCH   4  12
TORSDOF 5
ENDMDL
