MODEL 1
REMARK VINA RESULT:      -5.8      0.000      0.000
REMARK  5 active torsions:
REMARK  status: ('A' for Active; 'I' for Inactive)
REMARK    1  A    between atoms: C_6  and  C_5 
REMARK    2  A    between atoms: O_13  and  C_5 
REMARK    3  A    between atoms: C_7  and  O_14 
REMARK    4  A    between atoms: C_8  and  O_15 
REMARK    5  A    between atoms: C_9  and  N_12 
ROOT
HETATM    1  C   UNK N   1      35.457  13.187  12.533  0.00  0.00     0.179 C 
HETATM    2  C   UNK N   1      36.859  13.663  12.165  0.00  0.00     0.182 C 
HETATM    3  C   UNK N   1      36.555  14.329  10.861  0.00  0.00     0.198 C 
HETATM    4  C   UNK N   1      35.298  15.097  11.296  0.00  0.00     0.263 C 
HETATM    5  O   UNK N   1      34.545  14.166  12.061  0.00  0.00    -0.353 OA
ENDROOT
BRANCH   4   6
HETATM    6  N   UNK N   1      34.434  15.760  10.272  0.00  0.00    -0.280 N 
HETATM    7  C   UNK N   1      33.371  14.972   9.938  0.00  0.00     0.098 A 
HETATM    8  C   UNK N   1      32.320  15.170   9.062  0.00  0.00     0.019 A 
HETATM    9  C   UNK N   1      32.039  16.256   8.275  0.00  0.00     0.019 A 
HETATM   10  C   UNK N   1      32.767  17.413   8.188  0.00  0.00     0.093 A 
HETATM   11  N   UNK N   1      33.904  17.693   8.856  0.00  0.00    -0.319 N 
HETATM   12  C   UNK N   1      34.692  17.041   9.767  0.00  0.00     0.328 A 
HETATM   13  H   UNK N   1      34.255  18.586   8.634  0.00  0.00     0.170 HD
HETATM   14  O   UNK N   1      35.668  17.652  10.156  0.00  0.00    -0.246 OA
ENDBRANCH   4   6
BRANCH   3  15
HETATM   15  O   UNK N   1      37.602  15.162  10.450  0.00  0.00    -0.388 OA
HETATM   16  H   UNK N   1      38.240  15.087   9.724  0.00  0.00     0.210 HD
ENDBRANCH   3  15
BRANCH   2  17
HETATM   17  O   UNK N   1      37.781  12.620  12.050  0.00  0.00    -0.390 OA
HETATM   18  H   UNK N   1      38.181  12.145  12.794  0.00  0.00     0.210 HD
ENDBRANCH   2  17
BRANCH   1  19
HETATM   19  C   UNK N   1      35.297  13.007  14.041  0.00  0.00     0.198 C 
BRANCH  19  20
HETATM   20  O   UNK N   1      36.499  13.253  14.706  0.00  0.00    -0.398 OA
HETATM   21  H   UNK N   1      37.340  12.951  14.328  0.00  0.00     0.209 HD
ENDBRANCH  19  20
ENDBRANCH   1  19
TORSDOF 5
ENDMDL
MODEL 2
REMARK VINA RESULT:      -5.7     15.973     17.977
REMARK  5 active torsions:
REMARK  status: ('A' for Active; 'I' for Inactive)
REMARK    1  A    between atoms: C_6  and  C_5 
REMARK    2  A    between atoms: O_13  and  C_5 
REMARK    3  A    between atoms: C_7  and  O_14 
REMARK    4  A    between atoms: C_8  and  O_15 
REMARK    5  A    between atoms: C_9  and  N_12 
ROOT
HETATM    1  C   UNK N   1      31.357  21.780  -4.393  0.00  0.00     0.179 C 
HETATM    2  C   UNK N   1      31.261  21.661  -2.876  0.00  0.00     0.182 C 
HETATM    3  C   UNK N   1      30.603  22.969  -2.569  0.00  0.00     0.198 C 
HETATM    4  C   UNK N   1      29.527  22.933  -3.666  0.00  0.00     0.263 C 
HETATM    5  O   UNK N   1      30.205  22.485  -4.832  0.00  0.00    -0.353 OA
ENDROOT
BRANCH   4   6
HETATM    6  N   UNK N   1      28.719  24.155  -3.962  0.00  0.00    -0.280 N 
HETATM    7  C   UNK N   1      29.274  24.879  -4.978  0.00  0.00     0.098 A 
HETATM    8  C   UNK N   1      28.878  26.053  -5.591  0.00  0.00     0.019 A 
HETATM    9  C   UNK N   1      27.774  26.828  -5.352  0.00  0.00     0.019 A 
HETATM   10  C   UNK N   1      26.798  26.594  -4.420  0.00  0.00     0.093 A 
HETATM   11  N   UNK N   1      26.749  25.560  -3.558  0.00  0.00    -0.319 N 
HETATM   12  C   UNK N   1      27.532  24.470  -3.289  0.00  0.00     0.328 A 
HETATM   13  H   UNK N   1      25.954  25.598  -2.978  0.00  0.00     0.170 HD
HETATM   14  O   UNK N   1      27.131  23.734  -2.409  0.00  0.00    -0.246 OA
ENDBRANCH   4   6
BRANCH   3  15
HETATM   15  O   UNK N   1      30.076  22.990  -1.274  0.00  0.00    -0.388 OA
HETATM   16  H   UNK N   1      30.221  23.592  -0.527  0.00  0.00     0.210 HD
ENDBRANCH   3  15
BRANCH   2  17
HETATM   17  O   UNK N   1      32.504  21.512  -2.257  0.00  0.00    -0.390 OA
HETATM   18  H   UNK N   1      32.781  20.739  -1.741  0.00  0.00     0.210 HD
ENDBRANCH   2  17
BRANCH   1  19
HETATM   19  C   UNK N   1      31.420  20.411  -5.067  0.00  0.00     0.198 C 
BRANCH  19  20
HETATM   20  O   UNK N   1      31.899  19.441  -4.186  0.00  0.00    -0.398 OA
HETATM   21  H   UNK N   1      32.607  18.835  -4.459  0.00  0.00     0.209 HD
ENDBRANCH  19  20
ENDBRANCH   1  19
TORSDOF 5
ENDMDL
MODEL 3
REMARK VINA RESULT:      -5.7     19.610     21.338
REMARK  5 active torsions:
REMARK  status: ('A' for Active; 'I' for Inactive)
REMARK    1  A    between atoms: C_6  and  C_5 
REMARK    2  A    between atoms: O_13  and  C_5 
REMARK    3  A    between atoms: C_7  and  O_14 
REMARK    4  A    between atoms: C_8  and  O_15 
REMARK    5  A    between atoms: C_9  and  N_12 
ROOT
HETATM    1  C   UNK N   1      25.834  22.676  -7.700  0.00  0.00     0.179 C 
HETATM    2  C   UNK N   1      27.142  22.141  -7.128  0.00  0.00     0.182 C 
HETATM    3  C   UNK N   1      27.606  23.362  -6.398  0.00  0.00     0.198 C 
HETATM    4  C   UNK N   1      26.274  23.732  -5.727  0.00  0.00     0.263 C 
HETATM    5  O   UNK N   1      25.294  23.575  -6.744  0.00  0.00    -0.353 OA
ENDROOT
BRANCH   4   6
HETATM    6  N   UNK N   1      26.121  25.055  -5.047  0.00  0.00    -0.280 N 
HETATM    7  C   UNK N   1      25.542  25.972  -5.877  0.00  0.00     0.098 A 
HETATM    8  C   UNK N   1      25.197  27.296  -5.683  0.00  0.00     0.019 A 
HETATM    9  C   UNK N   1      25.331  28.073  -4.562  0.00  0.00     0.019 A 
HETATM   10  C   UNK N   1      25.854  27.686  -3.357  0.00  0.00     0.093 A 
HETATM   11  N   UNK N   1      26.345  26.469  -3.054  0.00  0.00    -0.319 N 
HETATM   12  C   UNK N   1      26.502  25.282  -3.719  0.00  0.00     0.328 A 
HETATM   13  H   UNK N   1      26.671  26.420  -2.126  0.00  0.00     0.170 HD
HETATM   14  O   UNK N   1      26.996  24.376  -3.076  0.00  0.00    -0.246 OA
ENDBRANCH   4   6
BRANCH   3  15
HETATM   15  O   UNK N   1      28.623  23.062  -5.486  0.00  0.00    -0.388 OA
HETATM   16  H   UNK N   1      29.016  23.578  -4.764  0.00  0.00     0.210 HD
ENDBRANCH   3  15
BRANCH   2  17
HETATM   17  O   UNK N   1      28.038  21.713  -8.110  0.00  0.00    -0.390 OA
HETATM   18  H   UNK N   1      28.605  22.295  -8.640  0.00  0.00     0.210 HD
ENDBRANCH   2  17
BRANCH   1  19
HETATM   19  C   UNK N   1      24.838  21.553  -7.984  0.00  0.00     0.198 C 
BRANCH  19  20
HETATM   20  O   UNK N   1      23.543  22.053  -8.116  0.00  0.00    -0.398 OA
HETATM   21  H   UNK N   1      23.005  21.826  -8.891  0.00  0.00     0.209 HD
ENDBRANCH  19  20
ENDBRANCH   1  19
TORSDOF 5
ENDMDL
MODEL 4
REMARK VINA RESULT:      -5.5      2.320      5.674
REMARK  5 active torsions:
REMARK  status: ('A' for Active; 'I' for Inactive)
REMARK    1  A    between atoms: C_6  and  C_5 
REMARK    2  A    between atoms: O_13  and  C_5 
REMARK    3  A    between atoms: C_7  and  O_14 
REMARK    4  A    between atoms: C_8  and  O_15 
REMARK    5  A    between atoms: C_9  and  N_12 
ROOT
HETATM    1  C   UNK N   1      33.737  14.948  10.248  0.00  0.00     0.179 C 
HETATM    2  C   UNK N   1      34.833  15.955   9.917  0.00  0.00     0.182 C 
HETATM    3  C   UNK N   1      35.720  15.749  11.103  0.00  0.00     0.198 C 
HETATM    4  C   UNK N   1      35.715  14.213  11.115  0.00  0.00     0.263 C 
HETATM    5  O   UNK N   1      34.359  13.848  10.894  0.00  0.00    -0.353 OA
ENDROOT
BRANCH   4   6
HETATM    6  N   UNK N   1      36.277  13.471  12.285  0.00  0.00    -0.280 N 
HETATM    7  C   UNK N   1      35.642  13.821  13.442  0.00  0.00     0.098 A 
HETATM    8  C   UNK N   1      35.809  13.394  14.746  0.00  0.00     0.019 A 
HETATM    9  C   UNK N   1      36.675  12.458  15.248  0.00  0.00     0.019 A 
HETATM   10  C   UNK N   1      37.589  11.726  14.539  0.00  0.00     0.093 A 
HETATM   11  N   UNK N   1      37.813  11.798  13.212  0.00  0.00    -0.319 N 
HETATM   12  C   UNK N   1      37.299  12.521  12.169  0.00  0.00     0.328 A 
HETATM   13  H   UNK N   1      38.521  11.178  12.921  0.00  0.00     0.170 HD
HETATM   14  O   UNK N   1      37.775  12.285  11.076  0.00  0.00    -0.246 OA
ENDBRANCH   4   6
BRANCH   3  15
HETATM   15  O   UNK N   1      36.990  16.299  10.901  0.00  0.00    -0.388 OA
HETATM   16  H   UNK N   1      37.546  16.366  10.109  0.00  0.00     0.210 HD
ENDBRANCH   3  15
BRANCH   2  17
HETATM   17  O   UNK N   1      34.360  17.265   9.803  0.00  0.00    -0.390 OA
HETATM   18  H   UNK N   1      33.594  17.537   9.275  0.00  0.00     0.210 HD
ENDBRANCH   2  17
BRANCH   1  19
HETATM   19  C   UNK N   1      33.005  14.473   8.994  0.00  0.00     0.198 C 
BRANCH  19  20
HETATM   20  O   UNK N   1      32.288  13.303   9.245  0.00  0.00    -0.398 OA
HETATM   21  H   UNK N   1      32.336  12.555   8.629  0.00  0.00     0.209 HD
ENDBRANCH  19  20
ENDBRANCH   1  19
TORSDOF 5
ENDMDL
MODEL 5
REMARK VINA RESULT:      -5.4      2.826      6.047
REMARK  5 active torsions:
REMARK  status: ('A' for Active; 'I' for Inactive)
REMARK    1  A    between atoms: C_6  and  C_5 
REMARK    2  A    between atoms: O_13  and  C_5 
REMARK    3  A    between atoms: C_7  and  O_14 
REMARK    4  A    between atoms: C_8  and  O_15 
REMARK    5  A    between atoms: C_9  and  N_12 
ROOT
HETATM    1  C   UNK N   1      34.910  14.903  11.516  0.00  0.00     0.179 C 
HETATM    2  C   UNK N   1      36.331  14.742  10.988  0.00  0.00     0.182 C 
HETATM    3  C   UNK N   1      36.853  13.760  11.989  0.00  0.00     0.198 C 
HETATM    4  C   UNK N   1      35.653  12.801  11.998  0.00  0.00     0.263 C 
HETATM    5  O   UNK N   1      34.509  13.643  12.033  0.00  0.00    -0.353 OA
ENDROOT
BRANCH   4   6
HETATM    6  N   UNK N   1      35.555  11.735  13.042  0.00  0.00    -0.280 N 
HETATM    7  C   UNK N   1      34.605  12.042  13.973  0.00  0.00     0.098 A 
HETATM    8  C   UNK N   1      34.164  11.362  15.093  0.00  0.00     0.019 A 
HETATM    9  C   UNK N   1      34.559  10.145  15.581  0.00  0.00     0.019 A 
HETATM   10  C   UNK N   1      35.509   9.318  15.044  0.00  0.00     0.093 A 
HETATM   11  N   UNK N   1      36.241   9.556  13.937  0.00  0.00    -0.319 N 
HETATM   12  C   UNK N   1      36.329  10.567  13.019  0.00  0.00     0.328 A 
HETATM   13  H   UNK N   1      36.865   8.820  13.740  0.00  0.00     0.170 HD
HETATM   14  O   UNK N   1      37.134  10.402  12.124  0.00  0.00    -0.246 OA
ENDBRANCH   4   6
BRANCH   3  15
HETATM   15  O   UNK N   1      38.040  13.161  11.554  0.00  0.00    -0.388 OA
HETATM   16  H   UNK N   1      38.934  13.515  11.428  0.00  0.00     0.210 HD
ENDBRANCH   3  15
BRANCH   2  17
HETATM   17  O   UNK N   1      37.049  15.940  10.966  0.00  0.00    -0.390 OA
HETATM   18  H   UNK N   1      37.428  16.348  10.172  0.00  0.00     0.210 HD
ENDBRANCH   2  17
BRANCH   1  19
HETATM   19  C   UNK N   1      33.945  15.349  10.419  0.00  0.00     0.198 C 
BRANCH  19  20
HETATM   20  O   UNK N   1      32.624  15.061  10.765  0.00  0.00    -0.398 OA
HETATM   21  H   UNK N   1      32.227  14.209  10.524  0.00  0.00     0.209 HD
ENDBRANCH  19  20
ENDBRANCH   1  19
TORSDOF 5
ENDMDL
MODEL 6
REMARK VINA RESULT:      -5.3     11.544     14.122
REMARK  5 active torsions:
REMARK  status: ('A' for Active; 'I' for Inactive)
REMARK    1  A    between atoms: C_6  and  C_5 
REMARK    2  A    between atoms: O_13  and  C_5 
REMARK    3  A    between atoms: C_7  and  O_14 
REMARK    4  A    between atoms: C_8  and  O_15 
REMARK    5  A    between atoms: C_9  and  N_12 
ROOT
HETATM    1  C   UNK N   1      26.249  19.163   4.957  0.00  0.00     0.179 C 
HETATM    2  C   UNK N   1      26.570  20.203   3.889  0.00  0.00     0.182 C 
HETATM    3  C   UNK N   1      25.441  19.940   2.944  0.00  0.00     0.198 C 
HETATM    4  C   UNK N   1      24.307  19.855   3.978  0.00  0.00     0.263 C 
HETATM    5  O   UNK N   1      24.835  19.068   5.037  0.00  0.00    -0.353 OA
ENDROOT
BRANCH   4   6
HETATM    6  N   UNK N   1      22.958  19.356   3.571  0.00  0.00    -0.280 N 
HETATM    7  C   UNK N   1      22.794  18.044   3.912  0.00  0.00     0.098 A 
HETATM    8  C   UNK N   1      21.727  17.181   3.752  0.00  0.00     0.019 A 
HETATM    9  C   UNK N   1      20.494  17.418   3.202  0.00  0.00     0.019 A 
HETATM   10  C   UNK N   1      20.046  18.601   2.678  0.00  0.00     0.093 A 
HETATM   11  N   UNK N   1      20.742  19.752   2.597  0.00  0.00    -0.319 N 
HETATM   12  C   UNK N   1      21.998  20.165   2.951  0.00  0.00     0.328 A 
HETATM   13  H   UNK N   1      20.217  20.474   2.179  0.00  0.00     0.170 HD
HETATM   14  O   UNK N   1      22.260  21.327   2.712  0.00  0.00    -0.246 OA
ENDBRANCH   4   6
BRANCH   3  15
HETATM   15  O   UNK N   1      25.280  20.985   2.028  0.00  0.00    -0.388 OA
HETATM   16  H   UNK N   1      25.000  20.993   1.100  0.00  0.00     0.210 HD
ENDBRANCH   3  15
BRANCH   2  17
HETATM   17  O   UNK N   1      27.828  20.024   3.308  0.00  0.00    -0.390 OA
HETATM   18  H   UNK N   1      27.990  19.609   2.447  0.00  0.00     0.210 HD
ENDBRANCH   2  17
BRANCH   1  19
HETATM   19  C   UNK N   1      26.826  19.548   6.317  0.00  0.00     0.198 C 
BRANCH  19  20
HETATM   20  O   UNK N   1      26.117  20.610   6.879  0.00  0.00    -0.398 OA
HETATM   21  H   UNK N   1      25.281  20.906   6.486  0.00  0.00     0.209 HD
ENDBRANCH  19  20
ENDBRANCH   1  19
TORSDOF 5
ENDMDL
MODEL 7
REMARK VINA RESULT:      -5.3      3.191      4.655
REMARK  5 active torsions:
REMARK  status: ('A' for Active; 'I' for Inactive)
REMARK    1  A    between atoms: C_6  and  C_5 
REMARK    2  A    between atoms: O_13  and  C_5 
REMARK    3  A    between atoms: C_7  and  O_14 
REMARK    4  A    between atoms: C_8  and  O_15 
REMARK    5  A    between atoms: C_9  and  N_12 
ROOT
HETATM    1  C   UNK N   1      35.066  15.559   9.664  0.00  0.00     0.179 C 
HETATM    2  C   UNK N   1      34.021  14.568  10.167  0.00  0.00     0.182 C 
HETATM    3  C   UNK N   1      32.922  14.858   9.195  0.00  0.00     0.198 C 
HETATM    4  C   UNK N   1      33.768  14.887   7.913  0.00  0.00     0.263 C 
HETATM    5  O   UNK N   1      34.927  15.635   8.254  0.00  0.00    -0.353 OA
ENDROOT
BRANCH   4   6
HETATM    6  N   UNK N   1      33.174  15.388   6.635  0.00  0.00    -0.280 N 
HETATM    7  C   UNK N   1      33.632  16.638   6.335  0.00  0.00     0.098 A 
HETATM    8  C   UNK N   1      33.375  17.478   5.268  0.00  0.00     0.019 A 
HETATM    9  C   UNK N   1      32.578  17.271   4.173  0.00  0.00     0.019 A 
HETATM   10  C   UNK N   1      31.841  16.150   3.898  0.00  0.00     0.093 A 
HETATM   11  N   UNK N   1      31.757  15.043   4.662  0.00  0.00    -0.319 N 
HETATM   12  C   UNK N   1      32.292  14.631   5.854  0.00  0.00     0.328 A 
HETATM   13  H   UNK N   1      31.165  14.363   4.266  0.00  0.00     0.170 HD
HETATM   14  O   UNK N   1      31.970  13.519   6.222  0.00  0.00    -0.246 OA
ENDBRANCH   4   6
BRANCH   3  15
HETATM   15  O   UNK N   1      31.951  13.851   9.198  0.00  0.00    -0.388 OA
HETATM   16  H   UNK N   1      31.793  13.108   9.801  0.00  0.00     0.210 HD
ENDBRANCH   3  15
BRANCH   2  17
HETATM   17  O   UNK N   1      33.652  14.786  11.497  0.00  0.00    -0.390 OA
HETATM   18  H   UNK N   1      33.429  14.090  12.134  0.00  0.00     0.210 HD
ENDBRANCH   2  17
BRANCH   1  19
HETATM   19  C   UNK N   1      36.483  15.123  10.029  0.00  0.00     0.198 C 
BRANCH  19  20
HETATM   20  O   UNK N   1      37.073  16.024  10.916  0.00  0.00    -0.398 OA
HETATM   21  H   UNK N   1      37.790  16.607  10.620  0.00  0.00     0.209 HD
ENDBRANCH  19  20
ENDBRANCH   1  19
TORSDOF 5
ENDMDL
MODEL 8
REMARK VINA RESULT:      -5.3      2.158      3.412
REMARK  5 active torsions:
REMARK  status: ('A' for Active; 'I' for Inactive)
REMARK    1  A    between atoms: C_6  and  C_5 
REMARK    2  A    between atoms: O_13  and  C_5 
REMARK    3  A    between atoms: C_7  and  O_14 
REMARK    4  A    between atoms: C_8  and  O_15 
REMARK    5  A    between atoms: C_9  and  N_12 
ROOT
HETATM    1  C   UNK N   1      36.882  14.650  10.008  0.00  0.00     0.179 C 
HETATM    2  C   UNK N   1      35.927  14.433  11.177  0.00  0.00     0.182 C 
HETATM    3  C   UNK N   1      34.748  15.205  10.676  0.00  0.00     0.198 C 
HETATM    4  C   UNK N   1      34.735  14.671   9.235  0.00  0.00     0.263 C 
HETATM    5  O   UNK N   1      36.096  14.685   8.826  0.00  0.00    -0.353 OA
ENDROOT
BRANCH   4   6
HETATM    6  N   UNK N   1      33.868  15.320   8.204  0.00  0.00    -0.280 N 
HETATM    7  C   UNK N   1      34.420  16.486   7.758  0.00  0.00     0.098 A 
HETATM    8  C   UNK N   1      33.993  17.402   6.815  0.00  0.00     0.019 A 
HETATM    9  C   UNK N   1      32.870  17.380   6.031  0.00  0.00     0.019 A 
HETATM   10  C   UNK N   1      31.900  16.414   6.018  0.00  0.00     0.093 A 
HETATM   11  N   UNK N   1      31.867  15.306   6.785  0.00  0.00    -0.319 N 
HETATM   12  C   UNK N   1      32.668  14.759   7.751  0.00  0.00     0.328 A 
HETATM   13  H   UNK N   1      31.071  14.754   6.605  0.00  0.00     0.170 HD
HETATM   14  O   UNK N   1      32.288  13.702   8.218  0.00  0.00    -0.246 OA
ENDBRANCH   4   6
BRANCH   3  15
HETATM   15  O   UNK N   1      33.586  14.898  11.392  0.00  0.00    -0.388 OA
HETATM   16  H   UNK N   1      32.668  15.191  11.290  0.00  0.00     0.210 HD
ENDBRANCH   3  15
BRANCH   2  17
HETATM   17  O   UNK N   1      36.425  14.915  12.390  0.00  0.00    -0.390 OA
HETATM   18  H   UNK N   1      35.975  15.555  12.963  0.00  0.00     0.210 HD
ENDBRANCH   2  17
BRANCH   1  19
HETATM   19  C   UNK N   1      37.923  13.537   9.912  0.00  0.00     0.198 C 
BRANCH  19  20
HETATM   20  O   UNK N   1      38.552  13.332  11.140  0.00  0.00    -0.398 OA
HETATM   21  H   UNK N   1      38.888  14.084  11.653  0.00  0.00     0.209 HD
ENDBRANCH  19  20
ENDBRANCH   1  19
TORSDOF 5
ENDMDL
MODEL 9
REMARK VINA RESULT:      -5.3      2.768      6.150
REMARK  5 active torsions:
REMARK  status: ('A' for Active; 'I' for Inactive)
REMARK    1  A    between atoms: C_6  and  C_5 
REMARK    2  A    between atoms: O_13  and  C_5 
REMARK    3  A    between atoms: C_7  and  O_14 
REMARK    4  A    between atoms: C_8  and  O_15 
REMARK    5  A    between atoms: C_9  and  N_12 
ROOT
HETATM    1  C   UNK N   1      35.074  15.082  11.525  0.00  0.00     0.179 C 
HETATM    2  C   UNK N   1      36.370  14.491  10.979  0.00  0.00     0.182 C 
HETATM    3  C   UNK N   1      36.827  13.744  12.191  0.00  0.00     0.198 C 
HETATM    4  C   UNK N   1      35.486  13.094  12.565  0.00  0.00     0.263 C 
HETATM    5  O   UNK N   1      34.523  14.129  12.420  0.00  0.00    -0.353 OA
ENDROOT
BRANCH   4   6
HETATM    6  N   UNK N   1      35.328  12.407  13.883  0.00  0.00    -0.280 N 
HETATM    7  C   UNK N   1      35.646  13.242  14.915  0.00  0.00     0.098 A 
HETATM    8  C   UNK N   1      35.637  13.053  16.285  0.00  0.00     0.019 A 
HETATM    9  C   UNK N   1      35.278  11.945  17.006  0.00  0.00     0.019 A 
HETATM   10  C   UNK N   1      34.839  10.749  16.503  0.00  0.00     0.093 A 
HETATM   11  N   UNK N   1      34.687  10.439  15.200  0.00  0.00    -0.319 N 
HETATM   12  C   UNK N   1      34.877  11.087  14.009  0.00  0.00     0.328 A 
HETATM   13  H   UNK N   1      34.359   9.518  15.074  0.00  0.00     0.170 HD
HETATM   14  O   UNK N   1      34.610  10.449  13.010  0.00  0.00    -0.246 OA
ENDBRANCH   4   6
BRANCH   3  15
HETATM   15  O   UNK N   1      37.827  12.816  11.880  0.00  0.00    -0.388 OA
HETATM   16  H   UNK N   1      38.518  12.816  11.199  0.00  0.00     0.210 HD
ENDBRANCH   3  15
BRANCH   2  17
HETATM   17  O   UNK N   1      37.280  15.461  10.554  0.00  0.00    -0.390 OA
HETATM   18  H   UNK N   1      38.079  15.286  10.032  0.00  0.00     0.210 HD
ENDBRANCH   2  17
BRANCH   1  19
HETATM   19  C   UNK N   1      34.077  15.392  10.410  0.00  0.00     0.198 C 
BRANCH  19  20
HETATM   20  O   UNK N   1      32.784  15.021  10.777  0.00  0.00    -0.398 OA
HETATM   21  H   UNK N   1      32.272  15.567  11.395  0.00  0.00     0.209 HD
ENDBRANCH  19  20
ENDBRANCH   1  19
TORSDOF 5
ENDMDL
