REMARK  20 active torsions:
REMARK  status: ('A' for Active; 'I' for Inactive)
REMARK    1  A    between atoms: C_7  and  C_1 
REMARK    2  A    between atoms: O_41  and  C_1 
REMARK    3  A    between atoms: C_8  and  C_2 
REMARK    4  A    between atoms: O_42  and  C_2 
REMARK    5  A    between atoms: C_16  and  C_6 
REMARK    6  A    between atoms: C_10  and  O_32 
REMARK    7  A    between atoms: C_11  and  O_33 
REMARK    8  A    between atoms: C_12  and  O_34 
REMARK    9  A    between atoms: C_13  and  O_35 
REMARK   10  A    between atoms: C_14  and  C_18 
REMARK   11  A    between atoms: N_20  and  C_15 
REMARK   12  A    between atoms: N_21  and  C_16 
REMARK   13  A    between atoms: O_36  and  C_16 
REMARK   14  A    between atoms: C_19  and  N_31 
REMARK   15  A    between atoms: P_46  and  O_37 
REMARK   16  A    between atoms: P_47  and  O_39 
REMARK   17  A    between atoms: P_46  and  O_41 
REMARK   18  A    between atoms: P_47  and  O_42 
REMARK   19  A    between atoms: P_46  and  O_45 
REMARK   20  A    between atoms: P_47  and  O_45 
ROOT
HETATM    1  O   UNK N   1      -0.771  -5.382  -1.011  0.00  0.00    -0.631 OA
HETATM    2  P   UNK N   1      -1.753  -4.223  -0.699  0.00  0.00     0.401 P 
ENDROOT
BRANCH   2   3
HETATM    3  O   UNK N   1      -1.645  -3.142  -2.057  0.00  0.00    -0.307 OA
HETATM    4  H   UNK N   1      -1.092  -2.893  -2.814  0.00  0.00     0.222 HD
ENDBRANCH   2   3
BRANCH   2   5
HETATM    5  O   UNK N   1      -1.198  -3.518   0.800  0.00  0.00    -0.294 OA
BRANCH   5   6
HETATM    6  C   UNK N   1      -1.203  -2.140   0.577  0.00  0.00     0.215 C 
BRANCH   6   7
HETATM    7  C   UNK N   1       0.140  -1.493   0.887  0.00  0.00     0.180 C 
HETATM    8  C   UNK N   1       1.298  -2.173   0.158  0.00  0.00     0.182 C 
HETATM    9  C   UNK N   1       2.248  -1.019   0.078  0.00  0.00     0.198 C 
HETATM   10  C   UNK N   1       1.245   0.044  -0.361  0.00  0.00     0.262 C 
HETATM   11  O   UNK N   1       0.111  -0.140   0.465  0.00  0.00    -0.353 OA
BRANCH   8  12
HETATM   12  O   UNK N   1       1.817  -3.266   0.857  0.00  0.00    -0.390 OA
HETATM   13  H   UNK N   1       1.339  -3.957   1.343  0.00  0.00     0.210 HD
ENDBRANCH   8  12
BRANCH   9  14
HETATM   14  O   UNK N   1       3.269  -1.233  -0.850  0.00  0.00    -0.388 OA
HETATM   15  H   UNK N   1       3.494  -1.922  -1.495  0.00  0.00     0.210 HD
ENDBRANCH   9  14
BRANCH  10  16
HETATM   16  N   UNK N   1       1.720   1.432  -0.282  0.00  0.00    -0.297 N 
HETATM   17  C   UNK N   1       0.927   2.514  -0.507  0.00  0.00     0.188 A 
HETATM   18  N   UNK N   1       1.621   3.679  -0.386  0.00  0.00    -0.346 N 
HETATM   19  C   UNK N   1       2.874   3.291  -0.091  0.00  0.00     0.122 A 
ATOM     20  HN  UNK N   1       1.270   4.630  -0.494  1.00  0.00     0.167 HD
HETATM   21  C   UNK N   1       4.008   4.055   0.121  0.00  0.00     0.131 A 
HETATM   22  C   UNK N   1       2.935   1.945  -0.026  0.00  0.00     0.142 A 
HETATM   23  N   UNK N   1       5.178   3.403   0.388  0.00  0.00    -0.337 N 
HETATM   24  C   UNK N   1       5.224   2.030   0.444  0.00  0.00     0.183 A 
ATOM     25  HN  UNK N   1       6.030   3.941   0.546  1.00  0.00     0.168 HD
HETATM   26  N   UNK N   1       4.092   1.288   0.237  0.00  0.00    -0.336 N 
ATOM     27  HN  UNK N   1       4.118   0.269   0.278  1.00  0.00     0.168 HD
BRANCH  21  28
HETATM   28  N   UNK N   1       3.966   5.462   0.058  0.00  0.00    -0.383 N 
HETATM   29  H   UNK N   1       4.803   5.979   0.014  0.00  0.00     0.157 HD
HETATM   30  H   UNK N   1       3.099   5.929   0.058  0.00  0.00     0.157 HD
ENDBRANCH  21  28
ENDBRANCH  10  16
ENDBRANCH   6   7
ENDBRANCH   5   6
ENDBRANCH   2   5
BRANCH   2  31
HETATM   31  O   UNK N   1      -3.334  -4.949  -0.601  0.00  0.00    -0.195 OA
BRANCH  31  32
HETATM   32  P   UNK N   1      -4.283  -3.975   0.487  0.00  0.00     0.401 P 
HETATM   33  O   UNK N   1      -5.775  -4.271   0.166  0.00  0.00    -0.631 OA
BRANCH  32  34
HETATM   34  O   UNK N   1      -4.052  -4.490   2.127  0.00  0.00    -0.307 OA
HETATM   35  H   UNK N   1      -4.236  -4.746   3.044  0.00  0.00     0.222 HD
ENDBRANCH  32  34
BRANCH  32  36
HETATM   36  O   UNK N   1      -4.019  -2.250   0.337  0.00  0.00    -0.294 OA
BRANCH  36  37
HETATM   37  C   UNK N   1      -4.613  -1.860  -0.865  0.00  0.00     0.215 C 
BRANCH  37  38
HETATM   38  C   UNK N   1      -5.884  -1.060  -0.601  0.00  0.00     0.178 C 
HETATM   39  C   UNK N   1      -5.684   0.409  -0.265  0.00  0.00     0.180 C 
HETATM   40  C   UNK N   1      -7.107   0.696   0.148  0.00  0.00     0.184 C 
HETATM   41  C   UNK N   1      -7.425  -0.558   0.981  0.00  0.00     0.205 C 
HETATM   42  O   UNK N   1      -6.597  -1.598   0.485  0.00  0.00    -0.367 OA
BRANCH  39  43
HETATM   43  O   UNK N   1      -4.814   0.547   0.824  0.00  0.00    -0.390 OA
HETATM   44  H   UNK N   1      -4.430   0.073   1.578  0.00  0.00     0.210 HD
ENDBRANCH  39  43
BRANCH  40  45
HETATM   45  O   UNK N   1      -7.250   1.889   0.863  0.00  0.00    -0.390 OA
HETATM   46  H   UNK N   1      -6.583   2.388   1.359  0.00  0.00     0.210 HD
ENDBRANCH  40  45
BRANCH  41  47
HETATM   47  C   UNK N   1      -8.848  -1.044   0.884  0.00  0.00     0.067 A 
HETATM   48  N   UNK N   1      -9.051  -2.359   0.691  0.00  0.00    -0.352 N 
HETATM   49  C   UNK N   1     -10.273  -2.657   0.249  0.00  0.00     0.083 A 
ATOM     50  HN  UNK N   1      -8.336  -3.065   0.867  1.00  0.00     0.166 HD
HETATM   51  C   UNK N   1     -11.088  -1.569   0.032  0.00  0.00     0.036 A 
HETATM   52 Se   UNK N   1     -10.272   0.015   0.433  0.00  0.00     0.000 Se
BRANCH  49  53
HETATM   53  C   UNK N   1     -10.659  -4.048  -0.042  0.00  0.00     0.161 C 
BRANCH  53  54
HETATM   54  N   UNK N   1      -9.828  -5.002   0.170  0.00  0.00    -0.378 N 
HETATM   55  H   UNK N   1     -10.143  -5.920   0.333  0.00  0.00     0.158 HD
ATOM     56  HN  UNK N   1      -8.827  -4.807   0.170  1.00  0.00     0.158 HD
ENDBRANCH  53  54
BRANCH  53  57
HETATM   57  O   UNK N   1     -11.873  -4.325  -0.552  0.00  0.00    -0.345 OA
HETATM   58  H   UNK N   1     -12.463  -3.689  -0.907  0.00  0.00     0.219 HD
ENDBRANCH  53  57
ENDBRANCH  49  53
ENDBRANCH  41  47
ENDBRANCH  37  38
ENDBRANCH  36  37
ENDBRANCH  32  36
ENDBRANCH  31  32
ENDBRANCH   2  31
TORSDOF 20
