REMARK  21 active torsions:
REMARK  status: ('A' for Active; 'I' for Inactive)
REMARK    1  A    between atoms: C_6  and  C_5 
REMARK    2  A    between atoms: C_12  and  C_5 
REMARK    3  A    between atoms: C_14  and  C_6 
REMARK    4  A    between atoms: C_15  and  C_7 
REMARK    5  A    between atoms: N_20  and  C_7 
REMARK    6  A    between atoms: C_10  and  C_8 
REMARK    7  A    between atoms: O_34  and  C_8 
REMARK    8  A    between atoms: C_13  and  C_9 
REMARK    9  A    between atoms: S_35  and  C_9 
REMARK   10  A    between atoms: N_24  and  C_11 
REMARK   11  A    between atoms: C_17  and  C_12 
REMARK   12  A    between atoms: C_12  and  N_19 
REMARK   13  A    between atoms: C_16  and  C_13 
REMARK   14  A    between atoms: C_13  and  N_22 
REMARK   15  A    between atoms: C_14  and  O_25 
REMARK   16  A    between atoms: O_27  and  C_15 
REMARK   17  A    between atoms: O_28  and  C_16 
REMARK   18  A    between atoms: O_30  and  C_17 
REMARK   19  A    between atoms: O_31  and  C_18 
REMARK   20  A    between atoms: O_34  and  C_18 
REMARK   21  A    between atoms: S_35  and  C_18 
ROOT
HETATM    1  C   UNK N   1       1.499   1.735   0.111  0.00  0.00     0.167 C 
ENDROOT
BRANCH   1   2
HETATM    2  C   UNK N   1       0.793   2.333  -1.122  0.00  0.00     0.112 C 
BRANCH   2   3
HETATM    3  S   UNK N   1       0.922   4.163  -1.343  0.00  0.00    -0.107 SA
BRANCH   3   4
HETATM    4  C   UNK N   1      -0.066   4.815   0.061  0.00  0.00     0.322 C 
BRANCH   4   5
HETATM    5  O   UNK N   1       0.583   4.622   1.291  0.00  0.00    -0.362 OA
HETATM    6  H   UNK N   1       0.692   4.168   2.141  0.00  0.00     0.213 HD
ENDBRANCH   4   5
BRANCH   4   7
HETATM    7  O   UNK N   1      -1.400   4.359   0.047  0.00  0.00    -0.348 OA
BRANCH   7   8
HETATM    8  C   UNK N   1      -1.438   3.112   0.672  0.00  0.00     0.210 C 
BRANCH   8   9
HETATM    9  C   UNK N   1      -2.544   2.263   0.179  0.00  0.00    -0.034 A 
HETATM   10  C   UNK N   1      -3.837   2.782   0.112  0.00  0.00     0.012 A 
HETATM   11  C   UNK N   1      -4.921   1.924  -0.055  0.00  0.00     0.037 A 
HETATM   12  C   UNK N   1      -4.719   0.538  -0.130  0.00  0.00     0.102 A 
HETATM   13  C   UNK N   1      -3.409   0.030  -0.132  0.00  0.00     0.037 A 
HETATM   14  C   UNK N   1      -2.325   0.893   0.027  0.00  0.00     0.012 A 
BRANCH  12  15
HETATM   15  N   UNK N   1      -5.829  -0.348  -0.083  0.00  0.00    -0.116 N 
HETATM   16  O   UNK N   1      -5.653  -1.523   0.009  0.00  0.00    -0.532 OA
HETATM   17  O   UNK N   1      -6.935   0.091   0.049  0.00  0.00    -0.532 OA
ENDBRANCH  12  15
ENDBRANCH   8   9
ENDBRANCH   7   8
ENDBRANCH   4   7
ENDBRANCH   3   4
ENDBRANCH   2   3
ENDBRANCH   1   2
BRANCH   1  18
HETATM   18  C   UNK N   1       1.768   0.258  -0.123  0.00  0.00     0.136 C 
HETATM   19  N   UNK N   1       2.949  -0.248  -0.001  0.00  0.00    -0.363 N 
ATOM     20  HN  UNK N   1       3.730   0.351   0.266  1.00  0.00     0.161 HD
BRANCH  19  21
HETATM   21  C   UNK N   1       3.177  -1.659  -0.239  0.00  0.00     0.231 C 
BRANCH  21  22
HETATM   22  C   UNK N   1       4.577  -2.079   0.093  0.00  0.00     0.158 C 
HETATM   23  O   UNK N   1       5.384  -1.277   0.536  0.00  0.00    -0.649 OA
BRANCH  22  24
HETATM   24  O   UNK N   1       4.942  -3.362  -0.090  0.00  0.00    -0.775 OA
HETATM   25  H   UNK N   1       4.296  -4.029  -0.217  0.00  0.00     0.167 HD
ENDBRANCH  22  24
ENDBRANCH  21  22
ENDBRANCH  19  21
BRANCH  18  26
HETATM   26  O   UNK N   1       0.726  -0.537  -0.456  0.00  0.00    -0.348 OA
HETATM   27  H   UNK N   1      -0.112  -0.188  -0.687  0.00  0.00     0.219 HD
ENDBRANCH  18  26
ENDBRANCH   1  18
BRANCH   1  28
HETATM   28  N   UNK N   1       2.647   2.542   0.496  0.00  0.00    -0.362 N 
HETATM   29  C   UNK N   1       3.712   2.727  -0.205  0.00  0.00     0.111 C 
ATOM     30  HN  UNK N   1       2.605   3.004   1.405  1.00  0.00     0.162 HD
BRANCH  29  31
HETATM   31  C   UNK N   1       4.689   3.770   0.245  0.00  0.00     0.086 C 
BRANCH  31  32
HETATM   32  C   UNK N   1       5.960   3.189   0.839  0.00  0.00     0.043 C 
BRANCH  32  33
HETATM   33  C   UNK N   1       6.905   2.633  -0.216  0.00  0.00     0.173 C 
BRANCH  33  34
HETATM   34  C   UNK N   1       8.067   1.981   0.466  0.00  0.00     0.163 C 
HETATM   35  O   UNK N   1       8.823   2.638   1.165  0.00  0.00    -0.648 OA
BRANCH  34  36
HETATM   36  O   UNK N   1       8.271   0.658   0.321  0.00  0.00    -0.775 OA
HETATM   37  H   UNK N   1       7.545   0.075   0.219  0.00  0.00     0.167 HD
ENDBRANCH  34  36
ENDBRANCH  33  34
BRANCH  33  38
HETATM   38  N   UNK N   1       7.377   3.695  -1.091  0.00  0.00    -0.418 N 
HETATM   39  H   UNK N   1       8.188   3.781  -1.704  0.00  0.00     0.150 HD
HETATM   40  H   UNK N   1       6.777   4.520  -1.091  0.00  0.00     0.150 HD
ENDBRANCH  33  38
ENDBRANCH  32  33
ENDBRANCH  31  32
ENDBRANCH  29  31
BRANCH  29  41
HETATM   41  O   UNK N   1       3.898   2.080  -1.374  0.00  0.00    -0.350 OA
HETATM   42  H   UNK N   1       3.574   1.743  -2.186  0.00  0.00     0.219 HD
ENDBRANCH  29  41
ENDBRANCH   1  28
TORSDOF 21
