MODEL 1
REMARK VINA RESULT:      -8.4      0.000      0.000
REMARK  14 active torsions:
REMARK  status: ('A' for Active; 'I' for Inactive)
REMARK    1  A    between atoms: C_10  and  C_5 
REMARK    2  A    between atoms: O_33  and  C_5 
REMARK    3  A    between atoms: C_11  and  C_6 
REMARK    4  A    between atoms: O_39  and  C_6 
REMARK    5  A    between atoms: C_8  and  O_34 
REMARK    6  A    between atoms: O_42  and  C_9 
REMARK    7  A    between atoms: N_20  and  C_12 
REMARK    8  A    between atoms: C_13  and  N_32 
REMARK    9  A    between atoms: N_31  and  C_14 
REMARK   10  A    between atoms: O_35  and  C_17 
REMARK   11  A    between atoms: O_36  and  C_19 
REMARK   12  A    between atoms: P_43  and  O_37 
REMARK   13  A    between atoms: P_43  and  O_39 
REMARK   14  A    between atoms: P_43  and  O_42 
ROOT
HETATM    1  O   UNK N   1      33.409  16.099   9.612  0.00  0.00    -0.294 OA
ENDROOT
BRANCH   1   2
HETATM    2  C   UNK N   1      33.548  17.159   8.685  0.00  0.00     0.215 C 
BRANCH   2   3
HETATM    3  C   UNK N   1      32.882  16.809   7.383  0.00  0.00     0.177 C 
HETATM    4  C   UNK N   1      33.663  15.838   6.548  0.00  0.00     0.153 C 
HETATM    5  C   UNK N   1      32.618  15.531   5.511  0.00  0.00     0.088 C 
HETATM    6  C   UNK N   1      31.314  15.692   6.310  0.00  0.00     0.233 C 
HETATM    7  O   UNK N   1      31.668  16.142   7.598  0.00  0.00    -0.356 OA
BRANCH   4   8
HETATM    8  O   UNK N   1      34.816  16.396   5.997  0.00  0.00    -0.393 OA
HETATM    9  H   UNK N   1      35.730  16.721   6.007  0.00  0.00     0.210 HD
ENDBRANCH   4   8
BRANCH   6  10
HETATM   10  N   UNK N   1      30.432  16.686   5.685  0.00  0.00    -0.299 N 
HETATM   11  C   UNK N   1      30.394  17.038   4.374  0.00  0.00     0.188 A 
HETATM   12  N   UNK N   1      29.464  18.011   4.149  0.00  0.00    -0.346 N 
HETATM   13  C   UNK N   1      28.919  18.241   5.360  0.00  0.00     0.130 A 
ATOM     14  HN  UNK N   1      29.234  18.463   3.265  1.00  0.00     0.167 HD
HETATM   15  C   UNK N   1      29.496  17.446   6.276  0.00  0.00     0.157 A 
HETATM   16  C   UNK N   1      27.918  19.122   5.736  0.00  0.00     0.186 A 
HETATM   17  N   UNK N   1      29.126  17.457   7.584  0.00  0.00    -0.174 N 
HETATM   18  C   UNK N   1      28.134  18.315   7.969  0.00  0.00     0.679 A 
HETATM   19  H   UNK N   1      29.562  16.862   8.236  0.00  0.00     0.186 HD
HETATM   20  N   UNK N   1      27.758  18.341   9.192  0.00  0.00    -0.234 N 
HETATM   21  N   UNK N   1      27.539  19.142   7.050  0.00  0.00    -0.168 N 
HETATM   22  H   UNK N   1      28.339  17.972   9.895  0.00  0.00     0.174 HD
ATOM     23  HN  UNK N   1      26.854  18.746   9.438  1.00  0.00     0.174 HD
ATOM     24  HN  UNK N   1      26.803  19.782   7.352  1.00  0.00     0.186 HD
BRANCH  16  25
HETATM   25  O   UNK N   1      27.330  19.933   4.842  0.00  0.00    -0.344 OA
HETATM   26  H   UNK N   1      27.656  20.029   3.969  0.00  0.00     0.219 HD
ENDBRANCH  16  25
ENDBRANCH   6  10
ENDBRANCH   2   3
ENDBRANCH   1   2
BRANCH   1  27
HETATM   27  P   UNK N   1      34.926  15.570  10.410  0.00  0.00     0.393 P 
HETATM   28  O   UNK N   1      35.262  17.035  10.784  0.00  0.00    -0.631 OA
BRANCH  27  29
HETATM   29  O   UNK N   1      33.470  14.951  11.135  0.00  0.00    -0.307 OA
HETATM   30  H   UNK N   1      33.022  14.190  11.534  0.00  0.00     0.222 HD
ENDBRANCH  27  29
BRANCH  27  31
HETATM   31  O   UNK N   1      35.180  15.278  12.158  0.00  0.00    -0.289 OA
BRANCH  31  32
HETATM   32  C   UNK N   1      35.521  14.003  12.754  0.00  0.00     0.169 C 
HETATM   33  C   UNK N   1      36.364  14.288  13.951  0.00  0.00     0.089 C 
HETATM   34  C   UNK N   1      37.070  12.970  14.228  0.00  0.00     0.234 C 
HETATM   35  O   UNK N   1      36.957  12.150  13.087  0.00  0.00    -0.356 OA
HETATM   36  C   UNK N   1      36.403  12.939  12.070  0.00  0.00     0.177 C 
BRANCH  34  37
HETATM   37  N   UNK N   1      36.516  12.324  15.434  0.00  0.00    -0.296 N 
HETATM   38  C   UNK N   1      35.737  13.095  16.247  0.00  0.00     0.101 A 
HETATM   39  C   UNK N   1      35.177  12.575  17.406  0.00  0.00     0.065 A 
HETATM   40  C   UNK N   1      35.437  11.251  17.730  0.00  0.00     0.102 A 
HETATM   41  N   UNK N   1      36.222  10.499  16.921  0.00  0.00    -0.308 N 
HETATM   42  C   UNK N   1      36.762  11.012  15.785  0.00  0.00     0.227 A 
ATOM     43  HN  UNK N   1      36.411   9.528  17.171  1.00  0.00     0.171 HD
BRANCH  40  44
HETATM   44  N   UNK N   1      34.942  10.743  18.792  0.00  0.00    -0.385 N 
HETATM   45  H   UNK N   1      35.290   9.917  19.198  0.00  0.00     0.157 HD
ATOM     46  HN  UNK N   1      34.154  11.213  19.237  1.00  0.00     0.157 HD
ENDBRANCH  40  44
BRANCH  42  47
HETATM   47  O   UNK N   1      37.544  10.217  15.033  0.00  0.00    -0.332 OA
HETATM   48  H   UNK N   1      37.795  10.484  14.170  0.00  0.00     0.221 HD
ENDBRANCH  42  47
ENDBRANCH  34  37
BRANCH  36  49
HETATM   49  C   UNK N   1      35.599  12.026  11.145  0.00  0.00     0.198 C 
BRANCH  49  50
HETATM   50  O   UNK N   1      34.231  12.171  11.386  0.00  0.00    -0.398 OA
HETATM   51  H   UNK N   1      33.529  11.655  11.809  0.00  0.00     0.209 HD
ENDBRANCH  49  50
ENDBRANCH  36  49
ENDBRANCH  31  32
ENDBRANCH  27  31
ENDBRANCH   1  27
TORSDOF 14
ENDMDL
MODEL 2
REMARK VINA RESULT:      -8.2      9.928     12.991
REMARK  14 active torsions:
REMARK  status: ('A' for Active; 'I' for Inactive)
REMARK    1  A    between atoms: C_10  and  C_5 
REMARK    2  A    between atoms: O_33  and  C_5 
REMARK    3  A    between atoms: C_11  and  C_6 
REMARK    4  A    between atoms: O_39  and  C_6 
REMARK    5  A    between atoms: C_8  and  O_34 
REMARK    6  A    between atoms: O_42  and  C_9 
REMARK    7  A    between atoms: N_20  and  C_12 
REMARK    8  A    between atoms: C_13  and  N_32 
REMARK    9  A    between atoms: N_31  and  C_14 
REMARK   10  A    between atoms: O_35  and  C_17 
REMARK   11  A    between atoms: O_36  and  C_19 
REMARK   12  A    between atoms: P_43  and  O_37 
REMARK   13  A    between atoms: P_43  and  O_39 
REMARK   14  A    between atoms: P_43  and  O_42 
ROOT
HETATM    1  O   UNK N   1      21.260  16.029   1.902  0.00  0.00    -0.294 OA
ENDROOT
BRANCH   1   2
HETATM    2  C   UNK N   1      20.440  17.181   1.856  0.00  0.00     0.215 C 
BRANCH   2   3
HETATM    3  C   UNK N   1      21.270  18.423   2.024  0.00  0.00     0.177 C 
HETATM    4  C   UNK N   1      20.601  19.669   1.521  0.00  0.00     0.153 C 
HETATM    5  C   UNK N   1      21.560  20.686   2.075  0.00  0.00     0.088 C 
HETATM    6  C   UNK N   1      22.065  19.993   3.351  0.00  0.00     0.233 C 
HETATM    7  O   UNK N   1      21.495  18.705   3.379  0.00  0.00    -0.356 OA
BRANCH   4   8
HETATM    8  O   UNK N   1      20.512  19.718   0.131  0.00  0.00    -0.393 OA
HETATM    9  H   UNK N   1      20.109  19.541  -0.734  0.00  0.00     0.210 HD
ENDBRANCH   4   8
BRANCH   6  10
HETATM   10  N   UNK N   1      23.528  19.865   3.338  0.00  0.00    -0.299 N 
HETATM   11  C   UNK N   1      24.415  20.672   2.702  0.00  0.00     0.188 A 
HETATM   12  N   UNK N   1      25.697  20.244   2.889  0.00  0.00    -0.346 N 
HETATM   13  C   UNK N   1      25.576  19.152   3.670  0.00  0.00     0.130 A 
ATOM     14  HN  UNK N   1      26.554  20.655   2.520  1.00  0.00     0.167 HD
HETATM   15  C   UNK N   1      24.280  18.928   3.941  0.00  0.00     0.157 A 
HETATM   16  C   UNK N   1      26.548  18.310   4.184  0.00  0.00     0.186 A 
HETATM   17  N   UNK N   1      23.868  17.898   4.724  0.00  0.00    -0.174 N 
HETATM   18  C   UNK N   1      24.815  17.062   5.246  0.00  0.00     0.679 A 
HETATM   19  H   UNK N   1      22.912  17.757   4.910  0.00  0.00     0.186 HD
HETATM   20  N   UNK N   1      24.459  16.088   5.995  0.00  0.00    -0.234 N 
HETATM   21  N   UNK N   1      26.145  17.267   4.974  0.00  0.00    -0.168 N 
HETATM   22  H   UNK N   1      23.529  15.767   5.977  0.00  0.00     0.174 HD
ATOM     23  HN  UNK N   1      25.141  15.643   6.610  1.00  0.00     0.174 HD
ATOM     24  HN  UNK N   1      26.842  16.633   5.365  1.00  0.00     0.186 HD
BRANCH  16  25
HETATM   25  O   UNK N   1      27.851  18.505   3.923  0.00  0.00    -0.344 OA
HETATM   26  H   UNK N   1      28.516  17.942   4.267  0.00  0.00     0.219 HD
ENDBRANCH  16  25
ENDBRANCH   6  10
ENDBRANCH   2   3
ENDBRANCH   1   2
BRANCH   1  27
HETATM   27  P   UNK N   1      20.769  14.782   3.095  0.00  0.00     0.393 P 
HETATM   28  O   UNK N   1      21.288  13.659   2.164  0.00  0.00    -0.631 OA
BRANCH  27  29
HETATM   29  O   UNK N   1      21.994  15.883   3.657  0.00  0.00    -0.307 OA
HETATM   30  H   UNK N   1      22.602  16.605   3.433  0.00  0.00     0.222 HD
ENDBRANCH  27  29
BRANCH  27  31
HETATM   31  O   UNK N   1      21.814  13.981   4.309  0.00  0.00    -0.289 OA
BRANCH  31  32
HETATM   32  C   UNK N   1      21.616  14.020   5.743  0.00  0.00     0.169 C 
HETATM   33  C   UNK N   1      21.724  12.619   6.241  0.00  0.00     0.089 C 
HETATM   34  C   UNK N   1      21.045  12.656   7.601  0.00  0.00     0.234 C 
HETATM   35  O   UNK N   1      20.283  13.839   7.692  0.00  0.00    -0.356 OA
HETATM   36  C   UNK N   1      20.292  14.428   6.420  0.00  0.00     0.177 C 
BRANCH  34  37
HETATM   37  N   UNK N   1      22.041  12.554   8.685  0.00  0.00    -0.296 N 
HETATM   38  C   UNK N   1      23.302  12.168   8.333  0.00  0.00     0.101 A 
HETATM   39  C   UNK N   1      24.304  12.039   9.286  0.00  0.00     0.065 A 
HETATM   40  C   UNK N   1      23.992  12.298  10.612  0.00  0.00     0.102 A 
HETATM   41  N   UNK N   1      22.733  12.668  10.951  0.00  0.00    -0.308 N 
HETATM   42  C   UNK N   1      21.760  12.799  10.014  0.00  0.00     0.227 A 
ATOM     43  HN  UNK N   1      22.514  12.851  11.930  1.00  0.00     0.171 HD
BRANCH  40  44
HETATM   44  N   UNK N   1      24.889  12.183  11.514  0.00  0.00    -0.385 N 
HETATM   45  H   UNK N   1      25.537  12.897  11.714  0.00  0.00     0.157 HD
ATOM     46  HN  UNK N   1      24.936  11.316  12.049  1.00  0.00     0.157 HD
ENDBRANCH  40  44
BRANCH  42  47
HETATM   47  O   UNK N   1      20.526  13.155  10.418  0.00  0.00    -0.332 OA
HETATM   48  H   UNK N   1      20.373  13.388  11.312  0.00  0.00     0.221 HD
ENDBRANCH  42  47
ENDBRANCH  34  37
BRANCH  36  49
HETATM   49  C   UNK N   1      20.174  15.942   6.598  0.00  0.00     0.198 C 
BRANCH  49  50
HETATM   50  O   UNK N   1      21.375  16.568   6.257  0.00  0.00    -0.398 OA
HETATM   51  H   UNK N   1      21.654  17.302   5.688  0.00  0.00     0.209 HD
ENDBRANCH  49  50
ENDBRANCH  36  49
ENDBRANCH  31  32
ENDBRANCH  27  31
ENDBRANCH   1  27
TORSDOF 14
ENDMDL
MODEL 3
REMARK VINA RESULT:      -8.1      2.182     11.048
REMARK  14 active torsions:
REMARK  status: ('A' for Active; 'I' for Inactive)
REMARK    1  A    between atoms: C_10  and  C_5 
REMARK    2  A    between atoms: O_33  and  C_5 
REMARK    3  A    between atoms: C_11  and  C_6 
REMARK    4  A    between atoms: O_39  and  C_6 
REMARK    5  A    between atoms: C_8  and  O_34 
REMARK    6  A    between atoms: O_42  and  C_9 
REMARK    7  A    between atoms: N_20  and  C_12 
REMARK    8  A    between atoms: C_13  and  N_32 
REMARK    9  A    between atoms: N_31  and  C_14 
REMARK   10  A    between atoms: O_35  and  C_17 
REMARK   11  A    between atoms: O_36  and  C_19 
REMARK   12  A    between atoms: P_43  and  O_37 
REMARK   13  A    between atoms: P_43  and  O_39 
REMARK   14  A    between atoms: P_43  and  O_42 
ROOT
HETATM    1  O   UNK N   1      35.389  16.366   9.512  0.00  0.00    -0.294 OA
ENDROOT
BRANCH   1   2
HETATM    2  C   UNK N   1      35.274  16.316  10.921  0.00  0.00     0.215 C 
BRANCH   2   3
HETATM    3  C   UNK N   1      35.156  14.892  11.388  0.00  0.00     0.177 C 
HETATM    4  C   UNK N   1      34.873  13.916  10.284  0.00  0.00     0.153 C 
HETATM    5  C   UNK N   1      35.083  12.637  11.045  0.00  0.00     0.088 C 
HETATM    6  C   UNK N   1      36.145  13.047  12.079  0.00  0.00     0.233 C 
HETATM    7  O   UNK N   1      36.368  14.430  11.920  0.00  0.00    -0.356 OA
BRANCH   4   8
HETATM    8  O   UNK N   1      33.580  14.029   9.774  0.00  0.00    -0.393 OA
HETATM    9  H   UNK N   1      32.741  13.698   9.418  0.00  0.00     0.210 HD
ENDBRANCH   4   8
BRANCH   6  10
HETATM   10  N   UNK N   1      35.675  12.795  13.447  0.00  0.00    -0.299 N 
HETATM   11  C   UNK N   1      34.826  11.816  13.854  0.00  0.00     0.188 A 
HETATM   12  N   UNK N   1      34.591  11.892  15.195  0.00  0.00    -0.346 N 
HETATM   13  C   UNK N   1      35.330  12.941  15.609  0.00  0.00     0.130 A 
ATOM     14  HN  UNK N   1      33.991  11.291  15.760  1.00  0.00     0.167 HD
HETATM   15  C   UNK N   1      35.980  13.477  14.563  0.00  0.00     0.157 A 
HETATM   16  C   UNK N   1      35.486  13.480  16.875  0.00  0.00     0.186 A 
HETATM   17  N   UNK N   1      36.813  14.542  14.695  0.00  0.00    -0.174 N 
HETATM   18  C   UNK N   1      36.984  15.081  15.939  0.00  0.00     0.679 A 
HETATM   19  H   UNK N   1      37.281  14.916  13.914  0.00  0.00     0.186 HD
HETATM   20  N   UNK N   1      37.770  16.078  16.096  0.00  0.00    -0.234 N 
HETATM   21  N   UNK N   1      36.322  14.553  17.019  0.00  0.00    -0.168 N 
HETATM   22  H   UNK N   1      38.029  16.628  15.323  0.00  0.00     0.174 HD
ATOM     23  HN  UNK N   1      38.127  16.304  17.025  1.00  0.00     0.174 HD
ATOM     24  HN  UNK N   1      36.454  14.968  17.942  1.00  0.00     0.186 HD
BRANCH  16  25
HETATM   25  O   UNK N   1      34.842  12.967  17.936  0.00  0.00    -0.344 OA
HETATM   26  H   UNK N   1      35.026  12.109  18.262  0.00  0.00     0.219 HD
ENDBRANCH  16  25
ENDBRANCH   6  10
ENDBRANCH   2   3
ENDBRANCH   1   2
BRANCH   1  27
HETATM   27  P   UNK N   1      34.143  17.348   8.673  0.00  0.00     0.393 P 
HETATM   28  O   UNK N   1      35.113  18.553   8.603  0.00  0.00    -0.631 OA
BRANCH  27  29
HETATM   29  O   UNK N   1      34.670  15.939   7.797  0.00  0.00    -0.307 OA
HETATM   30  H   UNK N   1      34.463  15.285   7.112  0.00  0.00     0.222 HD
ENDBRANCH  27  29
BRANCH  27  31
HETATM   31  O   UNK N   1      33.994  17.622   6.910  0.00  0.00    -0.289 OA
BRANCH  31  32
HETATM   32  C   UNK N   1      32.759  17.572   6.155  0.00  0.00     0.169 C 
HETATM   33  C   UNK N   1      31.676  17.188   7.104  0.00  0.00     0.089 C 
HETATM   34  C   UNK N   1      30.556  16.687   6.205  0.00  0.00     0.234 C 
HETATM   35  O   UNK N   1      31.087  16.435   4.924  0.00  0.00    -0.356 OA
HETATM   36  C   UNK N   1      32.479  16.560   5.026  0.00  0.00     0.177 C 
BRANCH  34  37
HETATM   37  N   UNK N   1      29.446  17.658   6.166  0.00  0.00    -0.296 N 
HETATM   38  C   UNK N   1      29.004  18.142   7.363  0.00  0.00     0.101 A 
HETATM   39  C   UNK N   1      27.959  19.056   7.424  0.00  0.00     0.065 A 
HETATM   40  C   UNK N   1      27.363  19.459   6.238  0.00  0.00     0.102 A 
HETATM   41  N   UNK N   1      27.802  18.961   5.057  0.00  0.00    -0.308 N 
HETATM   42  C   UNK N   1      28.828  18.073   5.003  0.00  0.00     0.227 A 
ATOM     43  HN  UNK N   1      27.353  19.260   4.191  1.00  0.00     0.171 HD
BRANCH  40  44
HETATM   44  N   UNK N   1      26.396  20.293   6.260  0.00  0.00    -0.385 N 
HETATM   45  H   UNK N   1      26.252  20.921   7.004  0.00  0.00     0.157 HD
ATOM     46  HN  UNK N   1      25.747  20.309   5.474  1.00  0.00     0.157 HD
ENDBRANCH  40  44
BRANCH  42  47
HETATM   47  O   UNK N   1      29.208  17.606   3.800  0.00  0.00    -0.332 OA
HETATM   48  H   UNK N   1      29.438  18.203   3.114  0.00  0.00     0.221 HD
ENDBRANCH  42  47
ENDBRANCH  34  37
BRANCH  36  49
HETATM   49  C   UNK N   1      33.014  17.035   3.675  0.00  0.00     0.198 C 
BRANCH  49  50
HETATM   50  O   UNK N   1      31.973  17.529   2.886  0.00  0.00    -0.398 OA
HETATM   51  H   UNK N   1      31.047  17.303   2.713  0.00  0.00     0.209 HD
ENDBRANCH  49  50
ENDBRANCH  36  49
ENDBRANCH  31  32
ENDBRANCH  27  31
ENDBRANCH   1  27
TORSDOF 14
ENDMDL
MODEL 4
REMARK VINA RESULT:      -8.0      2.741     10.952
REMARK  14 active torsions:
REMARK  status: ('A' for Active; 'I' for Inactive)
REMARK    1  A    between atoms: C_10  and  C_5 
REMARK    2  A    between atoms: O_33  and  C_5 
REMARK    3  A    between atoms: C_11  and  C_6 
REMARK    4  A    between atoms: O_39  and  C_6 
REMARK    5  A    between atoms: C_8  and  O_34 
REMARK    6  A    between atoms: O_42  and  C_9 
REMARK    7  A    between atoms: N_20  and  C_12 
REMARK    8  A    between atoms: C_13  and  N_32 
REMARK    9  A    between atoms: N_31  and  C_14 
REMARK   10  A    between atoms: O_35  and  C_17 
REMARK   11  A    between atoms: O_36  and  C_19 
REMARK   12  A    between atoms: P_43  and  O_37 
REMARK   13  A    between atoms: P_43  and  O_39 
REMARK   14  A    between atoms: P_43  and  O_42 
ROOT
HETATM    1  O   UNK N   1      34.734  14.813  12.007  0.00  0.00    -0.294 OA
ENDROOT
BRANCH   1   2
HETATM    2  C   UNK N   1      35.975  14.639  12.663  0.00  0.00     0.215 C 
BRANCH   2   3
HETATM    3  C   UNK N   1      35.905  13.482  13.621  0.00  0.00     0.177 C 
HETATM    4  C   UNK N   1      36.219  13.854  15.040  0.00  0.00     0.153 C 
HETATM    5  C   UNK N   1      35.804  12.575  15.713  0.00  0.00     0.088 C 
HETATM    6  C   UNK N   1      34.675  12.079  14.794  0.00  0.00     0.233 C 
HETATM    7  O   UNK N   1      34.602  12.971  13.705  0.00  0.00    -0.356 OA
BRANCH   4   8
HETATM    8  O   UNK N   1      37.567  14.152  15.242  0.00  0.00    -0.393 OA
HETATM    9  H   UNK N   1      38.487  14.294  14.974  0.00  0.00     0.210 HD
ENDBRANCH   4   8
BRANCH   6  10
HETATM   10  N   UNK N   1      34.960  10.731  14.287  0.00  0.00    -0.299 N 
HETATM   11  C   UNK N   1      35.701   9.768  14.894  0.00  0.00     0.188 A 
HETATM   12  N   UNK N   1      35.774   8.643  14.126  0.00  0.00    -0.346 N 
HETATM   13  C   UNK N   1      35.046   8.935  13.030  0.00  0.00     0.130 A 
ATOM     14  HN  UNK N   1      36.269   7.776  14.333  1.00  0.00     0.167 HD
HETATM   15  C   UNK N   1      34.557  10.182  13.129  0.00  0.00     0.157 A 
HETATM   16  C   UNK N   1      34.764   8.166  11.913  0.00  0.00     0.186 A 
HETATM   17  N   UNK N   1      33.770  10.733  12.169  0.00  0.00    -0.174 N 
HETATM   18  C   UNK N   1      33.476   9.984  11.064  0.00  0.00     0.679 A 
HETATM   19  H   UNK N   1      33.422  11.648  12.266  0.00  0.00     0.186 HD
HETATM   20  N   UNK N   1      32.730  10.472  10.146  0.00  0.00    -0.234 N 
HETATM   21  N   UNK N   1      33.973   8.711  10.939  0.00  0.00    -0.168 N 
HETATM   22  H   UNK N   1      32.596  11.445  10.085  0.00  0.00     0.174 HD
ATOM     23  HN  UNK N   1      32.274   9.851   9.477  1.00  0.00     0.174 HD
ATOM     24  HN  UNK N   1      33.751   8.164  10.106  1.00  0.00     0.186 HD
BRANCH  16  25
HETATM   25  O   UNK N   1      35.246   6.919  11.784  0.00  0.00    -0.344 OA
HETATM   26  H   UNK N   1      35.431   6.379  12.527  0.00  0.00     0.219 HD
ENDBRANCH  16  25
ENDBRANCH   6  10
ENDBRANCH   2   3
ENDBRANCH   1   2
BRANCH   1  27
HETATM   27  P   UNK N   1      34.808  15.675  10.436  0.00  0.00     0.393 P 
HETATM   28  O   UNK N   1      35.854  14.662   9.908  0.00  0.00    -0.631 OA
BRANCH  27  29
HETATM   29  O   UNK N   1      33.255  14.986  10.813  0.00  0.00    -0.307 OA
HETATM   30  H   UNK N   1      32.722  14.484  11.449  0.00  0.00     0.222 HD
ENDBRANCH  27  29
BRANCH  27  31
HETATM   31  O   UNK N   1      33.935  15.252   8.931  0.00  0.00    -0.289 OA
BRANCH  31  32
HETATM   32  C   UNK N   1      33.579  16.180   7.878  0.00  0.00     0.169 C 
HETATM   33  C   UNK N   1      33.547  15.410   6.602  0.00  0.00     0.089 C 
HETATM   34  C   UNK N   1      33.657  16.476   5.524  0.00  0.00     0.234 C 
HETATM   35  O   UNK N   1      34.105  17.673   6.118  0.00  0.00    -0.356 OA
HETATM   36  C   UNK N   1      34.461  17.365   7.438  0.00  0.00     0.177 C 
BRANCH  34  37
HETATM   37  N   UNK N   1      32.366  16.651   4.829  0.00  0.00    -0.296 N 
HETATM   38  C   UNK N   1      31.274  16.905   5.607  0.00  0.00     0.101 A 
HETATM   39  C   UNK N   1      30.017  17.077   5.042  0.00  0.00     0.065 A 
HETATM   40  C   UNK N   1      29.891  16.974   3.664  0.00  0.00     0.102 A 
HETATM   41  N   UNK N   1      30.981  16.708   2.904  0.00  0.00    -0.308 N 
HETATM   42  C   UNK N   1      32.209  16.546   3.462  0.00  0.00     0.227 A 
ATOM     43  HN  UNK N   1      30.877  16.628   1.893  1.00  0.00     0.171 HD
BRANCH  40  44
HETATM   44  N   UNK N   1      28.749  17.121   3.114  0.00  0.00    -0.385 N 
HETATM   45  H   UNK N   1      28.538  17.879   2.522  0.00  0.00     0.157 HD
ATOM     46  HN  UNK N   1      28.025  16.426   3.295  1.00  0.00     0.157 HD
ENDBRANCH  40  44
BRANCH  42  47
HETATM   47  O   UNK N   1      33.248  16.270   2.653  0.00  0.00    -0.332 OA
HETATM   48  H   UNK N   1      33.789  15.523   2.820  0.00  0.00     0.221 HD
ENDBRANCH  42  47
ENDBRANCH  34  37
BRANCH  36  49
HETATM   49  C   UNK N   1      34.230  18.611   8.294  0.00  0.00     0.198 C 
BRANCH  49  50
HETATM   50  O   UNK N   1      35.444  19.245   8.568  0.00  0.00    -0.398 OA
HETATM   51  H   UNK N   1      35.757  19.949   9.157  0.00  0.00     0.209 HD
ENDBRANCH  49  50
ENDBRANCH  36  49
ENDBRANCH  31  32
ENDBRANCH  27  31
ENDBRANCH   1  27
TORSDOF 14
ENDMDL
MODEL 5
REMARK VINA RESULT:      -8.0      6.881     11.015
REMARK  14 active torsions:
REMARK  status: ('A' for Active; 'I' for Inactive)
REMARK    1  A    between atoms: C_10  and  C_5 
REMARK    2  A    between atoms: O_33  and  C_5 
REMARK    3  A    between atoms: C_11  and  C_6 
REMARK    4  A    between atoms: O_39  and  C_6 
REMARK    5  A    between atoms: C_8  and  O_34 
REMARK    6  A    between atoms: O_42  and  C_9 
REMARK    7  A    between atoms: N_20  and  C_12 
REMARK    8  A    between atoms: C_13  and  N_32 
REMARK    9  A    between atoms: N_31  and  C_14 
REMARK   10  A    between atoms: O_35  and  C_17 
REMARK   11  A    between atoms: O_36  and  C_19 
REMARK   12  A    between atoms: P_43  and  O_37 
REMARK   13  A    between atoms: P_43  and  O_39 
REMARK   14  A    between atoms: P_43  and  O_42 
ROOT
HETATM    1  O   UNK N   1      24.864  15.897   3.063  0.00  0.00    -0.294 OA
ENDROOT
BRANCH   1   2
HETATM    2  C   UNK N   1      24.057  14.862   3.591  0.00  0.00     0.215 C 
BRANCH   2   3
HETATM    3  C   UNK N   1      22.627  15.317   3.704  0.00  0.00     0.177 C 
HETATM    4  C   UNK N   1      21.714  14.292   4.310  0.00  0.00     0.153 C 
HETATM    5  C   UNK N   1      20.497  15.153   4.503  0.00  0.00     0.088 C 
HETATM    6  C   UNK N   1      21.116  16.540   4.742  0.00  0.00     0.233 C 
HETATM    7  O   UNK N   1      22.509  16.407   4.577  0.00  0.00    -0.356 OA
BRANCH   4   8
HETATM    8  O   UNK N   1      21.475  13.207   3.467  0.00  0.00    -0.393 OA
HETATM    9  H   UNK N   1      20.956  12.668   2.851  0.00  0.00     0.210 HD
ENDBRANCH   4   8
BRANCH   6  10
HETATM   10  N   UNK N   1      20.613  17.517   3.768  0.00  0.00    -0.299 N 
HETATM   11  C   UNK N   1      19.394  17.524   3.170  0.00  0.00     0.188 A 
HETATM   12  N   UNK N   1      19.275  18.570   2.303  0.00  0.00    -0.346 N 
HETATM   13  C   UNK N   1      20.453  19.218   2.391  0.00  0.00     0.130 A 
ATOM     14  HN  UNK N   1      18.474  18.809   1.717  1.00  0.00     0.167 HD
HETATM   15  C   UNK N   1      21.251  18.589   3.270  0.00  0.00     0.157 A 
HETATM   16  C   UNK N   1      20.897  20.357   1.742  0.00  0.00     0.186 A 
HETATM   17  N   UNK N   1      22.498  19.037   3.569  0.00  0.00    -0.174 N 
HETATM   18  C   UNK N   1      22.949  20.165   2.942  0.00  0.00     0.679 A 
HETATM   19  H   UNK N   1      23.063  18.561   4.219  0.00  0.00     0.186 HD
HETATM   20  N   UNK N   1      24.115  20.617   3.210  0.00  0.00    -0.234 N 
HETATM   21  N   UNK N   1      22.152  20.817   2.034  0.00  0.00    -0.168 N 
HETATM   22  H   UNK N   1      24.785  20.033   3.632  0.00  0.00     0.174 HD
ATOM     23  HN  UNK N   1      24.351  21.584   2.984  1.00  0.00     0.174 HD
ATOM     24  HN  UNK N   1      22.502  21.656   1.569  1.00  0.00     0.186 HD
BRANCH  16  25
HETATM   25  O   UNK N   1      20.123  21.001   0.853  0.00  0.00    -0.344 OA
HETATM   26  H   UNK N   1      19.189  20.990   0.909  0.00  0.00     0.219 HD
ENDBRANCH  16  25
ENDBRANCH   6  10
ENDBRANCH   2   3
ENDBRANCH   1   2
BRANCH   1  27
HETATM   27  P   UNK N   1      26.345  16.272   4.003  0.00  0.00     0.393 P 
HETATM   28  O   UNK N   1      27.222  16.052   2.745  0.00  0.00    -0.631 OA
BRANCH  27  29
HETATM   29  O   UNK N   1      25.213  17.587   3.879  0.00  0.00    -0.307 OA
HETATM   30  H   UNK N   1      25.070  18.544   3.934  0.00  0.00     0.222 HD
ENDBRANCH  27  29
BRANCH  27  31
HETATM   31  O   UNK N   1      27.205  17.841   4.081  0.00  0.00    -0.289 OA
BRANCH  31  32
HETATM   32  C   UNK N   1      27.994  18.310   5.201  0.00  0.00     0.169 C 
HETATM   33  C   UNK N   1      28.424  17.109   5.972  0.00  0.00     0.089 C 
HETATM   34  C   UNK N   1      28.802  17.662   7.338  0.00  0.00     0.234 C 
HETATM   35  O   UNK N   1      28.267  18.960   7.461  0.00  0.00    -0.356 OA
HETATM   36  C   UNK N   1      27.431  19.165   6.355  0.00  0.00     0.177 C 
BRANCH  34  37
HETATM   37  N   UNK N   1      30.266  17.645   7.521  0.00  0.00    -0.296 N 
HETATM   38  C   UNK N   1      31.015  17.179   6.480  0.00  0.00     0.101 A 
HETATM   39  C   UNK N   1      32.400  17.121   6.564  0.00  0.00     0.065 A 
HETATM   40  C   UNK N   1      33.010  17.536   7.738  0.00  0.00     0.102 A 
HETATM   41  N   UNK N   1      32.254  17.985   8.770  0.00  0.00    -0.308 N 
HETATM   42  C   UNK N   1      30.900  18.046   8.680  0.00  0.00     0.227 A 
ATOM     43  HN  UNK N   1      32.712  18.283   9.631  1.00  0.00     0.171 HD
BRANCH  40  44
HETATM   44  N   UNK N   1      34.281  17.490   7.851  0.00  0.00    -0.385 N 
HETATM   45  H   UNK N   1      34.735  16.959   8.544  0.00  0.00     0.157 HD
ATOM     46  HN  UNK N   1      34.849  18.026   7.195  1.00  0.00     0.157 HD
ENDBRANCH  40  44
BRANCH  42  47
HETATM   47  O   UNK N   1      30.207  18.487   9.745  0.00  0.00    -0.332 OA
HETATM   48  H   UNK N   1      30.039  19.404   9.850  0.00  0.00     0.221 HD
ENDBRANCH  42  47
ENDBRANCH  34  37
BRANCH  36  49
HETATM   49  C   UNK N   1      27.436  20.658   6.026  0.00  0.00     0.198 C 
BRANCH  49  50
HETATM   50  O   UNK N   1      26.915  20.877   4.749  0.00  0.00    -0.398 OA
HETATM   51  H   UNK N   1      27.052  20.520   3.858  0.00  0.00     0.209 HD
ENDBRANCH  49  50
ENDBRANCH  36  49
ENDBRANCH  31  32
ENDBRANCH  27  31
ENDBRANCH   1  27
TORSDOF 14
ENDMDL
MODEL 6
REMARK VINA RESULT:      -7.9      7.888     11.173
REMARK  14 active torsions:
REMARK  status: ('A' for Active; 'I' for Inactive)
REMARK    1  A    between atoms: C_10  and  C_5 
REMARK    2  A    between atoms: O_33  and  C_5 
REMARK    3  A    between atoms: C_11  and  C_6 
REMARK    4  A    between atoms: O_39  and  C_6 
REMARK    5  A    between atoms: C_8  and  O_34 
REMARK    6  A    between atoms: O_42  and  C_9 
REMARK    7  A    between atoms: N_20  and  C_12 
REMARK    8  A    between atoms: C_13  and  N_32 
REMARK    9  A    between atoms: N_31  and  C_14 
REMARK   10  A    between atoms: O_35  and  C_17 
REMARK   11  A    between atoms: O_36  and  C_19 
REMARK   12  A    between atoms: P_43  and  O_37 
REMARK   13  A    between atoms: P_43  and  O_39 
REMARK   14  A    between atoms: P_43  and  O_42 
ROOT
HETATM    1  O   UNK N   1      25.688  16.813   3.081  0.00  0.00    -0.294 OA
ENDROOT
BRANCH   1   2
HETATM    2  C   UNK N   1      26.605  15.815   2.674  0.00  0.00     0.215 C 
BRANCH   2   3
HETATM    3  C   UNK N   1      27.901  15.955   3.424  0.00  0.00     0.177 C 
HETATM    4  C   UNK N   1      29.072  15.327   2.728  0.00  0.00     0.153 C 
HETATM    5  C   UNK N   1      30.175  15.875   3.591  0.00  0.00     0.088 C 
HETATM    6  C   UNK N   1      29.594  17.226   4.039  0.00  0.00     0.233 C 
HETATM    7  O   UNK N   1      28.279  17.301   3.536  0.00  0.00    -0.356 OA
BRANCH   4   8
HETATM    8  O   UNK N   1      29.029  13.933   2.736  0.00  0.00    -0.393 OA
HETATM    9  H   UNK N   1      29.171  13.045   2.374  0.00  0.00     0.210 HD
ENDBRANCH   4   8
BRANCH   6  10
HETATM   10  N   UNK N   1      29.548  17.321   5.504  0.00  0.00    -0.299 N 
HETATM   11  C   UNK N   1      30.297  16.619   6.394  0.00  0.00     0.188 A 
HETATM   12  N   UNK N   1      29.976  16.947   7.678  0.00  0.00    -0.346 N 
HETATM   13  C   UNK N   1      29.013  17.882   7.556  0.00  0.00     0.130 A 
ATOM     14  HN  UNK N   1      30.373  16.570   8.538  1.00  0.00     0.167 HD
HETATM   15  C   UNK N   1      28.761  18.107   6.256  0.00  0.00     0.157 A 
HETATM   16  C   UNK N   1      28.317  18.580   8.529  0.00  0.00     0.186 A 
HETATM   17  N   UNK N   1      27.842  19.018   5.841  0.00  0.00    -0.174 N 
HETATM   18  C   UNK N   1      27.152  19.721   6.789  0.00  0.00     0.679 A 
HETATM   19  H   UNK N   1      27.677  19.167   4.882  0.00  0.00     0.186 HD
HETATM   20  N   UNK N   1      26.288  20.592   6.429  0.00  0.00    -0.234 N 
HETATM   21  N   UNK N   1      27.389  19.499   8.123  0.00  0.00    -0.168 N 
HETATM   22  H   UNK N   1      25.915  20.570   5.518  0.00  0.00     0.174 HD
ATOM     23  HN  UNK N   1      25.983  21.309   7.087  1.00  0.00     0.174 HD
ATOM     24  HN  UNK N   1      26.863  20.027   8.821  1.00  0.00     0.186 HD
BRANCH  16  25
HETATM   25  O   UNK N   1      28.544  18.370   9.836  0.00  0.00    -0.344 OA
HETATM   26  H   UNK N   1      27.919  18.607  10.493  0.00  0.00     0.219 HD
ENDBRANCH  16  25
ENDBRANCH   6  10
ENDBRANCH   2   3
ENDBRANCH   1   2
BRANCH   1  27
HETATM   27  P   UNK N   1      24.941  16.559   4.691  0.00  0.00     0.393 P 
HETATM   28  O   UNK N   1      24.942  18.086   4.954  0.00  0.00    -0.631 OA
BRANCH  27  29
HETATM   29  O   UNK N   1      23.958  16.055   3.347  0.00  0.00    -0.307 OA
HETATM   30  H   UNK N   1      23.194  16.248   2.781  0.00  0.00     0.222 HD
ENDBRANCH  27  29
BRANCH  27  31
HETATM   31  O   UNK N   1      23.204  16.693   5.107  0.00  0.00    -0.289 OA
BRANCH  31  32
HETATM   32  C   UNK N   1      22.575  16.119   6.278  0.00  0.00     0.169 C 
HETATM   33  C   UNK N   1      22.784  14.644   6.212  0.00  0.00     0.089 C 
HETATM   34  C   UNK N   1      21.728  14.078   7.149  0.00  0.00     0.234 C 
HETATM   35  O   UNK N   1      20.769  15.079   7.404  0.00  0.00    -0.356 OA
HETATM   36  C   UNK N   1      21.056  16.148   6.543  0.00  0.00     0.177 C 
BRANCH  34  37
HETATM   37  N   UNK N   1      22.348  13.574   8.390  0.00  0.00    -0.296 N 
HETATM   38  C   UNK N   1      23.700  13.385   8.375  0.00  0.00     0.101 A 
HETATM   39  C   UNK N   1      24.368  12.908   9.495  0.00  0.00     0.065 A 
HETATM   40  C   UNK N   1      23.630  12.615  10.631  0.00  0.00     0.102 A 
HETATM   41  N   UNK N   1      22.287  12.795  10.630  0.00  0.00    -0.308 N 
HETATM   42  C   UNK N   1      21.639  13.267   9.534  0.00  0.00     0.227 A 
ATOM     43  HN  UNK N   1      21.752  12.571  11.469  1.00  0.00     0.171 HD
BRANCH  40  44
HETATM   44  N   UNK N   1      24.213  12.169  11.676  0.00  0.00    -0.385 N 
HETATM   45  H   UNK N   1      23.743  11.650  12.368  0.00  0.00     0.157 HD
ATOM     46  HN  UNK N   1      25.208  12.360  11.800  1.00  0.00     0.157 HD
ENDBRANCH  40  44
BRANCH  42  47
HETATM   47  O   UNK N   1      20.302  13.410   9.592  0.00  0.00    -0.332 OA
HETATM   48  H   UNK N   1      19.920  14.021  10.191  0.00  0.00     0.221 HD
ENDBRANCH  42  47
ENDBRANCH  34  37
BRANCH  36  49
HETATM   49  C   UNK N   1      20.611  17.441   7.226  0.00  0.00     0.198 C 
BRANCH  49  50
HETATM   50  O   UNK N   1      21.417  18.507   6.823  0.00  0.00    -0.398 OA
HETATM   51  H   UNK N   1      22.321  18.626   6.495  0.00  0.00     0.209 HD
ENDBRANCH  49  50
ENDBRANCH  36  49
ENDBRANCH  31  32
ENDBRANCH  27  31
ENDBRANCH   1  27
TORSDOF 14
ENDMDL
MODEL 7
REMARK VINA RESULT:      -7.7      5.327     13.354
REMARK  14 active torsions:
REMARK  status: ('A' for Active; 'I' for Inactive)
REMARK    1  A    between atoms: C_10  and  C_5 
REMARK    2  A    between atoms: O_33  and  C_5 
REMARK    3  A    between atoms: C_11  and  C_6 
REMARK    4  A    between atoms: O_39  and  C_6 
REMARK    5  A    between atoms: C_8  and  O_34 
REMARK    6  A    between atoms: O_42  and  C_9 
REMARK    7  A    between atoms: N_20  and  C_12 
REMARK    8  A    between atoms: C_13  and  N_32 
REMARK    9  A    between atoms: N_31  and  C_14 
REMARK   10  A    between atoms: O_35  and  C_17 
REMARK   11  A    between atoms: O_36  and  C_19 
REMARK   12  A    between atoms: P_43  and  O_37 
REMARK   13  A    between atoms: P_43  and  O_39 
REMARK   14  A    between atoms: P_43  and  O_42 
ROOT
HETATM    1  O   UNK N   1      28.860  16.199   5.880  0.00  0.00    -0.294 OA
ENDROOT
BRANCH   1   2
HETATM    2  C   UNK N   1      29.782  17.062   6.520  0.00  0.00     0.215 C 
BRANCH   2   3
HETATM    3  C   UNK N   1      31.143  16.933   5.893  0.00  0.00     0.177 C 
HETATM    4  C   UNK N   1      31.248  17.575   4.541  0.00  0.00     0.153 C 
HETATM    5  C   UNK N   1      32.737  17.488   4.358  0.00  0.00     0.088 C 
HETATM    6  C   UNK N   1      33.246  17.585   5.806  0.00  0.00     0.233 C 
HETATM    7  O   UNK N   1      32.114  17.609   6.644  0.00  0.00    -0.356 OA
BRANCH   4   8
HETATM    8  O   UNK N   1      30.546  16.885   3.553  0.00  0.00    -0.393 OA
HETATM    9  H   UNK N   1      29.803  16.719   2.952  0.00  0.00     0.210 HD
ENDBRANCH   4   8
BRANCH   6  10
HETATM   10  N   UNK N   1      34.071  16.421   6.154  0.00  0.00    -0.299 N 
HETATM   11  C   UNK N   1      34.479  15.428   5.322  0.00  0.00     0.188 A 
HETATM   12  N   UNK N   1      35.216  14.494   5.990  0.00  0.00    -0.346 N 
HETATM   13  C   UNK N   1      35.260  14.945   7.259  0.00  0.00     0.130 A 
ATOM     14  HN  UNK N   1      35.637  13.645   5.614  1.00  0.00     0.167 HD
HETATM   15  C   UNK N   1      34.579  16.098   7.355  0.00  0.00     0.157 A 
HETATM   16  C   UNK N   1      35.876  14.407   8.377  0.00  0.00     0.186 A 
HETATM   17  N   UNK N   1      34.473  16.785   8.522  0.00  0.00    -0.174 N 
HETATM   18  C   UNK N   1      35.082  16.272   9.633  0.00  0.00     0.679 A 
HETATM   19  H   UNK N   1      33.970  17.630   8.567  0.00  0.00     0.186 HD
HETATM   20  N   UNK N   1      35.008  16.901  10.745  0.00  0.00    -0.234 N 
HETATM   21  N   UNK N   1      35.776  15.090   9.559  0.00  0.00    -0.168 N 
HETATM   22  H   UNK N   1      34.309  17.579  10.882  0.00  0.00     0.174 HD
ATOM     23  HN  UNK N   1      35.674  16.697  11.491  1.00  0.00     0.174 HD
ATOM     24  HN  UNK N   1      36.221  14.715  10.396  1.00  0.00     0.186 HD
BRANCH  16  25
HETATM   25  O   UNK N   1      36.558  13.252   8.311  0.00  0.00    -0.344 OA
HETATM   26  H   UNK N   1      36.289  12.548   7.755  0.00  0.00     0.219 HD
ENDBRANCH  16  25
ENDBRANCH   6  10
ENDBRANCH   2   3
ENDBRANCH   1   2
BRANCH   1  27
HETATM   27  P   UNK N   1      27.193  16.842   5.716  0.00  0.00     0.393 P 
HETATM   28  O   UNK N   1      27.679  18.258   6.113  0.00  0.00    -0.631 OA
BRANCH  27  29
HETATM   29  O   UNK N   1      27.882  16.224   4.243  0.00  0.00    -0.307 OA
HETATM   30  H   UNK N   1      28.689  16.018   3.747  0.00  0.00     0.222 HD
ENDBRANCH  27  29
BRANCH  27  31
HETATM   31  O   UNK N   1      26.501  17.695   4.303  0.00  0.00    -0.289 OA
BRANCH  31  32
HETATM   32  C   UNK N   1      25.174  17.484   3.762  0.00  0.00     0.169 C 
HETATM   33  C   UNK N   1      24.250  18.399   4.491  0.00  0.00     0.089 C 
HETATM   34  C   UNK N   1      22.871  17.804   4.246  0.00  0.00     0.234 C 
HETATM   35  O   UNK N   1      23.027  16.485   3.776  0.00  0.00    -0.356 OA
HETATM   36  C   UNK N   1      24.387  16.165   3.899  0.00  0.00     0.177 C 
BRANCH  34  37
HETATM   37  N   UNK N   1      22.102  18.641   3.305  0.00  0.00    -0.296 N 
HETATM   38  C   UNK N   1      22.527  19.926   3.129  0.00  0.00     0.101 A 
HETATM   39  C   UNK N   1      21.862  20.789   2.268  0.00  0.00     0.065 A 
HETATM   40  C   UNK N   1      20.743  20.320   1.596  0.00  0.00     0.102 A 
HETATM   41  N   UNK N   1      20.322  19.046   1.790  0.00  0.00    -0.308 N 
HETATM   42  C   UNK N   1      20.981  18.205   2.628  0.00  0.00     0.227 A 
ATOM     43  HN  UNK N   1      19.495  18.713   1.295  1.00  0.00     0.171 HD
BRANCH  40  44
HETATM   44  N   UNK N   1      20.104  21.089   0.802  0.00  0.00    -0.385 N 
HETATM   45  H   UNK N   1      19.342  20.781   0.260  0.00  0.00     0.157 HD
ATOM     46  HN  UNK N   1      20.397  22.063   0.724  1.00  0.00     0.157 HD
ENDBRANCH  40  44
BRANCH  42  47
HETATM   47  O   UNK N   1      20.504  16.957   2.788  0.00  0.00    -0.332 OA
HETATM   48  H   UNK N   1      19.579  16.808   2.830  0.00  0.00     0.221 HD
ENDBRANCH  42  47
ENDBRANCH  34  37
BRANCH  36  49
HETATM   49  C   UNK N   1      24.740  15.161   2.802  0.00  0.00     0.198 C 
BRANCH  49  50
HETATM   50  O   UNK N   1      25.997  15.448   2.265  0.00  0.00    -0.398 OA
HETATM   51  H   UNK N   1      26.418  16.193   1.809  0.00  0.00     0.209 HD
ENDBRANCH  49  50
ENDBRANCH  36  49
ENDBRANCH  31  32
ENDBRANCH  27  31
ENDBRANCH   1  27
TORSDOF 14
ENDMDL
MODEL 8
REMARK VINA RESULT:      -7.6      9.903     12.721
REMARK  14 active torsions:
REMARK  status: ('A' for Active; 'I' for Inactive)
REMARK    1  A    between atoms: C_10  and  C_5 
REMARK    2  A    between atoms: O_33  and  C_5 
REMARK    3  A    between atoms: C_11  and  C_6 
REMARK    4  A    between atoms: O_39  and  C_6 
REMARK    5  A    between atoms: C_8  and  O_34 
REMARK    6  A    between atoms: O_42  and  C_9 
REMARK    7  A    between atoms: N_20  and  C_12 
REMARK    8  A    between atoms: C_13  and  N_32 
REMARK    9  A    between atoms: N_31  and  C_14 
REMARK   10  A    between atoms: O_35  and  C_17 
REMARK   11  A    between atoms: O_36  and  C_19 
REMARK   12  A    between atoms: P_43  and  O_37 
REMARK   13  A    between atoms: P_43  and  O_39 
REMARK   14  A    between atoms: P_43  and  O_42 
ROOT
HETATM    1  O   UNK N   1      19.323  16.778   4.002  0.00  0.00    -0.294 OA
ENDROOT
BRANCH   1   2
HETATM    2  C   UNK N   1      20.380  16.557   3.087  0.00  0.00     0.215 C 
BRANCH   2   3
HETATM    3  C   UNK N   1      21.102  17.845   2.798  0.00  0.00     0.177 C 
HETATM    4  C   UNK N   1      20.287  18.831   2.015  0.00  0.00     0.153 C 
HETATM    5  C   UNK N   1      21.184  20.030   2.147  0.00  0.00     0.088 C 
HETATM    6  C   UNK N   1      21.840  19.793   3.518  0.00  0.00     0.233 C 
HETATM    7  O   UNK N   1      21.394  18.539   3.981  0.00  0.00    -0.356 OA
BRANCH   4   8
HETATM    8  O   UNK N   1      20.096  18.449   0.687  0.00  0.00    -0.393 OA
HETATM    9  H   UNK N   1      20.055  18.585  -0.272  0.00  0.00     0.210 HD
ENDBRANCH   4   8
BRANCH   6  10
HETATM   10  N   UNK N   1      23.304  19.765   3.404  0.00  0.00    -0.299 N 
HETATM   11  C   UNK N   1      24.087  20.624   2.703  0.00  0.00     0.188 A 
HETATM   12  N   UNK N   1      25.405  20.286   2.803  0.00  0.00    -0.346 N 
HETATM   13  C   UNK N   1      25.414  19.198   3.598  0.00  0.00     0.130 A 
ATOM     14  HN  UNK N   1      26.205  20.751   2.373  1.00  0.00     0.167 HD
HETATM   15  C   UNK N   1      24.158  18.889   3.960  0.00  0.00     0.157 A 
HETATM   16  C   UNK N   1      26.475  18.430   4.050  0.00  0.00     0.186 A 
HETATM   17  N   UNK N   1      23.873  17.842   4.777  0.00  0.00    -0.174 N 
HETATM   18  C   UNK N   1      24.910  17.079   5.237  0.00  0.00     0.679 A 
HETATM   19  H   UNK N   1      22.944  17.638   5.030  0.00  0.00     0.186 HD
HETATM   20  N   UNK N   1      24.674  16.092   6.016  0.00  0.00    -0.234 N 
HETATM   21  N   UNK N   1      26.200  17.372   4.873  0.00  0.00    -0.168 N 
HETATM   22  H   UNK N   1      23.770  15.708   6.065  0.00  0.00     0.174 HD
ATOM     23  HN  UNK N   1      25.425  15.702   6.586  1.00  0.00     0.174 HD
ATOM     24  HN  UNK N   1      26.965  16.792   5.219  1.00  0.00     0.186 HD
BRANCH  16  25
HETATM   25  O   UNK N   1      27.740  18.712   3.698  0.00  0.00    -0.344 OA
HETATM   26  H   UNK N   1      28.012  18.739   2.802  0.00  0.00     0.219 HD
ENDBRANCH  16  25
ENDBRANCH   6  10
ENDBRANCH   2   3
ENDBRANCH   1   2
BRANCH   1  27
HETATM   27  P   UNK N   1      19.527  16.013   5.612  0.00  0.00     0.393 P 
HETATM   28  O   UNK N   1      18.007  15.728   5.690  0.00  0.00    -0.631 OA
BRANCH  27  29
HETATM   29  O   UNK N   1      20.352  15.202   4.312  0.00  0.00    -0.307 OA
HETATM   30  H   UNK N   1      20.472  14.378   3.815  0.00  0.00     0.222 HD
ENDBRANCH  27  29
BRANCH  27  31
HETATM   31  O   UNK N   1      19.669  14.263   5.964  0.00  0.00    -0.289 OA
BRANCH  31  32
HETATM   32  C   UNK N   1      20.794  13.627   6.618  0.00  0.00     0.169 C 
HETATM   33  C   UNK N   1      21.234  14.533   7.718  0.00  0.00     0.089 C 
HETATM   34  C   UNK N   1      22.651  14.077   8.028  0.00  0.00     0.234 C 
HETATM   35  O   UNK N   1      23.111  13.278   6.962  0.00  0.00    -0.356 OA
HETATM   36  C   UNK N   1      22.155  13.372   5.941  0.00  0.00     0.177 C 
BRANCH  34  37
HETATM   37  N   UNK N   1      22.698  13.361   9.318  0.00  0.00    -0.296 N 
HETATM   38  C   UNK N   1      21.503  13.062   9.905  0.00  0.00     0.101 A 
HETATM   39  C   UNK N   1      21.450  12.396  11.122  0.00  0.00     0.065 A 
HETATM   40  C   UNK N   1      22.642  12.049  11.739  0.00  0.00     0.102 A 
HETATM   41  N   UNK N   1      23.823  12.363  11.153  0.00  0.00    -0.308 N 
HETATM   42  C   UNK N   1      23.869  13.009   9.959  0.00  0.00     0.227 A 
ATOM     43  HN  UNK N   1      24.695  12.108  11.618  1.00  0.00     0.171 HD
BRANCH  40  44
HETATM   44  N   UNK N   1      22.629  11.441  12.862  0.00  0.00    -0.385 N 
HETATM   45  H   UNK N   1      21.943  11.607  13.549  0.00  0.00     0.157 HD
ATOM     46  HN  UNK N   1      23.358  10.755  13.055  1.00  0.00     0.157 HD
ENDBRANCH  40  44
BRANCH  42  47
HETATM   47  O   UNK N   1      25.073  13.304   9.437  0.00  0.00    -0.332 OA
HETATM   48  H   UNK N   1      25.617  12.623   9.092  0.00  0.00     0.221 HD
ENDBRANCH  42  47
ENDBRANCH  34  37
BRANCH  36  49
HETATM   49  C   UNK N   1      22.174  12.062   5.152  0.00  0.00     0.198 C 
BRANCH  49  50
HETATM   50  O   UNK N   1      23.031  12.167   4.054  0.00  0.00    -0.398 OA
HETATM   51  H   UNK N   1      23.934  12.478   3.889  0.00  0.00     0.209 HD
ENDBRANCH  49  50
ENDBRANCH  36  49
ENDBRANCH  31  32
ENDBRANCH  27  31
ENDBRANCH   1  27
TORSDOF 14
ENDMDL
MODEL 9
REMARK VINA RESULT:      -7.6      5.552      8.971
REMARK  14 active torsions:
REMARK  status: ('A' for Active; 'I' for Inactive)
REMARK    1  A    between atoms: C_10  and  C_5 
REMARK    2  A    between atoms: O_33  and  C_5 
REMARK    3  A    between atoms: C_11  and  C_6 
REMARK    4  A    between atoms: O_39  and  C_6 
REMARK    5  A    between atoms: C_8  and  O_34 
REMARK    6  A    between atoms: O_42  and  C_9 
REMARK    7  A    between atoms: N_20  and  C_12 
REMARK    8  A    between atoms: C_13  and  N_32 
REMARK    9  A    between atoms: N_31  and  C_14 
REMARK   10  A    between atoms: O_35  and  C_17 
REMARK   11  A    between atoms: O_36  and  C_19 
REMARK   12  A    between atoms: P_43  and  O_37 
REMARK   13  A    between atoms: P_43  and  O_39 
REMARK   14  A    between atoms: P_43  and  O_42 
ROOT
HETATM    1  O   UNK N   1      27.519  16.395   4.085  0.00  0.00    -0.294 OA
ENDROOT
BRANCH   1   2
HETATM    2  C   UNK N   1      26.545  17.420   4.038  0.00  0.00     0.215 C 
BRANCH   2   3
HETATM    3  C   UNK N   1      25.198  16.882   4.439  0.00  0.00     0.177 C 
HETATM    4  C   UNK N   1      25.225  16.063   5.695  0.00  0.00     0.153 C 
HETATM    5  C   UNK N   1      23.744  15.933   5.918  0.00  0.00     0.088 C 
HETATM    6  C   UNK N   1      23.211  17.245   5.319  0.00  0.00     0.233 C 
HETATM    7  O   UNK N   1      24.310  17.920   4.752  0.00  0.00    -0.356 OA
BRANCH   4   8
HETATM    8  O   UNK N   1      25.851  14.828   5.529  0.00  0.00    -0.393 OA
HETATM    9  H   UNK N   1      26.585  14.235   5.304  0.00  0.00     0.210 HD
ENDBRANCH   4   8
BRANCH   6  10
HETATM   10  N   UNK N   1      22.221  16.981   4.267  0.00  0.00    -0.299 N 
HETATM   11  C   UNK N   1      21.746  15.771   3.875  0.00  0.00     0.188 A 
HETATM   12  N   UNK N   1      20.851  15.898   2.853  0.00  0.00    -0.346 N 
HETATM   13  C   UNK N   1      20.778  17.226   2.633  0.00  0.00     0.130 A 
ATOM     14  HN  UNK N   1      20.350  15.156   2.365  1.00  0.00     0.167 HD
HETATM   15  C   UNK N   1      21.594  17.872   3.481  0.00  0.00     0.157 A 
HETATM   16  C   UNK N   1      20.022  17.939   1.717  0.00  0.00     0.186 A 
HETATM   17  N   UNK N   1      21.708  19.226   3.492  0.00  0.00    -0.174 N 
HETATM   18  C   UNK N   1      20.962  19.945   2.599  0.00  0.00     0.679 A 
HETATM   19  H   UNK N   1      22.311  19.676   4.125  0.00  0.00     0.186 HD
HETATM   20  N   UNK N   1      21.040  21.222   2.592  0.00  0.00    -0.234 N 
HETATM   21  N   UNK N   1      20.128  19.303   1.718  0.00  0.00    -0.168 N 
HETATM   22  H   UNK N   1      21.810  21.671   3.008  0.00  0.00     0.174 HD
ATOM     23  HN  UNK N   1      20.304  21.774   2.152  1.00  0.00     0.174 HD
ATOM     24  HN  UNK N   1      19.581  19.851   1.053  1.00  0.00     0.186 HD
BRANCH  16  25
HETATM   25  O   UNK N   1      19.203  17.318   0.853  0.00  0.00    -0.344 OA
HETATM   26  H   UNK N   1      18.598  16.659   1.129  0.00  0.00     0.219 HD
ENDBRANCH  16  25
ENDBRANCH   6  10
ENDBRANCH   2   3
ENDBRANCH   1   2
BRANCH   1  27
HETATM   27  P   UNK N   1      28.993  16.777   5.034  0.00  0.00     0.393 P 
HETATM   28  O   UNK N   1      29.366  15.276   5.095  0.00  0.00    -0.631 OA
BRANCH  27  29
HETATM   29  O   UNK N   1      28.965  17.455   3.431  0.00  0.00    -0.307 OA
HETATM   30  H   UNK N   1      29.478  17.714   2.650  0.00  0.00     0.222 HD
ENDBRANCH  27  29
BRANCH  27  31
HETATM   31  O   UNK N   1      30.661  16.961   4.409  0.00  0.00    -0.289 OA
BRANCH  31  32
HETATM   32  C   UNK N   1      31.858  16.470   5.058  0.00  0.00     0.169 C 
HETATM   33  C   UNK N   1      32.424  17.600   5.850  0.00  0.00     0.089 C 
HETATM   34  C   UNK N   1      33.871  17.195   6.090  0.00  0.00     0.234 C 
HETATM   35  O   UNK N   1      34.201  16.155   5.198  0.00  0.00    -0.356 OA
HETATM   36  C   UNK N   1      33.129  16.027   4.305  0.00  0.00     0.177 C 
BRANCH  34  37
HETATM   37  N   UNK N   1      34.077  16.805   7.499  0.00  0.00    -0.296 N 
HETATM   38  C   UNK N   1      33.796  15.512   7.831  0.00  0.00     0.101 A 
HETATM   39  C   UNK N   1      33.954  15.056   9.133  0.00  0.00     0.065 A 
HETATM   40  C   UNK N   1      34.394  15.950  10.098  0.00  0.00     0.102 A 
HETATM   41  N   UNK N   1      34.657  17.235   9.758  0.00  0.00    -0.308 N 
HETATM   42  C   UNK N   1      34.507  17.674   8.482  0.00  0.00     0.227 A 
ATOM     43  HN  UNK N   1      34.975  17.886  10.476  1.00  0.00     0.171 HD
BRANCH  40  44
HETATM   44  N   UNK N   1      34.545  15.565  11.306  0.00  0.00    -0.385 N 
HETATM   45  H   UNK N   1      34.072  15.985  12.061  0.00  0.00     0.157 HD
ATOM     46  HN  UNK N   1      35.181  14.792  11.497  1.00  0.00     0.157 HD
ENDBRANCH  40  44
BRANCH  42  47
HETATM   47  O   UNK N   1      34.771  18.965   8.212  0.00  0.00    -0.332 OA
HETATM   48  H   UNK N   1      34.569  19.629   8.843  0.00  0.00     0.221 HD
ENDBRANCH  42  47
ENDBRANCH  34  37
BRANCH  36  49
HETATM   49  C   UNK N   1      33.057  14.568   3.855  0.00  0.00     0.198 C 
BRANCH  49  50
HETATM   50  O   UNK N   1      31.745  14.096   3.940  0.00  0.00    -0.398 OA
HETATM   51  H   UNK N   1      31.309  13.246   4.103  0.00  0.00     0.209 HD
ENDBRANCH  49  50
ENDBRANCH  36  49
ENDBRANCH  31  32
ENDBRANCH  27  31
ENDBRANCH   1  27
TORSDOF 14
ENDMDL
