MODEL 1
REMARK VINA RESULT:      -7.6      0.000      0.000
REMARK WARNING: 32 MAX_TORS EXCEEDED!!!
REMARK  37 active torsions:
REMARK  status: ('A' for Active; 'I' for Inactive)
REMARK    1  A    between atoms: S_1  and  C_34 
REMARK    2  A    between atoms: S_1  and  C_57 
REMARK    3  A    between atoms: P_2  and  O_5 
REMARK    4  A    between atoms: P_2  and  O_6 
REMARK    5  A    between atoms: P_2  and  O_9 
REMARK    6  A    between atoms: P_3  and  O_5 
REMARK    7  A    between atoms: P_3  and  O_7 
REMARK    8  A    between atoms: P_3  and  O_10 
REMARK    9  A    between atoms: P_4  and  O_8 
REMARK   10  A    between atoms: P_4  and  O_11 
REMARK   11  A    between atoms: P_4  and  O_12 
REMARK   12  A    between atoms: O_6  and  C_35 
REMARK   13  A    between atoms: O_7  and  C_47 
REMARK   14  A    between atoms: C_56  and  O_8 
REMARK   15  A    between atoms: C_33  and  O_13 
REMARK   16  A    between atoms: C_55  and  O_14 
REMARK   17  A    between atoms: N_22  and  C_37 
REMARK       I    between atoms: N_22  and  C_58 
REMARK   18  A    between atoms: N_23  and  C_36 
REMARK       I    between atoms: N_23  and  C_59 
REMARK   19  A    between atoms: N_24  and  C_60 
REMARK   20  A    between atoms: C_53  and  N_25 
REMARK   21  A    between atoms: C_32  and  C_33 
REMARK   22  A    between atoms: C_32  and  C_35 
REMARK   23  A    between atoms: C_33  and  C_58 
REMARK   24  A    between atoms: C_34  and  C_36 
REMARK   25  A    between atoms: C_37  and  C_49 
REMARK   26  A    between atoms: C_38  and  C_39 
REMARK   27  A    between atoms: C_38  and  C_40 
REMARK   28  A    between atoms: C_39  and  C_41 
REMARK   29  A    between atoms: C_40  and  C_42 
REMARK   30  A    between atoms: C_41  and  C_43 
REMARK   31  A    between atoms: C_42  and  C_44 
REMARK   32  A    between atoms: C_43  and  C_45 
REMARK   33  A    between atoms: C_44  and  C_46 
REMARK   34  A    between atoms: C_45  and  C_48 
REMARK   35  A    between atoms: C_54  and  C_47 
REMARK   36  A    between atoms: C_48  and  C_57 
REMARK   37  A    between atoms: C_49  and  C_59 
ROOT
HETATM    1  P   UNK N   1      28.488  17.317   4.660  0.00  0.00     0.401 P 
HETATM    2  O   UNK N   1      29.382  16.590   3.634  0.00  0.00    -0.631 OA
ENDROOT
BRANCH   1   3
HETATM    3  O   UNK N   1      27.463  18.477   3.767  0.00  0.00    -0.195 OA
BRANCH   3   4
HETATM    4  P   UNK N   1      26.716  19.747   4.798  0.00  0.00     0.401 P 
HETATM    5  O   UNK N   1      26.007  20.026   3.442  0.00  0.00    -0.631 OA
BRANCH   4   6
HETATM    6  O   UNK N   1      25.027  19.414   5.182  0.00  0.00    -0.294 OA
BRANCH   6   7
HETATM    7  C   UNK N   1      24.278  19.229   4.005  0.00  0.00     0.215 C 
BRANCH   7   8
HETATM    8  C   UNK N   1      23.425  17.979   4.066  0.00  0.00     0.180 C 
HETATM    9  O   UNK N   1      23.668  17.297   5.267  0.00  0.00    -0.353 OA
HETATM   10  C   UNK N   1      22.405  17.096   5.854  0.00  0.00     0.262 C 
HETATM   11  C   UNK N   1      21.355  17.149   4.748  0.00  0.00     0.199 C 
HETATM   12  C   UNK N   1      21.948  18.310   3.987  0.00  0.00     0.197 C 
BRANCH  10  13
HETATM   13  N   UNK N   1      22.456  15.881   6.666  0.00  0.00    -0.297 N 
HETATM   14  C   UNK N   1      21.559  15.563   7.603  0.00  0.00     0.142 A 
HETATM   15  N   UNK N   1      20.439  16.253   7.941  0.00  0.00    -0.336 N 
HETATM   16  C   UNK N   1      21.927  14.429   8.221  0.00  0.00     0.122 A 
HETATM   17  C   UNK N   1      19.662  15.758   8.952  0.00  0.00     0.183 A 
ATOM     18  HN  UNK N   1      20.185  17.113   7.456  1.00  0.00     0.168 HD
HETATM   19  N   UNK N   1      20.024  14.605   9.607  0.00  0.00    -0.337 N 
HETATM   20  C   UNK N   1      21.158  13.923   9.257  0.00  0.00     0.131 A 
ATOM     21  HN  UNK N   1      19.439  14.254  10.365  1.00  0.00     0.168 HD
HETATM   22  N   UNK N   1      23.077  13.973   7.682  0.00  0.00    -0.346 N 
HETATM   23  C   UNK N   1      23.386  14.889   6.718  0.00  0.00     0.188 A 
ATOM     24  HN  UNK N   1      23.597  13.134   7.938  1.00  0.00     0.167 HD
BRANCH  20  25
HETATM   25  N   UNK N   1      21.530  12.753   9.947  0.00  0.00    -0.383 N 
HETATM   26  H   UNK N   1      22.329  12.249   9.670  0.00  0.00     0.157 HD
HETATM   27  H   UNK N   1      20.990  12.438  10.707  0.00  0.00     0.157 HD
ENDBRANCH  20  25
ENDBRANCH  10  13
BRANCH  11  28
HETATM   28  O   UNK N   1      21.412  15.989   3.964  0.00  0.00    -0.388 OA
HETATM   29  H   UNK N   1      21.044  15.745   3.100  0.00  0.00     0.210 HD
ENDBRANCH  11  28
BRANCH  12  30
HETATM   30  O   UNK N   1      21.500  18.374   2.655  0.00  0.00    -0.286 OA
BRANCH  30  31
HETATM   31  P   UNK N   1      20.192  19.540   2.575  0.00  0.00     0.391 P 
HETATM   32  O   UNK N   1      20.290  20.489   3.800  0.00  0.00    -0.632 OA
BRANCH  31  33
HETATM   33  O   UNK N   1      20.358  20.562   1.186  0.00  0.00    -0.307 OA
HETATM   34  H   UNK N   1      19.783  21.338   1.080  0.00  0.00     0.222 HD
ENDBRANCH  31  33
BRANCH  31  35
HETATM   35  O   UNK N   1      18.613  18.819   2.582  0.00  0.00    -0.307 OA
HETATM   36  H   UNK N   1      18.020  18.085   2.804  0.00  0.00     0.222 HD
ENDBRANCH  31  35
ENDBRANCH  30  31
ENDBRANCH  12  30
ENDBRANCH   7   8
ENDBRANCH   6   7
ENDBRANCH   4   6
BRANCH   4  37
HETATM   37  O   UNK N   1      26.523  18.299   5.745  0.00  0.00    -0.307 OA
HETATM   38  H   UNK N   1      25.755  17.720   5.626  0.00  0.00     0.222 HD
ENDBRANCH   4  37
ENDBRANCH   3   4
ENDBRANCH   1   3
BRANCH   1  39
HETATM   39  O   UNK N   1      29.552  17.348   6.028  0.00  0.00    -0.296 OA
BRANCH  39  40
HETATM   40  C   UNK N   1      30.840  17.193   5.523  0.00  0.00     0.192 C 
BRANCH  40  41
HETATM   41  C   UNK N   1      31.923  16.682   6.508  0.00  0.00     0.009 C 
HETATM   42  C   UNK N   1      31.589  15.298   7.068  0.00  0.00     0.020 C 
HETATM   43  C   UNK N   1      32.109  17.614   7.695  0.00  0.00     0.020 C 
BRANCH  41  44
HETATM   44  C   UNK N   1      33.221  16.704   5.679  0.00  0.00     0.219 C 
BRANCH  44  45
HETATM   45  O   UNK N   1      33.901  17.919   5.778  0.00  0.00    -0.385 OA
HETATM   46  H   UNK N   1      33.465  18.785   5.751  0.00  0.00     0.210 HD
ENDBRANCH  44  45
BRANCH  44  47
HETATM   47  C   UNK N   1      34.125  15.579   6.065  0.00  0.00     0.247 C 
HETATM   48  O   UNK N   1      34.083  14.521   5.452  0.00  0.00    -0.271 OA
HETATM   49  N   UNK N   1      34.893  15.715   7.166  0.00  0.00    -0.358 N 
HETATM   50  H   UNK N   1      34.973  16.604   7.582  0.00  0.00     0.162 HD
BRANCH  49  51
HETATM   51  C   UNK N   1      35.598  14.617   7.749  0.00  0.00     0.132 C 
BRANCH  51  52
HETATM   52  C   UNK N   1      35.142  14.546   9.192  0.00  0.00     0.122 C 
BRANCH  52  53
HETATM   53  C   UNK N   1      35.953  15.465  10.056  0.00  0.00     0.219 C 
HETATM   54  O   UNK N   1      35.754  16.666   9.992  0.00  0.00    -0.274 OA
HETATM   55  N   UNK N   1      36.933  14.993  10.872  0.00  0.00    -0.360 N 
HETATM   56  H   UNK N   1      37.470  15.645  11.377  0.00  0.00     0.162 HD
BRANCH  55  57
HETATM   57  C   UNK N   1      37.234  13.586  11.041  0.00  0.00     0.133 C 
BRANCH  57  58
HETATM   58  C   UNK N   1      36.497  12.986  12.238  0.00  0.00     0.102 C 
BRANCH  58  59
HETATM   59  S   UNK N   1      36.136  14.176  13.577  0.00  0.00    -0.091 SA
BRANCH  59  60
HETATM   60  C   UNK N   1      36.142  13.033  14.972  0.00  0.00     0.186 C 
HETATM   61  O   UNK N   1      37.049  12.226  15.087  0.00  0.00    -0.286 OA
BRANCH  60  62
HETATM   62  C   UNK N   1      35.062  13.087  16.012  0.00  0.00     0.091 C 
BRANCH  62  63
HETATM   63  C   UNK N   1      35.407  12.257  17.240  0.00  0.00     0.008 C 
BRANCH  63  64
HETATM   64  C   UNK N   1      35.113  13.036  18.516  0.00  0.00     0.000 C 
BRANCH  64  65
HETATM   65  C   UNK N   1      35.314  12.151  19.741  0.00  0.00     0.000 C 
BRANCH  65  66
HETATM   66  C   UNK N   1      35.573  10.700  19.368  0.00  0.00     0.000 C 
BRANCH  66  67
HETATM   67  C   UNK N   1      34.458   9.795  19.863  0.00  0.00     0.000 C 
BRANCH  67  68
HETATM   68  C   UNK N   1      34.159  10.104  21.312  0.00  0.00     0.000 C 
BRANCH  68  69
HETATM   69  C   UNK N   1      32.656  10.118  21.512  0.00  0.00     0.000 C 
BRANCH  69  70
HETATM   70  C   UNK N   1      32.100   8.709  21.447  0.00  0.00    -0.000 C 
BRANCH  70  71
HETATM   71  C   UNK N   1      31.115   8.566  20.302  0.00  0.00    -0.005 C 
HETATM   72  C   UNK N   1      31.076   7.117  19.866  0.00  0.00     0.005 C 
ENDBRANCH  70  71
ENDBRANCH  69  70
ENDBRANCH  68  69
ENDBRANCH  67  68
ENDBRANCH  66  67
ENDBRANCH  65  66
ENDBRANCH  64  65
ENDBRANCH  63  64
ENDBRANCH  62  63
ENDBRANCH  60  62
ENDBRANCH  59  60
ENDBRANCH  58  59
ENDBRANCH  57  58
ENDBRANCH  55  57
ENDBRANCH  52  53
ENDBRANCH  51  52
ENDBRANCH  49  51
ENDBRANCH  44  47
ENDBRANCH  41  44
ENDBRANCH  40  41
ENDBRANCH  39  40
ENDBRANCH   1  39
BRANCH   1  73
HETATM   73  O   UNK N   1      29.444  18.754   4.505  0.00  0.00    -0.307 OA
HETATM   74  H   UNK N   1      29.112  19.508   3.995  0.00  0.00     0.222 HD
ENDBRANCH   1  73
TORSDOF 37
ENDMDL
MODEL 2
REMARK VINA RESULT:      -7.6      6.955     13.043
REMARK WARNING: 32 MAX_TORS EXCEEDED!!!
REMARK  37 active torsions:
REMARK  status: ('A' for Active; 'I' for Inactive)
REMARK    1  A    between atoms: S_1  and  C_34 
REMARK    2  A    between atoms: S_1  and  C_57 
REMARK    3  A    between atoms: P_2  and  O_5 
REMARK    4  A    between atoms: P_2  and  O_6 
REMARK    5  A    between atoms: P_2  and  O_9 
REMARK    6  A    between atoms: P_3  and  O_5 
REMARK    7  A    between atoms: P_3  and  O_7 
REMARK    8  A    between atoms: P_3  and  O_10 
REMARK    9  A    between atoms: P_4  and  O_8 
REMARK   10  A    between atoms: P_4  and  O_11 
REMARK   11  A    between atoms: P_4  and  O_12 
REMARK   12  A    between atoms: O_6  and  C_35 
REMARK   13  A    between atoms: O_7  and  C_47 
REMARK   14  A    between atoms: C_56  and  O_8 
REMARK   15  A    between atoms: C_33  and  O_13 
REMARK   16  A    between atoms: C_55  and  O_14 
REMARK   17  A    between atoms: N_22  and  C_37 
REMARK       I    between atoms: N_22  and  C_58 
REMARK   18  A    between atoms: N_23  and  C_36 
REMARK       I    between atoms: N_23  and  C_59 
REMARK   19  A    between atoms: N_24  and  C_60 
REMARK   20  A    between atoms: C_53  and  N_25 
REMARK   21  A    between atoms: C_32  and  C_33 
REMARK   22  A    between atoms: C_32  and  C_35 
REMARK   23  A    between atoms: C_33  and  C_58 
REMARK   24  A    between atoms: C_34  and  C_36 
REMARK   25  A    between atoms: C_37  and  C_49 
REMARK   26  A    between atoms: C_38  and  C_39 
REMARK   27  A    between atoms: C_38  and  C_40 
REMARK   28  A    between atoms: C_39  and  C_41 
REMARK   29  A    between atoms: C_40  and  C_42 
REMARK   30  A    between atoms: C_41  and  C_43 
REMARK   31  A    between atoms: C_42  and  C_44 
REMARK   32  A    between atoms: C_43  and  C_45 
REMARK   33  A    between atoms: C_44  and  C_46 
REMARK   34  A    between atoms: C_45  and  C_48 
REMARK   35  A    between atoms: C_54  and  C_47 
REMARK   36  A    between atoms: C_48  and  C_57 
REMARK   37  A    between atoms: C_49  and  C_59 
ROOT
HETATM    1  P   UNK N   1      28.913  14.723   2.674  0.00  0.00     0.401 P 
HETATM    2  O   UNK N   1      27.845  14.150   1.719  0.00  0.00    -0.631 OA
ENDROOT
BRANCH   1   3
HETATM    3  O   UNK N   1      30.371  13.698   2.540  0.00  0.00    -0.195 OA
BRANCH   3   4
HETATM    4  P   UNK N   1      31.698  14.153   3.666  0.00  0.00     0.401 P 
HETATM    5  O   UNK N   1      30.834  15.446   3.705  0.00  0.00    -0.631 OA
BRANCH   4   6
HETATM    6  O   UNK N   1      31.180  14.207   5.351  0.00  0.00    -0.294 OA
BRANCH   6   7
HETATM    7  C   UNK N   1      32.262  14.527   6.193  0.00  0.00     0.215 C 
BRANCH   7   8
HETATM    8  C   UNK N   1      32.085  15.876   6.857  0.00  0.00     0.180 C 
HETATM    9  O   UNK N   1      30.729  16.234   6.850  0.00  0.00    -0.353 OA
HETATM   10  C   UNK N   1      30.410  16.547   8.184  0.00  0.00     0.262 C 
HETATM   11  C   UNK N   1      31.702  16.926   8.903  0.00  0.00     0.199 C 
HETATM   12  C   UNK N   1      32.574  15.857   8.292  0.00  0.00     0.197 C 
BRANCH  10  13
HETATM   13  N   UNK N   1      29.331  17.534   8.188  0.00  0.00    -0.297 N 
HETATM   14  C   UNK N   1      28.852  18.130   7.094  0.00  0.00     0.142 A 
HETATM   15  N   UNK N   1      29.222  17.911   5.806  0.00  0.00    -0.336 N 
HETATM   16  C   UNK N   1      27.924  19.037   7.438  0.00  0.00     0.122 A 
HETATM   17  C   UNK N   1      28.614  18.651   4.830  0.00  0.00     0.183 A 
ATOM     18  HN  UNK N   1      29.931  17.217   5.573  1.00  0.00     0.168 HD
HETATM   19  N   UNK N   1      27.669  19.594   5.158  0.00  0.00    -0.337 N 
HETATM   20  C   UNK N   1      27.309  19.806   6.462  0.00  0.00     0.131 A 
ATOM     21  HN  UNK N   1      27.231  20.144   4.420  1.00  0.00     0.168 HD
HETATM   22  N   UNK N   1      27.769  19.040   8.779  0.00  0.00    -0.346 N 
HETATM   23  C   UNK N   1      28.652  18.098   9.223  0.00  0.00     0.188 A 
ATOM     24  HN  UNK N   1      27.137  19.616   9.333  1.00  0.00     0.167 HD
BRANCH  20  25
HETATM   25  N   UNK N   1      26.354  20.787   6.790  0.00  0.00    -0.383 N 
HETATM   26  H   UNK N   1      26.545  21.738   6.618  0.00  0.00     0.157 HD
HETATM   27  H   UNK N   1      25.496  20.523   7.191  0.00  0.00     0.157 HD
ENDBRANCH  20  25
ENDBRANCH  10  13
BRANCH  11  28
HETATM   28  O   UNK N   1      32.139  18.191   8.488  0.00  0.00    -0.388 OA
HETATM   29  H   UNK N   1      32.897  18.748   8.722  0.00  0.00     0.210 HD
ENDBRANCH  11  28
BRANCH  12  30
HETATM   30  O   UNK N   1      33.945  16.158   8.377  0.00  0.00    -0.286 OA
BRANCH  30  31
HETATM   31  P   UNK N   1      34.496  15.739   9.989  0.00  0.00     0.391 P 
HETATM   32  O   UNK N   1      35.739  14.815   9.870  0.00  0.00    -0.632 OA
BRANCH  31  33
HETATM   33  O   UNK N   1      35.046  17.144  10.841  0.00  0.00    -0.307 OA
HETATM   34  H   UNK N   1      35.653  17.051  11.593  0.00  0.00     0.222 HD
ENDBRANCH  31  33
BRANCH  31  35
HETATM   35  O   UNK N   1      33.305  14.910  10.941  0.00  0.00    -0.307 OA
HETATM   36  H   UNK N   1      33.046  14.177  11.520  0.00  0.00     0.222 HD
ENDBRANCH  31  35
ENDBRANCH  30  31
ENDBRANCH  12  30
ENDBRANCH   7   8
ENDBRANCH   6   7
ENDBRANCH   4   6
BRANCH   4  37
HETATM   37  O   UNK N   1      31.191  12.595   4.255  0.00  0.00    -0.307 OA
HETATM   38  H   UNK N   1      31.818  11.993   4.685  0.00  0.00     0.222 HD
ENDBRANCH   4  37
ENDBRANCH   3   4
ENDBRANCH   1   3
BRANCH   1  39
HETATM   39  O   UNK N   1      27.899  15.336   3.938  0.00  0.00    -0.296 OA
BRANCH  39  40
HETATM   40  C   UNK N   1      26.788  15.893   3.310  0.00  0.00     0.192 C 
BRANCH  40  41
HETATM   41  C   UNK N   1      25.394  15.457   3.833  0.00  0.00     0.009 C 
HETATM   42  C   UNK N   1      25.443  14.107   4.551  0.00  0.00     0.020 C 
HETATM   43  C   UNK N   1      24.370  15.337   2.716  0.00  0.00     0.020 C 
BRANCH  41  44
HETATM   44  C   UNK N   1      24.963  16.616   4.751  0.00  0.00     0.219 C 
BRANCH  44  45
HETATM   45  O   UNK N   1      25.917  16.912   5.727  0.00  0.00    -0.385 OA
HETATM   46  H   UNK N   1      26.685  16.352   5.918  0.00  0.00     0.210 HD
ENDBRANCH  44  45
BRANCH  44  47
HETATM   47  C   UNK N   1      24.645  17.842   3.958  0.00  0.00     0.247 C 
HETATM   48  O   UNK N   1      25.538  18.451   3.387  0.00  0.00    -0.271 OA
HETATM   49  N   UNK N   1      23.383  18.320   3.984  0.00  0.00    -0.358 N 
HETATM   50  H   UNK N   1      22.671  17.762   4.374  0.00  0.00     0.162 HD
BRANCH  49  51
HETATM   51  C   UNK N   1      23.040  19.606   3.465  0.00  0.00     0.132 C 
BRANCH  51  52
HETATM   52  C   UNK N   1      21.528  19.677   3.486  0.00  0.00     0.122 C 
BRANCH  52  53
HETATM   53  C   UNK N   1      20.972  19.660   2.093  0.00  0.00     0.219 C 
HETATM   54  O   UNK N   1      21.291  20.545   1.318  0.00  0.00    -0.274 OA
HETATM   55  N   UNK N   1      20.087  18.708   1.692  0.00  0.00    -0.360 N 
HETATM   56  H   UNK N   1      19.714  18.775   0.784  0.00  0.00     0.162 HD
BRANCH  55  57
HETATM   57  C   UNK N   1      19.662  17.601   2.524  0.00  0.00     0.133 C 
BRANCH  57  58
HETATM   58  C   UNK N   1      20.585  16.393   2.379  0.00  0.00     0.102 C 
BRANCH  58  59
HETATM   59  S   UNK N   1      19.815  14.796   2.822  0.00  0.00    -0.091 SA
BRANCH  59  60
HETATM   60  C   UNK N   1      19.461  15.133   4.559  0.00  0.00     0.186 C 
HETATM   61  O   UNK N   1      18.328  14.977   4.985  0.00  0.00    -0.286 OA
BRANCH  60  62
HETATM   62  C   UNK N   1      20.551  15.568   5.493  0.00  0.00     0.091 C 
BRANCH  62  63
HETATM   63  C   UNK N   1      21.778  14.675   5.397  0.00  0.00     0.008 C 
BRANCH  63  64
HETATM   64  C   UNK N   1      21.496  13.305   6.002  0.00  0.00     0.000 C 
BRANCH  64  65
HETATM   65  C   UNK N   1      22.794  12.633   6.435  0.00  0.00     0.000 C 
BRANCH  65  66
HETATM   66  C   UNK N   1      22.554  11.279   7.082  0.00  0.00     0.000 C 
BRANCH  66  67
HETATM   67  C   UNK N   1      23.677  10.917   8.038  0.00  0.00     0.000 C 
BRANCH  67  68
HETATM   68  C   UNK N   1      23.727  11.922   9.166  0.00  0.00     0.000 C 
BRANCH  68  69
HETATM   69  C   UNK N   1      22.870  11.421  10.312  0.00  0.00     0.000 C 
BRANCH  69  70
HETATM   70  C   UNK N   1      21.938  12.516  10.794  0.00  0.00    -0.000 C 
BRANCH  70  71
HETATM   71  C   UNK N   1      21.961  13.703   9.852  0.00  0.00    -0.005 C 
HETATM   72  C   UNK N   1      20.537  14.123   9.554  0.00  0.00     0.005 C 
ENDBRANCH  70  71
ENDBRANCH  69  70
ENDBRANCH  68  69
ENDBRANCH  67  68
ENDBRANCH  66  67
ENDBRANCH  65  66
ENDBRANCH  64  65
ENDBRANCH  63  64
ENDBRANCH  62  63
ENDBRANCH  60  62
ENDBRANCH  59  60
ENDBRANCH  58  59
ENDBRANCH  57  58
ENDBRANCH  55  57
ENDBRANCH  52  53
ENDBRANCH  51  52
ENDBRANCH  49  51
ENDBRANCH  44  47
ENDBRANCH  41  44
ENDBRANCH  40  41
ENDBRANCH  39  40
ENDBRANCH   1  39
BRANCH   1  73
HETATM   73  O   UNK N   1      28.659  13.412   3.777  0.00  0.00    -0.307 OA
HETATM   74  H   UNK N   1      28.740  12.495   3.472  0.00  0.00     0.222 HD
ENDBRANCH   1  73
TORSDOF 37
ENDMDL
MODEL 3
REMARK VINA RESULT:      -7.5      7.309     14.120
REMARK WARNING: 32 MAX_TORS EXCEEDED!!!
REMARK  37 active torsions:
REMARK  status: ('A' for Active; 'I' for Inactive)
REMARK    1  A    between atoms: S_1  and  C_34 
REMARK    2  A    between atoms: S_1  and  C_57 
REMARK    3  A    between atoms: P_2  and  O_5 
REMARK    4  A    between atoms: P_2  and  O_6 
REMARK    5  A    between atoms: P_2  and  O_9 
REMARK    6  A    between atoms: P_3  and  O_5 
REMARK    7  A    between atoms: P_3  and  O_7 
REMARK    8  A    between atoms: P_3  and  O_10 
REMARK    9  A    between atoms: P_4  and  O_8 
REMARK   10  A    between atoms: P_4  and  O_11 
REMARK   11  A    between atoms: P_4  and  O_12 
REMARK   12  A    between atoms: O_6  and  C_35 
REMARK   13  A    between atoms: O_7  and  C_47 
REMARK   14  A    between atoms: C_56  and  O_8 
REMARK   15  A    between atoms: C_33  and  O_13 
REMARK   16  A    between atoms: C_55  and  O_14 
REMARK   17  A    between atoms: N_22  and  C_37 
REMARK       I    between atoms: N_22  and  C_58 
REMARK   18  A    between atoms: N_23  and  C_36 
REMARK       I    between atoms: N_23  and  C_59 
REMARK   19  A    between atoms: N_24  and  C_60 
REMARK   20  A    between atoms: C_53  and  N_25 
REMARK   21  A    between atoms: C_32  and  C_33 
REMARK   22  A    between atoms: C_32  and  C_35 
REMARK   23  A    between atoms: C_33  and  C_58 
REMARK   24  A    between atoms: C_34  and  C_36 
REMARK   25  A    between atoms: C_37  and  C_49 
REMARK   26  A    between atoms: C_38  and  C_39 
REMARK   27  A    between atoms: C_38  and  C_40 
REMARK   28  A    between atoms: C_39  and  C_41 
REMARK   29  A    between atoms: C_40  and  C_42 
REMARK   30  A    between atoms: C_41  and  C_43 
REMARK   31  A    between atoms: C_42  and  C_44 
REMARK   32  A    between atoms: C_43  and  C_45 
REMARK   33  A    between atoms: C_44  and  C_46 
REMARK   34  A    between atoms: C_45  and  C_48 
REMARK   35  A    between atoms: C_54  and  C_47 
REMARK   36  A    between atoms: C_48  and  C_57 
REMARK   37  A    between atoms: C_49  and  C_59 
ROOT
HETATM    1  P   UNK N   1      28.137  14.718   4.214  0.00  0.00     0.401 P 
HETATM    2  O   UNK N   1      27.748  15.471   5.504  0.00  0.00    -0.631 OA
ENDROOT
BRANCH   1   3
HETATM    3  O   UNK N   1      29.776  15.251   3.742  0.00  0.00    -0.195 OA
BRANCH   3   4
HETATM    4  P   UNK N   1      31.054  14.010   3.987  0.00  0.00     0.401 P 
HETATM    5  O   UNK N   1      31.909  15.203   3.472  0.00  0.00    -0.631 OA
BRANCH   4   6
HETATM    6  O   UNK N   1      32.090  14.355   5.371  0.00  0.00    -0.294 OA
BRANCH   6   7
HETATM    7  C   UNK N   1      32.638  15.648   5.272  0.00  0.00     0.215 C 
BRANCH   7   8
HETATM    8  C   UNK N   1      32.292  16.504   6.472  0.00  0.00     0.180 C 
HETATM    9  O   UNK N   1      30.980  16.984   6.351  0.00  0.00    -0.353 OA
HETATM   10  C   UNK N   1      30.333  16.634   7.551  0.00  0.00     0.262 C 
HETATM   11  C   UNK N   1      31.400  16.446   8.626  0.00  0.00     0.199 C 
HETATM   12  C   UNK N   1      32.404  15.719   7.765  0.00  0.00     0.197 C 
BRANCH  10  13
HETATM   13  N   UNK N   1      29.284  17.616   7.819  0.00  0.00    -0.297 N 
HETATM   14  C   UNK N   1      28.706  18.375   6.885  0.00  0.00     0.142 A 
HETATM   15  N   UNK N   1      28.933  18.354   5.547  0.00  0.00    -0.336 N 
HETATM   16  C   UNK N   1      27.840  19.226   7.461  0.00  0.00     0.122 A 
HETATM   17  C   UNK N   1      28.243  19.238   4.765  0.00  0.00     0.183 A 
ATOM     18  HN  UNK N   1      29.598  17.698   5.138  1.00  0.00     0.168 HD
HETATM   19  N   UNK N   1      27.360  20.126   5.332  0.00  0.00    -0.337 N 
HETATM   20  C   UNK N   1      27.144  20.138   6.683  0.00  0.00     0.131 A 
ATOM     21  HN  UNK N   1      26.859  20.785   4.736  1.00  0.00     0.168 HD
HETATM   22  N   UNK N   1      27.827  19.025   8.795  0.00  0.00    -0.346 N 
HETATM   23  C   UNK N   1      28.730  18.020   8.995  0.00  0.00     0.188 A 
ATOM     24  HN  UNK N   1      27.269  19.514   9.495  1.00  0.00     0.167 HD
BRANCH  20  25
HETATM   25  N   UNK N   1      26.251  21.065   7.256  0.00  0.00    -0.383 N 
HETATM   26  H   UNK N   1      25.472  21.381   6.744  0.00  0.00     0.157 HD
HETATM   27  H   UNK N   1      26.406  21.396   8.169  0.00  0.00     0.157 HD
ENDBRANCH  20  25
ENDBRANCH  10  13
BRANCH  11  28
HETATM   28  O   UNK N   1      31.922  17.685   9.020  0.00  0.00    -0.388 OA
HETATM   29  H   UNK N   1      31.728  18.292   9.751  0.00  0.00     0.210 HD
ENDBRANCH  11  28
BRANCH  12  30
HETATM   30  O   UNK N   1      33.707  15.765   8.290  0.00  0.00    -0.286 OA
BRANCH  30  31
HETATM   31  P   UNK N   1      33.851  14.508   9.504  0.00  0.00     0.391 P 
HETATM   32  O   UNK N   1      33.106  13.240   9.005  0.00  0.00    -0.632 OA
BRANCH  31  33
HETATM   33  O   UNK N   1      35.503  14.023   9.702  0.00  0.00    -0.307 OA
HETATM   34  H   UNK N   1      35.877  13.917  10.591  0.00  0.00     0.222 HD
ENDBRANCH  31  33
BRANCH  31  35
HETATM   35  O   UNK N   1      33.185  14.946  11.046  0.00  0.00    -0.307 OA
HETATM   36  H   UNK N   1      32.648  15.535  11.598  0.00  0.00     0.222 HD
ENDBRANCH  31  35
ENDBRANCH  30  31
ENDBRANCH  12  30
ENDBRANCH   7   8
ENDBRANCH   6   7
ENDBRANCH   4   6
BRANCH   4  37
HETATM   37  O   UNK N   1      30.180  13.985   5.493  0.00  0.00    -0.307 OA
HETATM   38  H   UNK N   1      29.985  13.150   5.946  0.00  0.00     0.222 HD
ENDBRANCH   4  37
ENDBRANCH   3   4
ENDBRANCH   1   3
BRANCH   1  39
HETATM   39  O   UNK N   1      26.581  14.567   3.465  0.00  0.00    -0.296 OA
BRANCH  39  40
HETATM   40  C   UNK N   1      25.958  15.804   3.611  0.00  0.00     0.192 C 
BRANCH  40  41
HETATM   41  C   UNK N   1      24.541  15.805   4.242  0.00  0.00     0.009 C 
HETATM   42  C   UNK N   1      24.337  14.637   5.208  0.00  0.00     0.020 C 
HETATM   43  C   UNK N   1      23.443  15.719   3.194  0.00  0.00     0.020 C 
BRANCH  41  44
HETATM   44  C   UNK N   1      24.439  17.182   4.924  0.00  0.00     0.219 C 
BRANCH  44  45
HETATM   45  O   UNK N   1      25.519  17.444   5.769  0.00  0.00    -0.385 OA
HETATM   46  H   UNK N   1      25.859  16.813   6.422  0.00  0.00     0.210 HD
ENDBRANCH  44  45
BRANCH  44  47
HETATM   47  C   UNK N   1      24.302  18.275   3.915  0.00  0.00     0.247 C 
HETATM   48  O   UNK N   1      25.284  18.671   3.303  0.00  0.00    -0.271 OA
HETATM   49  N   UNK N   1      23.107  18.887   3.782  0.00  0.00    -0.358 N 
HETATM   50  H   UNK N   1      22.318  18.489   4.218  0.00  0.00     0.162 HD
BRANCH  49  51
HETATM   51  C   UNK N   1      22.942  20.091   3.030  0.00  0.00     0.132 C 
BRANCH  51  52
HETATM   52  C   UNK N   1      21.450  20.261   2.834  0.00  0.00     0.122 C 
BRANCH  52  53
HETATM   53  C   UNK N   1      21.062  19.983   1.412  0.00  0.00     0.219 C 
HETATM   54  O   UNK N   1      21.370  20.785   0.547  0.00  0.00    -0.274 OA
HETATM   55  N   UNK N   1      20.337  18.883   1.075  0.00  0.00    -0.360 N 
HETATM   56  H   UNK N   1      20.064  18.777   0.135  0.00  0.00     0.162 HD
BRANCH  55  57
HETATM   57  C   UNK N   1      19.942  17.858   2.019  0.00  0.00     0.133 C 
BRANCH  57  58
HETATM   58  C   UNK N   1      20.296  16.458   1.520  0.00  0.00     0.102 C 
BRANCH  58  59
HETATM   59  S   UNK N   1      19.158  15.797   0.252  0.00  0.00    -0.091 SA
BRANCH  59  60
HETATM   60  C   UNK N   1      18.959  14.126   0.903  0.00  0.00     0.186 C 
HETATM   61  O   UNK N   1      17.900  13.540   0.749  0.00  0.00    -0.286 OA
BRANCH  60  62
HETATM   62  C   UNK N   1      20.094  13.435   1.601  0.00  0.00     0.091 C 
BRANCH  62  63
HETATM   63  C   UNK N   1      21.057  12.783   0.621  0.00  0.00     0.008 C 
BRANCH  63  64
HETATM   64  C   UNK N   1      22.334  13.605   0.493  0.00  0.00     0.000 C 
BRANCH  64  65
HETATM   65  C   UNK N   1      23.445  12.774  -0.139  0.00  0.00     0.000 C 
BRANCH  65  66
HETATM   66  C   UNK N   1      23.885  11.626   0.755  0.00  0.00     0.000 C 
BRANCH  66  67
HETATM   67  C   UNK N   1      24.478  12.134   2.056  0.00  0.00     0.000 C 
BRANCH  67  68
HETATM   68  C   UNK N   1      24.054  11.233   3.194  0.00  0.00     0.000 C 
BRANCH  68  69
HETATM   69  C   UNK N   1      22.705  11.695   3.711  0.00  0.00     0.000 C 
BRANCH  69  70
HETATM   70  C   UNK N   1      22.435  11.106   5.082  0.00  0.00    -0.000 C 
BRANCH  70  71
HETATM   71  C   UNK N   1      23.718  10.974   5.880  0.00  0.00    -0.005 C 
HETATM   72  C   UNK N   1      23.397  11.106   7.354  0.00  0.00     0.005 C 
ENDBRANCH  70  71
ENDBRANCH  69  70
ENDBRANCH  68  69
ENDBRANCH  67  68
ENDBRANCH  66  67
ENDBRANCH  65  66
ENDBRANCH  64  65
ENDBRANCH  63  64
ENDBRANCH  62  63
ENDBRANCH  60  62
ENDBRANCH  59  60
ENDBRANCH  58  59
ENDBRANCH  57  58
ENDBRANCH  55  57
ENDBRANCH  52  53
ENDBRANCH  51  52
ENDBRANCH  49  51
ENDBRANCH  44  47
ENDBRANCH  41  44
ENDBRANCH  40  41
ENDBRANCH  39  40
ENDBRANCH   1  39
BRANCH   1  73
HETATM   73  O   UNK N   1      27.902  16.157   3.279  0.00  0.00    -0.307 OA
HETATM   74  H   UNK N   1      28.664  16.625   2.904  0.00  0.00     0.222 HD
ENDBRANCH   1  73
TORSDOF 37
ENDMDL
MODEL 4
REMARK VINA RESULT:      -7.5      3.462      6.334
REMARK WARNING: 32 MAX_TORS EXCEEDED!!!
REMARK  37 active torsions:
REMARK  status: ('A' for Active; 'I' for Inactive)
REMARK    1  A    between atoms: S_1  and  C_34 
REMARK    2  A    between atoms: S_1  and  C_57 
REMARK    3  A    between atoms: P_2  and  O_5 
REMARK    4  A    between atoms: P_2  and  O_6 
REMARK    5  A    between atoms: P_2  and  O_9 
REMARK    6  A    between atoms: P_3  and  O_5 
REMARK    7  A    between atoms: P_3  and  O_7 
REMARK    8  A    between atoms: P_3  and  O_10 
REMARK    9  A    between atoms: P_4  and  O_8 
REMARK   10  A    between atoms: P_4  and  O_11 
REMARK   11  A    between atoms: P_4  and  O_12 
REMARK   12  A    between atoms: O_6  and  C_35 
REMARK   13  A    between atoms: O_7  and  C_47 
REMARK   14  A    between atoms: C_56  and  O_8 
REMARK   15  A    between atoms: C_33  and  O_13 
REMARK   16  A    between atoms: C_55  and  O_14 
REMARK   17  A    between atoms: N_22  and  C_37 
REMARK       I    between atoms: N_22  and  C_58 
REMARK   18  A    between atoms: N_23  and  C_36 
REMARK       I    between atoms: N_23  and  C_59 
REMARK   19  A    between atoms: N_24  and  C_60 
REMARK   20  A    between atoms: C_53  and  N_25 
REMARK   21  A    between atoms: C_32  and  C_33 
REMARK   22  A    between atoms: C_32  and  C_35 
REMARK   23  A    between atoms: C_33  and  C_58 
REMARK   24  A    between atoms: C_34  and  C_36 
REMARK   25  A    between atoms: C_37  and  C_49 
REMARK   26  A    between atoms: C_38  and  C_39 
REMARK   27  A    between atoms: C_38  and  C_40 
REMARK   28  A    between atoms: C_39  and  C_41 
REMARK   29  A    between atoms: C_40  and  C_42 
REMARK   30  A    between atoms: C_41  and  C_43 
REMARK   31  A    between atoms: C_42  and  C_44 
REMARK   32  A    between atoms: C_43  and  C_45 
REMARK   33  A    between atoms: C_44  and  C_46 
REMARK   34  A    between atoms: C_45  and  C_48 
REMARK   35  A    between atoms: C_54  and  C_47 
REMARK   36  A    between atoms: C_48  and  C_57 
REMARK   37  A    between atoms: C_49  and  C_59 
ROOT
HETATM    1  P   UNK N   1      23.534  13.510   2.778  0.00  0.00     0.401 P 
HETATM    2  O   UNK N   1      24.691  13.267   1.787  0.00  0.00    -0.631 OA
ENDROOT
BRANCH   1   3
HETATM    3  O   UNK N   1      22.004  13.130   1.936  0.00  0.00    -0.195 OA
BRANCH   3   4
HETATM    4  P   UNK N   1      20.545  13.211   2.985  0.00  0.00     0.401 P 
HETATM    5  O   UNK N   1      21.645  12.921   4.047  0.00  0.00    -0.631 OA
BRANCH   4   6
HETATM    6  O   UNK N   1      20.497  14.664   3.983  0.00  0.00    -0.294 OA
BRANCH   6   7
HETATM    7  C   UNK N   1      19.408  14.618   4.875  0.00  0.00     0.215 C 
BRANCH   7   8
HETATM    8  C   UNK N   1      19.776  15.139   6.248  0.00  0.00     0.180 C 
HETATM    9  O   UNK N   1      20.042  14.064   7.108  0.00  0.00    -0.353 OA
HETATM   10  C   UNK N   1      21.309  14.323   7.663  0.00  0.00     0.262 C 
HETATM   11  C   UNK N   1      21.564  15.826   7.578  0.00  0.00     0.199 C 
HETATM   12  C   UNK N   1      21.002  16.030   6.193  0.00  0.00     0.197 C 
BRANCH  10  13
HETATM   13  N   UNK N   1      21.372  13.711   8.990  0.00  0.00    -0.297 N 
HETATM   14  C   UNK N   1      22.499  13.306   9.579  0.00  0.00     0.142 A 
HETATM   15  N   UNK N   1      23.766  13.421   9.105  0.00  0.00    -0.336 N 
HETATM   16  C   UNK N   1      22.214  12.718  10.753  0.00  0.00     0.122 A 
HETATM   17  C   UNK N   1      24.784  12.916   9.866  0.00  0.00     0.183 A 
ATOM     18  HN  UNK N   1      23.953  13.870   8.209  1.00  0.00     0.168 HD
HETATM   19  N   UNK N   1      24.516  12.300  11.065  0.00  0.00    -0.337 N 
HETATM   20  C   UNK N   1      23.233  12.188  11.529  0.00  0.00     0.131 A 
ATOM     21  HN  UNK N   1      25.285  11.921  11.618  1.00  0.00     0.168 HD
HETATM   22  N   UNK N   1      20.881  12.743  10.959  0.00  0.00    -0.346 N 
HETATM   23  C   UNK N   1      20.378  13.365   9.852  0.00  0.00     0.188 A 
ATOM     24  HN  UNK N   1      20.366  12.378  11.760  1.00  0.00     0.167 HD
BRANCH  20  25
HETATM   25  N   UNK N   1      22.968  11.539  12.750  0.00  0.00    -0.383 N 
HETATM   26  H   UNK N   1      23.617  10.897  13.119  0.00  0.00     0.157 HD
HETATM   27  H   UNK N   1      22.133  11.727  13.235  0.00  0.00     0.157 HD
ENDBRANCH  20  25
ENDBRANCH  10  13
BRANCH  11  28
HETATM   28  O   UNK N   1      20.778  16.509   8.515  0.00  0.00    -0.388 OA
HETATM   29  H   UNK N   1      20.497  16.315   9.423  0.00  0.00     0.210 HD
ENDBRANCH  11  28
BRANCH  12  30
HETATM   30  O   UNK N   1      20.659  17.369   5.936  0.00  0.00    -0.286 OA
BRANCH  30  31
HETATM   31  P   UNK N   1      21.851  18.037   4.836  0.00  0.00     0.391 P 
HETATM   32  O   UNK N   1      21.360  19.427   4.347  0.00  0.00    -0.632 OA
BRANCH  31  33
HETATM   33  O   UNK N   1      23.349  18.338   5.653  0.00  0.00    -0.307 OA
HETATM   34  H   UNK N   1      23.398  18.272   6.621  0.00  0.00     0.222 HD
ENDBRANCH  31  33
BRANCH  31  35
HETATM   35  O   UNK N   1      22.140  17.050   3.437  0.00  0.00    -0.307 OA
HETATM   36  H   UNK N   1      22.626  16.342   2.989  0.00  0.00     0.222 HD
ENDBRANCH  31  35
ENDBRANCH  30  31
ENDBRANCH  12  30
ENDBRANCH   7   8
ENDBRANCH   6   7
ENDBRANCH   4   6
BRANCH   4  37
HETATM   37  O   UNK N   1      20.434  14.666   2.035  0.00  0.00    -0.307 OA
HETATM   38  H   UNK N   1      20.034  15.472   2.397  0.00  0.00     0.222 HD
ENDBRANCH   4  37
ENDBRANCH   3   4
ENDBRANCH   1   3
BRANCH   1  39
HETATM   39  O   UNK N   1      24.189  14.823   3.700  0.00  0.00    -0.296 OA
BRANCH  39  40
HETATM   40  C   UNK N   1      25.394  14.366   4.226  0.00  0.00     0.192 C 
BRANCH  40  41
HETATM   41  C   UNK N   1      26.528  15.412   4.391  0.00  0.00     0.009 C 
HETATM   42  C   UNK N   1      27.119  15.842   3.047  0.00  0.00     0.020 C 
HETATM   43  C   UNK N   1      27.676  14.888   5.240  0.00  0.00     0.020 C 
BRANCH  41  44
HETATM   44  C   UNK N   1      25.859  16.568   5.157  0.00  0.00     0.219 C 
BRANCH  44  45
HETATM   45  O   UNK N   1      25.274  16.152   6.355  0.00  0.00    -0.385 OA
HETATM   46  H   UNK N   1      25.739  15.635   7.032  0.00  0.00     0.210 HD
ENDBRANCH  44  45
BRANCH  44  47
HETATM   47  C   UNK N   1      26.830  17.673   5.420  0.00  0.00     0.247 C 
HETATM   48  O   UNK N   1      27.180  18.411   4.509  0.00  0.00    -0.271 OA
HETATM   49  N   UNK N   1      27.394  17.761   6.642  0.00  0.00    -0.358 N 
HETATM   50  H   UNK N   1      27.028  17.215   7.375  0.00  0.00     0.162 HD
BRANCH  49  51
HETATM   51  C   UNK N   1      28.503  18.620   6.914  0.00  0.00     0.132 C 
BRANCH  51  52
HETATM   52  C   UNK N   1      28.471  18.888   8.404  0.00  0.00     0.122 C 
BRANCH  52  53
HETATM   53  C   UNK N   1      28.700  17.626   9.181  0.00  0.00     0.219 C 
HETATM   54  O   UNK N   1      27.737  17.009   9.605  0.00  0.00    -0.274 OA
HETATM   55  N   UNK N   1      29.954  17.180   9.459  0.00  0.00    -0.360 N 
HETATM   56  H   UNK N   1      30.047  16.375  10.017  0.00  0.00     0.162 HD
BRANCH  55  57
HETATM   57  C   UNK N   1      31.162  17.822   8.983  0.00  0.00     0.133 C 
BRANCH  57  58
HETATM   58  C   UNK N   1      32.269  16.809   8.694  0.00  0.00     0.102 C 
BRANCH  58  59
HETATM   59  S   UNK N   1      33.927  17.545   8.474  0.00  0.00    -0.091 SA
BRANCH  59  60
HETATM   60  C   UNK N   1      34.811  16.618   9.744  0.00  0.00     0.186 C 
HETATM   61  O   UNK N   1      35.226  17.196  10.735  0.00  0.00    -0.286 OA
BRANCH  60  62
HETATM   62  C   UNK N   1      35.011  15.136   9.613  0.00  0.00     0.091 C 
BRANCH  62  63
HETATM   63  C   UNK N   1      34.525  14.382  10.841  0.00  0.00     0.008 C 
BRANCH  63  64
HETATM   64  C   UNK N   1      34.897  12.907  10.749  0.00  0.00     0.000 C 
BRANCH  64  65
HETATM   65  C   UNK N   1      34.968  12.285  12.139  0.00  0.00     0.000 C 
BRANCH  65  66
HETATM   66  C   UNK N   1      35.246  13.318  13.219  0.00  0.00     0.000 C 
BRANCH  66  67
HETATM   67  C   UNK N   1      36.677  13.222  13.719  0.00  0.00     0.000 C 
BRANCH  67  68
HETATM   68  C   UNK N   1      36.692  13.297  15.229  0.00  0.00     0.000 C 
BRANCH  68  69
HETATM   69  C   UNK N   1      35.266  13.238  15.740  0.00  0.00     0.000 C 
BRANCH  69  70
HETATM   70  C   UNK N   1      35.157  12.263  16.896  0.00  0.00    -0.000 C 
BRANCH  70  71
HETATM   71  C   UNK N   1      35.587  10.871  16.476  0.00  0.00    -0.005 C 
HETATM   72  C   UNK N   1      34.500  10.259  15.618  0.00  0.00     0.005 C 
ENDBRANCH  70  71
ENDBRANCH  69  70
ENDBRANCH  68  69
ENDBRANCH  67  68
ENDBRANCH  66  67
ENDBRANCH  65  66
ENDBRANCH  64  65
ENDBRANCH  63  64
ENDBRANCH  62  63
ENDBRANCH  60  62
ENDBRANCH  59  60
ENDBRANCH  58  59
ENDBRANCH  57  58
ENDBRANCH  55  57
ENDBRANCH  52  53
ENDBRANCH  51  52
ENDBRANCH  49  51
ENDBRANCH  44  47
ENDBRANCH  41  44
ENDBRANCH  40  41
ENDBRANCH  39  40
ENDBRANCH   1  39
BRANCH   1  73
HETATM   73  O   UNK N   1      23.095  14.962   1.942  0.00  0.00    -0.307 OA
HETATM   74  H   UNK N   1      23.664  15.312   1.240  0.00  0.00     0.222 HD
ENDBRANCH   1  73
TORSDOF 37
ENDMDL
MODEL 5
REMARK VINA RESULT:      -7.5      5.924      8.720
REMARK WARNING: 32 MAX_TORS EXCEEDED!!!
REMARK  37 active torsions:
REMARK  status: ('A' for Active; 'I' for Inactive)
REMARK    1  A    between atoms: S_1  and  C_34 
REMARK    2  A    between atoms: S_1  and  C_57 
REMARK    3  A    between atoms: P_2  and  O_5 
REMARK    4  A    between atoms: P_2  and  O_6 
REMARK    5  A    between atoms: P_2  and  O_9 
REMARK    6  A    between atoms: P_3  and  O_5 
REMARK    7  A    between atoms: P_3  and  O_7 
REMARK    8  A    between atoms: P_3  and  O_10 
REMARK    9  A    between atoms: P_4  and  O_8 
REMARK   10  A    between atoms: P_4  and  O_11 
REMARK   11  A    between atoms: P_4  and  O_12 
REMARK   12  A    between atoms: O_6  and  C_35 
REMARK   13  A    between atoms: O_7  and  C_47 
REMARK   14  A    between atoms: C_56  and  O_8 
REMARK   15  A    between atoms: C_33  and  O_13 
REMARK   16  A    between atoms: C_55  and  O_14 
REMARK   17  A    between atoms: N_22  and  C_37 
REMARK       I    between atoms: N_22  and  C_58 
REMARK   18  A    between atoms: N_23  and  C_36 
REMARK       I    between atoms: N_23  and  C_59 
REMARK   19  A    between atoms: N_24  and  C_60 
REMARK   20  A    between atoms: C_53  and  N_25 
REMARK   21  A    between atoms: C_32  and  C_33 
REMARK   22  A    between atoms: C_32  and  C_35 
REMARK   23  A    between atoms: C_33  and  C_58 
REMARK   24  A    between atoms: C_34  and  C_36 
REMARK   25  A    between atoms: C_37  and  C_49 
REMARK   26  A    between atoms: C_38  and  C_39 
REMARK   27  A    between atoms: C_38  and  C_40 
REMARK   28  A    between atoms: C_39  and  C_41 
REMARK   29  A    between atoms: C_40  and  C_42 
REMARK   30  A    between atoms: C_41  and  C_43 
REMARK   31  A    between atoms: C_42  and  C_44 
REMARK   32  A    between atoms: C_43  and  C_45 
REMARK   33  A    between atoms: C_44  and  C_46 
REMARK   34  A    between atoms: C_45  and  C_48 
REMARK   35  A    between atoms: C_54  and  C_47 
REMARK   36  A    between atoms: C_48  and  C_57 
REMARK   37  A    between atoms: C_49  and  C_59 
ROOT
HETATM    1  P   UNK N   1      22.958  13.534   2.891  0.00  0.00     0.401 P 
HETATM    2  O   UNK N   1      24.102  12.772   2.188  0.00  0.00    -0.631 OA
ENDROOT
BRANCH   1   3
HETATM    3  O   UNK N   1      21.580  13.618   1.757  0.00  0.00    -0.195 OA
BRANCH   3   4
HETATM    4  P   UNK N   1      20.011  14.033   2.533  0.00  0.00     0.401 P 
HETATM    5  O   UNK N   1      20.687  13.217   3.672  0.00  0.00    -0.631 OA
BRANCH   4   6
HETATM    6  O   UNK N   1      20.174  15.237   3.810  0.00  0.00    -0.294 OA
BRANCH   6   7
HETATM    7  C   UNK N   1      19.183  15.055   4.793  0.00  0.00     0.215 C 
BRANCH   7   8
HETATM    8  C   UNK N   1      19.647  15.517   6.158  0.00  0.00     0.180 C 
HETATM    9  O   UNK N   1      19.859  14.407   6.989  0.00  0.00    -0.353 OA
HETATM   10  C   UNK N   1      21.163  14.552   7.495  0.00  0.00     0.262 C 
HETATM   11  C   UNK N   1      21.536  16.031   7.426  0.00  0.00     0.199 C 
HETATM   12  C   UNK N   1      20.937  16.308   6.068  0.00  0.00     0.197 C 
BRANCH  10  13
HETATM   13  N   UNK N   1      21.230  13.910   8.807  0.00  0.00    -0.297 N 
HETATM   14  C   UNK N   1      22.353  13.458   9.369  0.00  0.00     0.142 A 
HETATM   15  N   UNK N   1      23.615  13.544   8.876  0.00  0.00    -0.336 N 
HETATM   16  C   UNK N   1      22.069  12.854  10.534  0.00  0.00     0.122 A 
HETATM   17  C   UNK N   1      24.629  12.992   9.608  0.00  0.00     0.183 A 
ATOM     18  HN  UNK N   1      23.801  14.006   7.986  1.00  0.00     0.168 HD
HETATM   19  N   UNK N   1      24.362  12.359  10.798  0.00  0.00    -0.337 N 
HETATM   20  C   UNK N   1      23.084  12.276  11.282  0.00  0.00     0.131 A 
ATOM     21  HN  UNK N   1      25.128  11.944  11.329  1.00  0.00     0.168 HD
HETATM   22  N   UNK N   1      20.741  12.915  10.764  0.00  0.00    -0.346 N 
HETATM   23  C   UNK N   1      20.240  13.576   9.679  0.00  0.00     0.188 A 
ATOM     24  HN  UNK N   1      20.228  12.549  11.566  1.00  0.00     0.167 HD
BRANCH  20  25
HETATM   25  N   UNK N   1      22.819  11.609  12.493  0.00  0.00    -0.383 N 
HETATM   26  H   UNK N   1      22.162  10.877  12.519  0.00  0.00     0.157 HD
HETATM   27  H   UNK N   1      23.291  11.875  13.314  0.00  0.00     0.157 HD
ENDBRANCH  20  25
ENDBRANCH  10  13
BRANCH  11  28
HETATM   28  O   UNK N   1      20.846  16.755   8.406  0.00  0.00    -0.388 OA
HETATM   29  H   UNK N   1      20.093  16.553   8.983  0.00  0.00     0.210 HD
ENDBRANCH  11  28
BRANCH  12  30
HETATM   30  O   UNK N   1      20.694  17.675   5.850  0.00  0.00    -0.286 OA
BRANCH  30  31
HETATM   31  P   UNK N   1      21.956  18.293   4.799  0.00  0.00     0.391 P 
HETATM   32  O   UNK N   1      21.476  19.629   4.170  0.00  0.00    -0.632 OA
BRANCH  31  33
HETATM   33  O   UNK N   1      23.376  18.694   5.706  0.00  0.00    -0.307 OA
HETATM   34  H   UNK N   1      23.319  18.835   6.665  0.00  0.00     0.222 HD
ENDBRANCH  31  33
BRANCH  31  35
HETATM   35  O   UNK N   1      22.377  17.215   3.505  0.00  0.00    -0.307 OA
HETATM   36  H   UNK N   1      22.974  16.561   3.111  0.00  0.00     0.222 HD
ENDBRANCH  31  35
ENDBRANCH  30  31
ENDBRANCH  12  30
ENDBRANCH   7   8
ENDBRANCH   6   7
ENDBRANCH   4   6
BRANCH   4  37
HETATM   37  O   UNK N   1      20.577  15.566   1.932  0.00  0.00    -0.307 OA
HETATM   38  H   UNK N   1      21.375  15.626   1.383  0.00  0.00     0.222 HD
ENDBRANCH   4  37
ENDBRANCH   3   4
ENDBRANCH   1   3
BRANCH   1  39
HETATM   39  O   UNK N   1      23.876  14.636   3.865  0.00  0.00    -0.296 OA
BRANCH  39  40
HETATM   40  C   UNK N   1      25.211  14.437   3.523  0.00  0.00     0.192 C 
BRANCH  40  41
HETATM   41  C   UNK N   1      26.274  15.117   4.425  0.00  0.00     0.009 C 
HETATM   42  C   UNK N   1      27.537  15.493   3.648  0.00  0.00     0.020 C 
HETATM   43  C   UNK N   1      26.705  14.227   5.580  0.00  0.00     0.020 C 
BRANCH  41  44
HETATM   44  C   UNK N   1      25.539  16.336   5.013  0.00  0.00     0.219 C 
BRANCH  44  45
HETATM   45  O   UNK N   1      24.821  16.024   6.169  0.00  0.00    -0.385 OA
HETATM   46  H   UNK N   1      24.877  16.533   6.993  0.00  0.00     0.210 HD
ENDBRANCH  44  45
BRANCH  44  47
HETATM   47  C   UNK N   1      26.488  17.457   5.286  0.00  0.00     0.247 C 
HETATM   48  O   UNK N   1      26.770  18.251   4.400  0.00  0.00    -0.271 OA
HETATM   49  N   UNK N   1      27.108  17.501   6.484  0.00  0.00    -0.358 N 
HETATM   50  H   UNK N   1      26.795  16.907   7.204  0.00  0.00     0.162 HD
BRANCH  49  51
HETATM   51  C   UNK N   1      28.203  18.381   6.747  0.00  0.00     0.132 C 
BRANCH  51  52
HETATM   52  C   UNK N   1      28.036  18.840   8.181  0.00  0.00     0.122 C 
BRANCH  52  53
HETATM   53  C   UNK N   1      28.448  17.763   9.140  0.00  0.00     0.219 C 
HETATM   54  O   UNK N   1      27.597  17.012   9.587  0.00  0.00    -0.274 OA
HETATM   55  N   UNK N   1      29.736  17.634   9.554  0.00  0.00    -0.360 N 
HETATM   56  H   UNK N   1      29.940  16.943  10.225  0.00  0.00     0.162 HD
BRANCH  55  57
HETATM   57  C   UNK N   1      30.826  18.455   9.067  0.00  0.00     0.133 C 
BRANCH  57  58
HETATM   58  C   UNK N   1      31.733  17.687   8.109  0.00  0.00     0.102 C 
BRANCH  58  59
HETATM   59  S   UNK N   1      33.479  18.228   8.124  0.00  0.00    -0.091 SA
BRANCH  59  60
HETATM   60  C   UNK N   1      34.207  16.790   8.933  0.00  0.00     0.186 C 
HETATM   61  O   UNK N   1      35.269  16.902   9.522  0.00  0.00    -0.286 OA
BRANCH  60  62
HETATM   62  C   UNK N   1      33.503  15.465   8.922  0.00  0.00     0.091 C 
BRANCH  62  63
HETATM   63  C   UNK N   1      33.475  14.843   7.534  0.00  0.00     0.008 C 
BRANCH  63  64
HETATM   64  C   UNK N   1      34.881  14.461   7.087  0.00  0.00     0.000 C 
BRANCH  64  65
HETATM   65  C   UNK N   1      35.103  14.848   5.629  0.00  0.00     0.000 C 
BRANCH  65  66
HETATM   66  C   UNK N   1      34.127  15.914   5.160  0.00  0.00     0.000 C 
BRANCH  66  67
HETATM   67  C   UNK N   1      33.699  15.678   3.723  0.00  0.00     0.000 C 
BRANCH  67  68
HETATM   68  C   UNK N   1      32.626  16.673   3.343  0.00  0.00     0.000 C 
BRANCH  68  69
HETATM   69  C   UNK N   1      31.280  16.143   3.797  0.00  0.00     0.000 C 
BRANCH  69  70
HETATM   70  C   UNK N   1      31.243  14.631   3.691  0.00  0.00    -0.000 C 
BRANCH  70  71
HETATM   71  C   UNK N   1      30.674  14.011   4.952  0.00  0.00    -0.005 C 
HETATM   72  C   UNK N   1      30.289  15.115   5.913  0.00  0.00     0.005 C 
ENDBRANCH  70  71
ENDBRANCH  69  70
ENDBRANCH  68  69
ENDBRANCH  67  68
ENDBRANCH  66  67
ENDBRANCH  65  66
ENDBRANCH  64  65
ENDBRANCH  63  64
ENDBRANCH  62  63
ENDBRANCH  60  62
ENDBRANCH  59  60
ENDBRANCH  58  59
ENDBRANCH  57  58
ENDBRANCH  55  57
ENDBRANCH  52  53
ENDBRANCH  51  52
ENDBRANCH  49  51
ENDBRANCH  44  47
ENDBRANCH  41  44
ENDBRANCH  40  41
ENDBRANCH  39  40
ENDBRANCH   1  39
BRANCH   1  73
HETATM   73  O   UNK N   1      23.256  14.927   1.906  0.00  0.00    -0.307 OA
HETATM   74  H   UNK N   1      24.153  15.285   1.824  0.00  0.00     0.222 HD
ENDBRANCH   1  73
TORSDOF 37
ENDMDL
MODEL 6
REMARK VINA RESULT:      -7.4      7.130     13.475
REMARK WARNING: 32 MAX_TORS EXCEEDED!!!
REMARK  37 active torsions:
REMARK  status: ('A' for Active; 'I' for Inactive)
REMARK    1  A    between atoms: S_1  and  C_34 
REMARK    2  A    between atoms: S_1  and  C_57 
REMARK    3  A    between atoms: P_2  and  O_5 
REMARK    4  A    between atoms: P_2  and  O_6 
REMARK    5  A    between atoms: P_2  and  O_9 
REMARK    6  A    between atoms: P_3  and  O_5 
REMARK    7  A    between atoms: P_3  and  O_7 
REMARK    8  A    between atoms: P_3  and  O_10 
REMARK    9  A    between atoms: P_4  and  O_8 
REMARK   10  A    between atoms: P_4  and  O_11 
REMARK   11  A    between atoms: P_4  and  O_12 
REMARK   12  A    between atoms: O_6  and  C_35 
REMARK   13  A    between atoms: O_7  and  C_47 
REMARK   14  A    between atoms: C_56  and  O_8 
REMARK   15  A    between atoms: C_33  and  O_13 
REMARK   16  A    between atoms: C_55  and  O_14 
REMARK   17  A    between atoms: N_22  and  C_37 
REMARK       I    between atoms: N_22  and  C_58 
REMARK   18  A    between atoms: N_23  and  C_36 
REMARK       I    between atoms: N_23  and  C_59 
REMARK   19  A    between atoms: N_24  and  C_60 
REMARK   20  A    between atoms: C_53  and  N_25 
REMARK   21  A    between atoms: C_32  and  C_33 
REMARK   22  A    between atoms: C_32  and  C_35 
REMARK   23  A    between atoms: C_33  and  C_58 
REMARK   24  A    between atoms: C_34  and  C_36 
REMARK   25  A    between atoms: C_37  and  C_49 
REMARK   26  A    between atoms: C_38  and  C_39 
REMARK   27  A    between atoms: C_38  and  C_40 
REMARK   28  A    between atoms: C_39  and  C_41 
REMARK   29  A    between atoms: C_40  and  C_42 
REMARK   30  A    between atoms: C_41  and  C_43 
REMARK   31  A    between atoms: C_42  and  C_44 
REMARK   32  A    between atoms: C_43  and  C_45 
REMARK   33  A    between atoms: C_44  and  C_46 
REMARK   34  A    between atoms: C_45  and  C_48 
REMARK   35  A    between atoms: C_54  and  C_47 
REMARK   36  A    between atoms: C_48  and  C_57 
REMARK   37  A    between atoms: C_49  and  C_59 
ROOT
HETATM    1  P   UNK N   1      29.033  14.286   3.402  0.00  0.00     0.401 P 
HETATM    2  O   UNK N   1      28.473  14.958   2.130  0.00  0.00    -0.631 OA
ENDROOT
BRANCH   1   3
HETATM    3  O   UNK N   1      30.790  14.059   3.171  0.00  0.00    -0.195 OA
BRANCH   3   4
HETATM    4  P   UNK N   1      31.605  13.196   4.522  0.00  0.00     0.401 P 
HETATM    5  O   UNK N   1      32.760  14.118   4.034  0.00  0.00    -0.631 OA
BRANCH   4   6
HETATM    6  O   UNK N   1      31.883  14.225   5.926  0.00  0.00    -0.294 OA
BRANCH   6   7
HETATM    7  C   UNK N   1      32.241  15.526   5.525  0.00  0.00     0.215 C 
BRANCH   7   8
HETATM    8  C   UNK N   1      31.887  16.560   6.573  0.00  0.00     0.180 C 
HETATM    9  O   UNK N   1      30.605  17.071   6.323  0.00  0.00    -0.353 OA
HETATM   10  C   UNK N   1      29.893  16.926   7.528  0.00  0.00     0.262 C 
HETATM   11  C   UNK N   1      30.905  16.851   8.668  0.00  0.00     0.199 C 
HETATM   12  C   UNK N   1      31.908  15.967   7.968  0.00  0.00     0.197 C 
BRANCH  10  13
HETATM   13  N   UNK N   1      28.881  17.978   7.603  0.00  0.00    -0.297 N 
HETATM   14  C   UNK N   1      28.380  18.618   6.544  0.00  0.00     0.142 A 
HETATM   15  N   UNK N   1      28.662  18.395   5.235  0.00  0.00    -0.336 N 
HETATM   16  C   UNK N   1      27.532  19.577   6.950  0.00  0.00     0.122 A 
HETATM   17  C   UNK N   1      28.049  19.185   4.303  0.00  0.00     0.183 A 
ATOM     18  HN  UNK N   1      29.313  17.661   4.956  1.00  0.00     0.168 HD
HETATM   19  N   UNK N   1      27.186  20.180   4.694  0.00  0.00    -0.337 N 
HETATM   20  C   UNK N   1      26.913  20.396   6.018  0.00  0.00     0.131 A 
ATOM     21  HN  UNK N   1      26.742  20.767   3.987  1.00  0.00     0.168 HD
HETATM   22  N   UNK N   1      27.453  19.571   8.297  0.00  0.00    -0.346 N 
HETATM   23  C   UNK N   1      28.298  18.569   8.681  0.00  0.00     0.188 A 
ATOM     24  HN  UNK N   1      26.890  20.178   8.893  1.00  0.00     0.167 HD
BRANCH  20  25
HETATM   25  N   UNK N   1      26.042  21.431   6.410  0.00  0.00    -0.383 N 
HETATM   26  H   UNK N   1      25.078  21.255   6.504  0.00  0.00     0.157 HD
HETATM   27  H   UNK N   1      26.398  22.331   6.589  0.00  0.00     0.157 HD
ENDBRANCH  20  25
ENDBRANCH  10  13
BRANCH  11  28
HETATM   28  O   UNK N   1      31.468  18.112   8.905  0.00  0.00    -0.388 OA
HETATM   29  H   UNK N   1      32.165  18.627   8.471  0.00  0.00     0.210 HD
ENDBRANCH  11  28
BRANCH  12  30
HETATM   30  O   UNK N   1      33.189  16.036   8.543  0.00  0.00    -0.286 OA
BRANCH  30  31
HETATM   31  P   UNK N   1      33.450  14.571   9.472  0.00  0.00     0.391 P 
HETATM   32  O   UNK N   1      34.914  14.097   9.260  0.00  0.00    -0.632 OA
BRANCH  31  33
HETATM   33  O   UNK N   1      33.307  14.880  11.170  0.00  0.00    -0.307 OA
HETATM   34  H   UNK N   1      33.116  14.152  11.784  0.00  0.00     0.222 HD
ENDBRANCH  31  33
BRANCH  31  35
HETATM   35  O   UNK N   1      32.397  13.265   9.027  0.00  0.00    -0.307 OA
HETATM   36  H   UNK N   1      32.130  12.335   9.091  0.00  0.00     0.222 HD
ENDBRANCH  31  35
ENDBRANCH  30  31
ENDBRANCH  12  30
ENDBRANCH   7   8
ENDBRANCH   6   7
ENDBRANCH   4   6
BRANCH   4  37
HETATM   37  O   UNK N   1      30.120  13.751   5.241  0.00  0.00    -0.307 OA
HETATM   38  H   UNK N   1      29.736  14.608   5.000  0.00  0.00     0.222 HD
ENDBRANCH   4  37
ENDBRANCH   3   4
ENDBRANCH   1   3
BRANCH   1  39
HETATM   39  O   UNK N   1      27.672  13.317   3.862  0.00  0.00    -0.296 OA
BRANCH  39  40
HETATM   40  C   UNK N   1      26.542  13.994   3.411  0.00  0.00     0.192 C 
BRANCH  40  41
HETATM   41  C   UNK N   1      25.568  14.531   4.493  0.00  0.00     0.009 C 
HETATM   42  C   UNK N   1      24.111  14.184   4.182  0.00  0.00     0.020 C 
HETATM   43  C   UNK N   1      25.649  16.042   4.642  0.00  0.00     0.020 C 
BRANCH  41  44
HETATM   44  C   UNK N   1      26.078  13.896   5.800  0.00  0.00     0.219 C 
BRANCH  44  45
HETATM   45  O   UNK N   1      26.083  14.797   6.867  0.00  0.00    -0.385 OA
HETATM   46  H   UNK N   1      25.593  15.634   6.870  0.00  0.00     0.210 HD
ENDBRANCH  44  45
BRANCH  44  47
HETATM   47  C   UNK N   1      25.279  12.684   6.157  0.00  0.00     0.247 C 
HETATM   48  O   UNK N   1      25.355  11.676   5.470  0.00  0.00    -0.271 OA
HETATM   49  N   UNK N   1      24.395  12.769   7.173  0.00  0.00    -0.358 N 
HETATM   50  H   UNK N   1      24.422  13.558   7.762  0.00  0.00     0.162 HD
BRANCH  49  51
HETATM   51  C   UNK N   1      23.422  11.754   7.428  0.00  0.00     0.132 C 
BRANCH  51  52
HETATM   52  C   UNK N   1      23.533  11.429   8.904  0.00  0.00     0.122 C 
BRANCH  52  53
HETATM   53  C   UNK N   1      23.895  12.650   9.695  0.00  0.00     0.219 C 
HETATM   54  O   UNK N   1      25.073  12.903   9.886  0.00  0.00    -0.274 OA
HETATM   55  N   UNK N   1      22.943  13.453  10.241  0.00  0.00    -0.360 N 
HETATM   56  H   UNK N   1      23.237  14.211  10.795  0.00  0.00     0.162 HD
BRANCH  55  57
HETATM   57  C   UNK N   1      21.520  13.257  10.054  0.00  0.00     0.133 C 
BRANCH  57  58
HETATM   58  C   UNK N   1      20.873  14.435   9.328  0.00  0.00     0.102 C 
BRANCH  58  59
HETATM   59  S   UNK N   1      20.689  14.202   7.525  0.00  0.00    -0.091 SA
BRANCH  59  60
HETATM   60  C   UNK N   1      21.840  15.472   6.963  0.00  0.00     0.186 C 
HETATM   61  O   UNK N   1      23.031  15.352   7.197  0.00  0.00    -0.286 OA
BRANCH  60  62
HETATM   62  C   UNK N   1      21.354  16.655   6.179  0.00  0.00     0.091 C 
BRANCH  62  63
HETATM   63  C   UNK N   1      22.499  17.536   5.703  0.00  0.00     0.008 C 
BRANCH  63  64
HETATM   64  C   UNK N   1      22.351  17.856   4.220  0.00  0.00     0.000 C 
BRANCH  64  65
HETATM   65  C   UNK N   1      20.891  18.127   3.874  0.00  0.00     0.000 C 
BRANCH  65  66
HETATM   66  C   UNK N   1      20.707  18.513   2.415  0.00  0.00     0.000 C 
BRANCH  66  67
HETATM   67  C   UNK N   1      20.179  17.347   1.599  0.00  0.00     0.000 C 
BRANCH  67  68
HETATM   68  C   UNK N   1      20.006  16.139   2.491  0.00  0.00     0.000 C 
BRANCH  68  69
HETATM   69  C   UNK N   1      20.320  14.888   1.693  0.00  0.00     0.000 C 
BRANCH  69  70
HETATM   70  C   UNK N   1      21.730  14.954   1.139  0.00  0.00    -0.000 C 
BRANCH  70  71
HETATM   71  C   UNK N   1      22.304  13.564   0.945  0.00  0.00    -0.005 C 
HETATM   72  C   UNK N   1      23.682  13.682   0.328  0.00  0.00     0.005 C 
ENDBRANCH  70  71
ENDBRANCH  69  70
ENDBRANCH  68  69
ENDBRANCH  67  68
ENDBRANCH  66  67
ENDBRANCH  65  66
ENDBRANCH  64  65
ENDBRANCH  63  64
ENDBRANCH  62  63
ENDBRANCH  60  62
ENDBRANCH  59  60
ENDBRANCH  58  59
ENDBRANCH  57  58
ENDBRANCH  55  57
ENDBRANCH  52  53
ENDBRANCH  51  52
ENDBRANCH  49  51
ENDBRANCH  44  47
ENDBRANCH  41  44
ENDBRANCH  40  41
ENDBRANCH  39  40
ENDBRANCH   1  39
BRANCH   1  73
HETATM   73  O   UNK N   1      29.196  12.782   2.560  0.00  0.00    -0.307 OA
HETATM   74  H   UNK N   1      28.644  12.023   2.803  0.00  0.00     0.222 HD
ENDBRANCH   1  73
TORSDOF 37
ENDMDL
MODEL 7
REMARK VINA RESULT:      -7.3      1.730      3.055
REMARK WARNING: 32 MAX_TORS EXCEEDED!!!
REMARK  37 active torsions:
REMARK  status: ('A' for Active; 'I' for Inactive)
REMARK    1  A    between atoms: S_1  and  C_34 
REMARK    2  A    between atoms: S_1  and  C_57 
REMARK    3  A    between atoms: P_2  and  O_5 
REMARK    4  A    between atoms: P_2  and  O_6 
REMARK    5  A    between atoms: P_2  and  O_9 
REMARK    6  A    between atoms: P_3  and  O_5 
REMARK    7  A    between atoms: P_3  and  O_7 
REMARK    8  A    between atoms: P_3  and  O_10 
REMARK    9  A    between atoms: P_4  and  O_8 
REMARK   10  A    between atoms: P_4  and  O_11 
REMARK   11  A    between atoms: P_4  and  O_12 
REMARK   12  A    between atoms: O_6  and  C_35 
REMARK   13  A    between atoms: O_7  and  C_47 
REMARK   14  A    between atoms: C_56  and  O_8 
REMARK   15  A    between atoms: C_33  and  O_13 
REMARK   16  A    between atoms: C_55  and  O_14 
REMARK   17  A    between atoms: N_22  and  C_37 
REMARK       I    between atoms: N_22  and  C_58 
REMARK   18  A    between atoms: N_23  and  C_36 
REMARK       I    between atoms: N_23  and  C_59 
REMARK   19  A    between atoms: N_24  and  C_60 
REMARK   20  A    between atoms: C_53  and  N_25 
REMARK   21  A    between atoms: C_32  and  C_33 
REMARK   22  A    between atoms: C_32  and  C_35 
REMARK   23  A    between atoms: C_33  and  C_58 
REMARK   24  A    between atoms: C_34  and  C_36 
REMARK   25  A    between atoms: C_37  and  C_49 
REMARK   26  A    between atoms: C_38  and  C_39 
REMARK   27  A    between atoms: C_38  and  C_40 
REMARK   28  A    between atoms: C_39  and  C_41 
REMARK   29  A    between atoms: C_40  and  C_42 
REMARK   30  A    between atoms: C_41  and  C_43 
REMARK   31  A    between atoms: C_42  and  C_44 
REMARK   32  A    between atoms: C_43  and  C_45 
REMARK   33  A    between atoms: C_44  and  C_46 
REMARK   34  A    between atoms: C_45  and  C_48 
REMARK   35  A    between atoms: C_54  and  C_47 
REMARK   36  A    between atoms: C_48  and  C_57 
REMARK   37  A    between atoms: C_49  and  C_59 
ROOT
HETATM    1  P   UNK N   1      28.827  17.154   4.711  0.00  0.00     0.401 P 
HETATM    2  O   UNK N   1      29.896  16.686   3.700  0.00  0.00    -0.631 OA
ENDROOT
BRANCH   1   3
HETATM    3  O   UNK N   1      27.568  18.040   3.804  0.00  0.00    -0.195 OA
BRANCH   3   4
HETATM    4  P   UNK N   1      26.954  19.509   4.640  0.00  0.00     0.401 P 
HETATM    5  O   UNK N   1      26.273  19.665   3.250  0.00  0.00    -0.631 OA
BRANCH   4   6
HETATM    6  O   UNK N   1      25.241  19.402   5.047  0.00  0.00    -0.294 OA
BRANCH   6   7
HETATM    7  C   UNK N   1      24.458  19.317   3.880  0.00  0.00     0.215 C 
BRANCH   7   8
HETATM    8  C   UNK N   1      23.456  18.185   3.950  0.00  0.00     0.180 C 
HETATM    9  O   UNK N   1      23.690  17.413   5.098  0.00  0.00    -0.353 OA
HETATM   10  C   UNK N   1      22.457  17.343   5.770  0.00  0.00     0.262 C 
HETATM   11  C   UNK N   1      21.348  17.590   4.751  0.00  0.00     0.199 C 
HETATM   12  C   UNK N   1      22.032  18.705   3.999  0.00  0.00     0.197 C 
BRANCH  10  13
HETATM   13  N   UNK N   1      22.404  16.089   6.521  0.00  0.00    -0.297 N 
HETATM   14  C   UNK N   1      21.497  15.812   7.461  0.00  0.00     0.142 A 
HETATM   15  N   UNK N   1      20.455  16.587   7.857  0.00  0.00    -0.336 N 
HETATM   16  C   UNK N   1      21.766  14.618   8.014  0.00  0.00     0.122 A 
HETATM   17  C   UNK N   1      19.653  16.118   8.859  0.00  0.00     0.183 A 
ATOM     18  HN  UNK N   1      20.277  17.491   7.420  1.00  0.00     0.168 HD
HETATM   19  N   UNK N   1      19.913  14.904   9.449  0.00  0.00    -0.337 N 
HETATM   20  C   UNK N   1      20.970  14.135   9.042  0.00  0.00     0.131 A 
ATOM     21  HN  UNK N   1      19.311  14.572  10.202  1.00  0.00     0.168 HD
HETATM   22  N   UNK N   1      22.857  14.082   7.429  0.00  0.00    -0.346 N 
HETATM   23  C   UNK N   1      23.236  15.013   6.504  0.00  0.00     0.188 A 
ATOM     24  HN  UNK N   1      23.299  13.186   7.632  1.00  0.00     0.167 HD
BRANCH  20  25
HETATM   25  N   UNK N   1      21.240  12.902   9.666  0.00  0.00    -0.383 N 
HETATM   26  H   UNK N   1      21.350  12.857  10.643  0.00  0.00     0.157 HD
HETATM   27  H   UNK N   1      21.319  12.084   9.124  0.00  0.00     0.157 HD
ENDBRANCH  20  25
ENDBRANCH  10  13
BRANCH  11  28
HETATM   28  O   UNK N   1      21.197  16.476   3.914  0.00  0.00    -0.388 OA
HETATM   29  H   UNK N   1      20.566  15.741   3.884  0.00  0.00     0.210 HD
ENDBRANCH  11  28
BRANCH  12  30
HETATM   30  O   UNK N   1      21.505  18.897   2.710  0.00  0.00    -0.286 OA
BRANCH  30  31
HETATM   31  P   UNK N   1      21.041  20.582   2.557  0.00  0.00     0.391 P 
HETATM   32  O   UNK N   1      22.318  21.463   2.617  0.00  0.00    -0.632 OA
BRANCH  31  33
HETATM   33  O   UNK N   1      20.341  20.893   1.002  0.00  0.00    -0.307 OA
HETATM   34  H   UNK N   1      20.903  20.920   0.211  0.00  0.00     0.222 HD
ENDBRANCH  31  33
BRANCH  31  35
HETATM   35  O   UNK N   1      19.959  21.124   3.801  0.00  0.00    -0.307 OA
HETATM   36  H   UNK N   1      19.527  20.998   4.660  0.00  0.00     0.222 HD
ENDBRANCH  31  35
ENDBRANCH  30  31
ENDBRANCH  12  30
ENDBRANCH   7   8
ENDBRANCH   6   7
ENDBRANCH   4   6
BRANCH   4  37
HETATM   37  O   UNK N   1      26.620  18.233   5.777  0.00  0.00    -0.307 OA
HETATM   38  H   UNK N   1      27.124  18.151   6.602  0.00  0.00     0.222 HD
ENDBRANCH   4  37
ENDBRANCH   3   4
ENDBRANCH   1   3
BRANCH   1  39
HETATM   39  O   UNK N   1      29.821  17.423   6.106  0.00  0.00    -0.296 OA
BRANCH  39  40
HETATM   40  C   UNK N   1      31.132  17.184   5.701  0.00  0.00     0.192 C 
BRANCH  40  41
HETATM   41  C   UNK N   1      32.130  16.724   6.795  0.00  0.00     0.009 C 
HETATM   42  C   UNK N   1      31.739  15.376   7.405  0.00  0.00     0.020 C 
HETATM   43  C   UNK N   1      32.233  17.721   7.939  0.00  0.00     0.020 C 
BRANCH  41  44
HETATM   44  C   UNK N   1      33.488  16.690   6.070  0.00  0.00     0.219 C 
BRANCH  44  45
HETATM   45  O   UNK N   1      34.135  17.928   6.084  0.00  0.00    -0.385 OA
HETATM   46  H   UNK N   1      34.145  18.523   6.850  0.00  0.00     0.210 HD
ENDBRANCH  44  45
BRANCH  44  47
HETATM   47  C   UNK N   1      34.381  15.640   6.647  0.00  0.00     0.247 C 
HETATM   48  O   UNK N   1      34.510  14.566   6.078  0.00  0.00    -0.271 OA
HETATM   49  N   UNK N   1      34.941  15.860   7.855  0.00  0.00    -0.358 N 
HETATM   50  H   UNK N   1      34.893  16.763   8.243  0.00  0.00     0.162 HD
BRANCH  49  51
HETATM   51  C   UNK N   1      35.602  14.829   8.591  0.00  0.00     0.132 C 
BRANCH  51  52
HETATM   52  C   UNK N   1      35.010  14.865   9.985  0.00  0.00     0.122 C 
BRANCH  52  53
HETATM   53  C   UNK N   1      35.764  15.820  10.862  0.00  0.00     0.219 C 
HETATM   54  O   UNK N   1      35.799  17.000  10.558  0.00  0.00    -0.274 OA
HETATM   55  N   UNK N   1      36.444  15.392  11.959  0.00  0.00    -0.360 N 
HETATM   56  H   UNK N   1      36.965  16.054  12.468  0.00  0.00     0.162 HD
BRANCH  55  57
HETATM   57  C   UNK N   1      36.447  14.020  12.422  0.00  0.00     0.133 C 
BRANCH  57  58
HETATM   58  C   UNK N   1      35.600  13.841  13.680  0.00  0.00     0.102 C 
BRANCH  58  59
HETATM   59  S   UNK N   1      36.513  13.180  15.118  0.00  0.00    -0.091 SA
BRANCH  59  60
HETATM   60  C   UNK N   1      35.117  12.897  16.226  0.00  0.00     0.186 C 
HETATM   61  O   UNK N   1      33.982  13.101  15.829  0.00  0.00    -0.286 OA
BRANCH  60  62
HETATM   62  C   UNK N   1      35.334  12.378  17.617  0.00  0.00     0.091 C 
BRANCH  62  63
HETATM   63  C   UNK N   1      35.088  10.880  17.715  0.00  0.00     0.008 C 
BRANCH  63  64
HETATM   64  C   UNK N   1      36.397  10.134  17.941  0.00  0.00     0.000 C 
BRANCH  64  65
HETATM   65  C   UNK N   1      36.497   8.933  17.007  0.00  0.00     0.000 C 
BRANCH  65  66
HETATM   66  C   UNK N   1      36.830   9.337  15.581  0.00  0.00     0.000 C 
BRANCH  66  67
HETATM   67  C   UNK N   1      35.719   8.949  14.622  0.00  0.00     0.000 C 
BRANCH  67  68
HETATM   68  C   UNK N   1      35.719   9.889  13.438  0.00  0.00     0.000 C 
BRANCH  68  69
HETATM   69  C   UNK N   1      34.285  10.153  13.019  0.00  0.00     0.000 C 
BRANCH  69  70
HETATM   70  C   UNK N   1      34.249  10.988  11.753  0.00  0.00    -0.000 C 
BRANCH  70  71
HETATM   71  C   UNK N   1      33.994  10.120  10.536  0.00  0.00    -0.005 C 
HETATM   72  C   UNK N   1      33.461   8.778  10.992  0.00  0.00     0.005 C 
ENDBRANCH  70  71
ENDBRANCH  69  70
ENDBRANCH  68  69
ENDBRANCH  67  68
ENDBRANCH  66  67
ENDBRANCH  65  66
ENDBRANCH  64  65
ENDBRANCH  63  64
ENDBRANCH  62  63
ENDBRANCH  60  62
ENDBRANCH  59  60
ENDBRANCH  58  59
ENDBRANCH  57  58
ENDBRANCH  55  57
ENDBRANCH  52  53
ENDBRANCH  51  52
ENDBRANCH  49  51
ENDBRANCH  44  47
ENDBRANCH  41  44
ENDBRANCH  40  41
ENDBRANCH  39  40
ENDBRANCH   1  39
BRANCH   1  73
HETATM   73  O   UNK N   1      29.403  18.783   4.595  0.00  0.00    -0.307 OA
HETATM   74  H   UNK N   1      30.353  18.961   4.516  0.00  0.00     0.222 HD
ENDBRANCH   1  73
TORSDOF 37
ENDMDL
MODEL 8
REMARK VINA RESULT:      -7.3      7.335     12.908
REMARK WARNING: 32 MAX_TORS EXCEEDED!!!
REMARK  37 active torsions:
REMARK  status: ('A' for Active; 'I' for Inactive)
REMARK    1  A    between atoms: S_1  and  C_34 
REMARK    2  A    between atoms: S_1  and  C_57 
REMARK    3  A    between atoms: P_2  and  O_5 
REMARK    4  A    between atoms: P_2  and  O_6 
REMARK    5  A    between atoms: P_2  and  O_9 
REMARK    6  A    between atoms: P_3  and  O_5 
REMARK    7  A    between atoms: P_3  and  O_7 
REMARK    8  A    between atoms: P_3  and  O_10 
REMARK    9  A    between atoms: P_4  and  O_8 
REMARK   10  A    between atoms: P_4  and  O_11 
REMARK   11  A    between atoms: P_4  and  O_12 
REMARK   12  A    between atoms: O_6  and  C_35 
REMARK   13  A    between atoms: O_7  and  C_47 
REMARK   14  A    between atoms: C_56  and  O_8 
REMARK   15  A    between atoms: C_33  and  O_13 
REMARK   16  A    between atoms: C_55  and  O_14 
REMARK   17  A    between atoms: N_22  and  C_37 
REMARK       I    between atoms: N_22  and  C_58 
REMARK   18  A    between atoms: N_23  and  C_36 
REMARK       I    between atoms: N_23  and  C_59 
REMARK   19  A    between atoms: N_24  and  C_60 
REMARK   20  A    between atoms: C_53  and  N_25 
REMARK   21  A    between atoms: C_32  and  C_33 
REMARK   22  A    between atoms: C_32  and  C_35 
REMARK   23  A    between atoms: C_33  and  C_58 
REMARK   24  A    between atoms: C_34  and  C_36 
REMARK   25  A    between atoms: C_37  and  C_49 
REMARK   26  A    between atoms: C_38  and  C_39 
REMARK   27  A    between atoms: C_38  and  C_40 
REMARK   28  A    between atoms: C_39  and  C_41 
REMARK   29  A    between atoms: C_40  and  C_42 
REMARK   30  A    between atoms: C_41  and  C_43 
REMARK   31  A    between atoms: C_42  and  C_44 
REMARK   32  A    between atoms: C_43  and  C_45 
REMARK   33  A    between atoms: C_44  and  C_46 
REMARK   34  A    between atoms: C_45  and  C_48 
REMARK   35  A    between atoms: C_54  and  C_47 
REMARK   36  A    between atoms: C_48  and  C_57 
REMARK   37  A    between atoms: C_49  and  C_59 
ROOT
HETATM    1  P   UNK N   1      31.846  12.554   2.471  0.00  0.00     0.401 P 
HETATM    2  O   UNK N   1      31.429  11.250   1.761  0.00  0.00    -0.631 OA
ENDROOT
BRANCH   1   3
HETATM    3  O   UNK N   1      32.826  12.111   3.898  0.00  0.00    -0.195 OA
BRANCH   3   4
HETATM    4  P   UNK N   1      33.408  13.515   4.858  0.00  0.00     0.401 P 
HETATM    5  O   UNK N   1      33.088  14.209   3.503  0.00  0.00    -0.631 OA
BRANCH   4   6
HETATM    6  O   UNK N   1      32.114  14.627   5.303  0.00  0.00    -0.294 OA
BRANCH   6   7
HETATM    7  C   UNK N   1      32.569  15.959   5.268  0.00  0.00     0.215 C 
BRANCH   7   8
HETATM    8  C   UNK N   1      32.126  16.742   6.485  0.00  0.00     0.180 C 
HETATM    9  O   UNK N   1      30.824  17.227   6.291  0.00  0.00    -0.353 OA
HETATM   10  C   UNK N   1      30.088  16.806   7.414  0.00  0.00     0.262 C 
HETATM   11  C   UNK N   1      31.069  16.556   8.556  0.00  0.00     0.199 C 
HETATM   12  C   UNK N   1      32.141  15.882   7.734  0.00  0.00     0.197 C 
BRANCH  10  13
HETATM   13  N   UNK N   1      29.015  17.769   7.657  0.00  0.00    -0.297 N 
HETATM   14  C   UNK N   1      28.498  18.572   6.724  0.00  0.00     0.142 A 
HETATM   15  N   UNK N   1      28.819  18.619   5.405  0.00  0.00    -0.336 N 
HETATM   16  C   UNK N   1      27.588  19.388   7.279  0.00  0.00     0.122 A 
HETATM   17  C   UNK N   1      28.179  19.538   4.622  0.00  0.00     0.183 A 
ATOM     18  HN  UNK N   1      29.516  17.987   5.011  1.00  0.00     0.168 HD
HETATM   19  N   UNK N   1      27.251  20.393   5.169  0.00  0.00    -0.337 N 
HETATM   20  C   UNK N   1      26.941  20.336   6.501  0.00  0.00     0.131 A 
ATOM     21  HN  UNK N   1      26.788  21.079   4.573  1.00  0.00     0.168 HD
HETATM   22  N   UNK N   1      27.483  19.120   8.597  0.00  0.00    -0.346 N 
HETATM   23  C   UNK N   1      28.377  18.110   8.809  0.00  0.00     0.188 A 
ATOM     24  HN  UNK N   1      26.874  19.571   9.280  1.00  0.00     0.167 HD
BRANCH  20  25
HETATM   25  N   UNK N   1      26.003  21.229   7.055  0.00  0.00    -0.383 N 
HETATM   26  H   UNK N   1      25.411  21.751   6.467  0.00  0.00     0.157 HD
HETATM   27  H   UNK N   1      25.940  21.331   8.032  0.00  0.00     0.157 HD
ENDBRANCH  20  25
ENDBRANCH  10  13
BRANCH  11  28
HETATM   28  O   UNK N   1      31.551  17.771   9.061  0.00  0.00    -0.388 OA
HETATM   29  H   UNK N   1      31.359  18.288   9.858  0.00  0.00     0.210 HD
ENDBRANCH  11  28
BRANCH  12  30
HETATM   30  O   UNK N   1      33.400  15.900   8.361  0.00  0.00    -0.286 OA
BRANCH  30  31
HETATM   31  P   UNK N   1      33.492  14.518   9.438  0.00  0.00     0.391 P 
HETATM   32  O   UNK N   1      34.947  13.974   9.433  0.00  0.00    -0.632 OA
BRANCH  31  33
HETATM   33  O   UNK N   1      33.181  14.987  11.077  0.00  0.00    -0.307 OA
HETATM   34  H   UNK N   1      32.654  15.781  11.265  0.00  0.00     0.222 HD
ENDBRANCH  31  33
BRANCH  31  35
HETATM   35  O   UNK N   1      32.434  13.215   8.995  0.00  0.00    -0.307 OA
HETATM   36  H   UNK N   1      32.099  12.585   8.339  0.00  0.00     0.222 HD
ENDBRANCH  31  35
ENDBRANCH  30  31
ENDBRANCH  12  30
ENDBRANCH   7   8
ENDBRANCH   6   7
ENDBRANCH   4   6
BRANCH   4  37
HETATM   37  O   UNK N   1      32.229  12.777   5.905  0.00  0.00    -0.307 OA
HETATM   38  H   UNK N   1      32.333  12.796   6.869  0.00  0.00     0.222 HD
ENDBRANCH   4  37
ENDBRANCH   3   4
ENDBRANCH   1   3
BRANCH   1  39
HETATM   39  O   UNK N   1      30.463  13.544   2.134  0.00  0.00    -0.296 OA
BRANCH  39  40
HETATM   40  C   UNK N   1      29.432  13.057   2.933  0.00  0.00     0.192 C 
BRANCH  40  41
HETATM   41  C   UNK N   1      28.192  13.972   3.113  0.00  0.00     0.009 C 
HETATM   42  C   UNK N   1      26.909  13.170   3.338  0.00  0.00     0.020 C 
HETATM   43  C   UNK N   1      27.957  14.867   1.907  0.00  0.00     0.020 C 
BRANCH  41  44
HETATM   44  C   UNK N   1      28.563  14.871   4.307  0.00  0.00     0.219 C 
BRANCH  44  45
HETATM   45  O   UNK N   1      29.410  15.920   3.946  0.00  0.00    -0.385 OA
HETATM   46  H   UNK N   1      30.193  15.813   3.382  0.00  0.00     0.210 HD
ENDBRANCH  44  45
BRANCH  44  47
HETATM   47  C   UNK N   1      27.341  15.407   4.978  0.00  0.00     0.247 C 
HETATM   48  O   UNK N   1      26.784  16.401   4.533  0.00  0.00    -0.271 OA
HETATM   49  N   UNK N   1      26.941  14.847   6.139  0.00  0.00    -0.358 N 
HETATM   50  H   UNK N   1      27.352  13.998   6.422  0.00  0.00     0.162 HD
BRANCH  49  51
HETATM   51  C   UNK N   1      25.943  15.439   6.971  0.00  0.00     0.132 C 
BRANCH  51  52
HETATM   52  C   UNK N   1      24.700  14.591   6.803  0.00  0.00     0.122 C 
BRANCH  52  53
HETATM   53  C   UNK N   1      24.971  13.164   7.176  0.00  0.00     0.219 C 
HETATM   54  O   UNK N   1      25.495  12.427   6.357  0.00  0.00    -0.274 OA
HETATM   55  N   UNK N   1      24.605  12.663   8.386  0.00  0.00    -0.360 N 
HETATM   56  H   UNK N   1      24.760  11.706   8.558  0.00  0.00     0.162 HD
BRANCH  55  57
HETATM   57  C   UNK N   1      24.001  13.455   9.437  0.00  0.00     0.133 C 
BRANCH  57  58
HETATM   58  C   UNK N   1      22.617  12.934   9.819  0.00  0.00     0.102 C 
BRANCH  58  59
HETATM   59  S   UNK N   1      21.506  12.630   8.400  0.00  0.00    -0.091 SA
BRANCH  59  60
HETATM   60  C   UNK N   1      20.787  14.277   8.253  0.00  0.00     0.186 C 
HETATM   61  O   UNK N   1      20.208  14.770   9.208  0.00  0.00    -0.286 OA
BRANCH  60  62
HETATM   62  C   UNK N   1      20.923  15.064   6.983  0.00  0.00     0.091 C 
BRANCH  62  63
HETATM   63  C   UNK N   1      21.366  16.496   7.240  0.00  0.00     0.008 C 
BRANCH  63  64
HETATM   64  C   UNK N   1      21.961  17.110   5.979  0.00  0.00     0.000 C 
BRANCH  64  65
HETATM   65  C   UNK N   1      20.865  17.420   4.966  0.00  0.00     0.000 C 
BRANCH  65  66
HETATM   66  C   UNK N   1      21.235  16.974   3.561  0.00  0.00     0.000 C 
BRANCH  66  67
HETATM   67  C   UNK N   1      22.255  15.849   3.590  0.00  0.00     0.000 C 
BRANCH  67  68
HETATM   68  C   UNK N   1      21.572  14.538   3.274  0.00  0.00     0.000 C 
BRANCH  68  69
HETATM   69  C   UNK N   1      22.565  13.617   2.591  0.00  0.00     0.000 C 
BRANCH  69  70
HETATM   70  C   UNK N   1      23.765  14.404   2.100  0.00  0.00    -0.000 C 
BRANCH  70  71
HETATM   71  C   UNK N   1      23.961  14.221   0.607  0.00  0.00    -0.005 C 
HETATM   72  C   UNK N   1      23.510  12.829   0.219  0.00  0.00     0.005 C 
ENDBRANCH  70  71
ENDBRANCH  69  70
ENDBRANCH  68  69
ENDBRANCH  67  68
ENDBRANCH  66  67
ENDBRANCH  65  66
ENDBRANCH  64  65
ENDBRANCH  63  64
ENDBRANCH  62  63
ENDBRANCH  60  62
ENDBRANCH  59  60
ENDBRANCH  58  59
ENDBRANCH  57  58
ENDBRANCH  55  57
ENDBRANCH  52  53
ENDBRANCH  51  52
ENDBRANCH  49  51
ENDBRANCH  44  47
ENDBRANCH  41  44
ENDBRANCH  40  41
ENDBRANCH  39  40
ENDBRANCH   1  39
BRANCH   1  73
HETATM   73  O   UNK N   1      30.705  12.251   3.739  0.00  0.00    -0.307 OA
HETATM   74  H   UNK N   1      30.457  11.341   3.966  0.00  0.00     0.222 HD
ENDBRANCH   1  73
TORSDOF 37
ENDMDL
MODEL 9
REMARK VINA RESULT:      -7.3      6.900     14.440
REMARK WARNING: 32 MAX_TORS EXCEEDED!!!
REMARK  37 active torsions:
REMARK  status: ('A' for Active; 'I' for Inactive)
REMARK    1  A    between atoms: S_1  and  C_34 
REMARK    2  A    between atoms: S_1  and  C_57 
REMARK    3  A    between atoms: P_2  and  O_5 
REMARK    4  A    between atoms: P_2  and  O_6 
REMARK    5  A    between atoms: P_2  and  O_9 
REMARK    6  A    between atoms: P_3  and  O_5 
REMARK    7  A    between atoms: P_3  and  O_7 
REMARK    8  A    between atoms: P_3  and  O_10 
REMARK    9  A    between atoms: P_4  and  O_8 
REMARK   10  A    between atoms: P_4  and  O_11 
REMARK   11  A    between atoms: P_4  and  O_12 
REMARK   12  A    between atoms: O_6  and  C_35 
REMARK   13  A    between atoms: O_7  and  C_47 
REMARK   14  A    between atoms: C_56  and  O_8 
REMARK   15  A    between atoms: C_33  and  O_13 
REMARK   16  A    between atoms: C_55  and  O_14 
REMARK   17  A    between atoms: N_22  and  C_37 
REMARK       I    between atoms: N_22  and  C_58 
REMARK   18  A    between atoms: N_23  and  C_36 
REMARK       I    between atoms: N_23  and  C_59 
REMARK   19  A    between atoms: N_24  and  C_60 
REMARK   20  A    between atoms: C_53  and  N_25 
REMARK   21  A    between atoms: C_32  and  C_33 
REMARK   22  A    between atoms: C_32  and  C_35 
REMARK   23  A    between atoms: C_33  and  C_58 
REMARK   24  A    between atoms: C_34  and  C_36 
REMARK   25  A    between atoms: C_37  and  C_49 
REMARK   26  A    between atoms: C_38  and  C_39 
REMARK   27  A    between atoms: C_38  and  C_40 
REMARK   28  A    between atoms: C_39  and  C_41 
REMARK   29  A    between atoms: C_40  and  C_42 
REMARK   30  A    between atoms: C_41  and  C_43 
REMARK   31  A    between atoms: C_42  and  C_44 
REMARK   32  A    between atoms: C_43  and  C_45 
REMARK   33  A    between atoms: C_44  and  C_46 
REMARK   34  A    between atoms: C_45  and  C_48 
REMARK   35  A    between atoms: C_54  and  C_47 
REMARK   36  A    between atoms: C_48  and  C_57 
REMARK   37  A    between atoms: C_49  and  C_59 
ROOT
HETATM    1  P   UNK N   1      34.038  18.240   7.973  0.00  0.00     0.401 P 
HETATM    2  O   UNK N   1      35.325  19.059   8.206  0.00  0.00    -0.631 OA
ENDROOT
BRANCH   1   3
HETATM    3  O   UNK N   1      33.701  17.315   9.465  0.00  0.00    -0.195 OA
BRANCH   3   4
HETATM    4  P   UNK N   1      34.970  16.115   9.891  0.00  0.00     0.401 P 
HETATM    5  O   UNK N   1      35.555  17.396  10.553  0.00  0.00    -0.631 OA
BRANCH   4   6
HETATM    6  O   UNK N   1      34.966  15.688  11.602  0.00  0.00    -0.294 OA
BRANCH   6   7
HETATM    7  C   UNK N   1      34.793  14.301  11.767  0.00  0.00     0.215 C 
BRANCH   7   8
HETATM    8  C   UNK N   1      35.704  13.739  12.838  0.00  0.00     0.180 C 
HETATM    9  O   UNK N   1      34.936  13.243  13.902  0.00  0.00    -0.353 OA
HETATM   10  C   UNK N   1      35.377  11.923  14.108  0.00  0.00     0.262 C 
HETATM   11  C   UNK N   1      36.794  11.805  13.552  0.00  0.00     0.199 C 
HETATM   12  C   UNK N   1      36.568  12.616  12.299  0.00  0.00     0.197 C 
BRANCH  10  13
HETATM   13  N   UNK N   1      35.184  11.580  15.516  0.00  0.00    -0.297 N 
HETATM   14  C   UNK N   1      35.325  12.440  16.527  0.00  0.00     0.142 A 
HETATM   15  N   UNK N   1      35.615  13.764  16.450  0.00  0.00    -0.336 N 
HETATM   16  C   UNK N   1      35.157  11.801  17.696  0.00  0.00     0.122 A 
HETATM   17  C   UNK N   1      35.736  14.464  17.618  0.00  0.00     0.183 A 
ATOM     18  HN  UNK N   1      35.740  14.223  15.547  1.00  0.00     0.168 HD
HETATM   19  N   UNK N   1      35.579  13.830  18.828  0.00  0.00    -0.337 N 
HETATM   20  C   UNK N   1      35.290  12.493  18.890  0.00  0.00     0.131 A 
ATOM     21  HN  UNK N   1      35.681  14.363  19.691  1.00  0.00     0.168 HD
HETATM   22  N   UNK N   1      34.886  10.500  17.466  0.00  0.00    -0.346 N 
HETATM   23  C   UNK N   1      34.907  10.385  16.105  0.00  0.00     0.188 A 
ATOM     24  HN  UNK N   1      34.708   9.768  18.153  1.00  0.00     0.167 HD
BRANCH  20  25
HETATM   25  N   UNK N   1      35.151  11.849  20.135  0.00  0.00    -0.383 N 
HETATM   26  H   UNK N   1      34.470  12.156  20.776  0.00  0.00     0.157 HD
HETATM   27  H   UNK N   1      35.735  11.091  20.364  0.00  0.00     0.157 HD
ENDBRANCH  20  25
ENDBRANCH  10  13
BRANCH  11  28
HETATM   28  O   UNK N   1      37.703  12.466  14.388  0.00  0.00    -0.388 OA
HETATM   29  H   UNK N   1      37.915  13.399  14.543  0.00  0.00     0.210 HD
ENDBRANCH  11  28
BRANCH  12  30
HETATM   30  O   UNK N   1      37.764  13.103  11.743  0.00  0.00    -0.286 OA
BRANCH  30  31
HETATM   31  P   UNK N   1      37.928  12.433  10.130  0.00  0.00     0.391 P 
HETATM   32  O   UNK N   1      38.386  10.953  10.246  0.00  0.00    -0.632 OA
BRANCH  31  33
HETATM   33  O   UNK N   1      36.396  12.378   9.323  0.00  0.00    -0.307 OA
HETATM   34  H   UNK N   1      36.352  12.187   8.372  0.00  0.00     0.222 HD
ENDBRANCH  31  33
BRANCH  31  35
HETATM   35  O   UNK N   1      39.079  13.272   9.138  0.00  0.00    -0.307 OA
HETATM   36  H   UNK N   1      39.901  13.776   9.040  0.00  0.00     0.222 HD
ENDBRANCH  31  35
ENDBRANCH  30  31
ENDBRANCH  12  30
ENDBRANCH   7   8
ENDBRANCH   6   7
ENDBRANCH   4   6
BRANCH   4  37
HETATM   37  O   UNK N   1      33.496  15.325  10.375  0.00  0.00    -0.307 OA
HETATM   38  H   UNK N   1      32.829  15.789  10.904  0.00  0.00     0.222 HD
ENDBRANCH   4  37
ENDBRANCH   3   4
ENDBRANCH   1   3
BRANCH   1  39
HETATM   39  O   UNK N   1      34.184  17.913   6.277  0.00  0.00    -0.296 OA
BRANCH  39  40
HETATM   40  C   UNK N   1      34.030  16.537   6.132  0.00  0.00     0.192 C 
BRANCH  40  41
HETATM   41  C   UNK N   1      32.905  16.054   5.179  0.00  0.00     0.009 C 
HETATM   42  C   UNK N   1      33.361  16.015   3.719  0.00  0.00     0.020 C 
HETATM   43  C   UNK N   1      31.674  16.944   5.242  0.00  0.00     0.020 C 
BRANCH  41  44
HETATM   44  C   UNK N   1      32.519  14.669   5.731  0.00  0.00     0.219 C 
BRANCH  44  45
HETATM   45  O   UNK N   1      31.212  14.305   5.400  0.00  0.00    -0.385 OA
HETATM   46  H   UNK N   1      30.909  13.386   5.332  0.00  0.00     0.210 HD
ENDBRANCH  44  45
BRANCH  44  47
HETATM   47  C   UNK N   1      33.476  13.619   5.268  0.00  0.00     0.247 C 
HETATM   48  O   UNK N   1      34.550  13.476   5.835  0.00  0.00    -0.271 OA
HETATM   49  N   UNK N   1      33.180  12.922   4.151  0.00  0.00    -0.358 N 
HETATM   50  H   UNK N   1      32.274  12.994   3.772  0.00  0.00     0.162 HD
BRANCH  49  51
HETATM   51  C   UNK N   1      34.133  12.081   3.499  0.00  0.00     0.132 C 
BRANCH  51  52
HETATM   52  C   UNK N   1      33.434  11.526   2.274  0.00  0.00     0.122 C 
BRANCH  52  53
HETATM   53  C   UNK N   1      33.316  12.572   1.206  0.00  0.00     0.219 C 
HETATM   54  O   UNK N   1      34.071  13.529   1.230  0.00  0.00    -0.274 OA
HETATM   55  N   UNK N   1      32.361  12.499   0.241  0.00  0.00    -0.360 N 
HETATM   56  H   UNK N   1      32.296  13.239  -0.404  0.00  0.00     0.162 HD
BRANCH  55  57
HETATM   57  C   UNK N   1      31.433  11.394   0.107  0.00  0.00     0.133 C 
BRANCH  57  58
HETATM   58  C   UNK N   1      29.984  11.872   0.049  0.00  0.00     0.102 C 
BRANCH  58  59
HETATM   59  S   UNK N   1      29.145  11.941   1.671  0.00  0.00    -0.091 SA
BRANCH  59  60
HETATM   60  C   UNK N   1      29.572  13.633   2.131  0.00  0.00     0.186 C 
HETATM   61  O   UNK N   1      30.640  13.858   2.675  0.00  0.00    -0.286 OA
BRANCH  60  62
HETATM   62  C   UNK N   1      28.644  14.770   1.819  0.00  0.00     0.091 C 
BRANCH  62  63
HETATM   63  C   UNK N   1      28.757  15.896   2.835  0.00  0.00     0.008 C 
BRANCH  63  64
HETATM   64  C   UNK N   1      27.559  15.894   3.776  0.00  0.00     0.000 C 
BRANCH  64  65
HETATM   65  C   UNK N   1      27.917  15.225   5.098  0.00  0.00     0.000 C 
BRANCH  65  66
HETATM   66  C   UNK N   1      27.708  16.148   6.288  0.00  0.00     0.000 C 
BRANCH  66  67
HETATM   67  C   UNK N   1      27.160  17.495   5.851  0.00  0.00     0.000 C 
BRANCH  67  68
HETATM   68  C   UNK N   1      28.216  18.560   6.048  0.00  0.00     0.000 C 
BRANCH  68  69
HETATM   69  C   UNK N   1      28.232  19.468   4.834  0.00  0.00     0.000 C 
BRANCH  69  70
HETATM   70  C   UNK N   1      27.159  20.533   4.956  0.00  0.00    -0.000 C 
BRANCH  70  71
HETATM   71  C   UNK N   1      27.442  21.459   6.124  0.00  0.00    -0.005 C 
HETATM   72  C   UNK N   1      26.282  21.395   7.094  0.00  0.00     0.005 C 
ENDBRANCH  70  71
ENDBRANCH  69  70
ENDBRANCH  68  69
ENDBRANCH  67  68
ENDBRANCH  66  67
ENDBRANCH  65  66
ENDBRANCH  64  65
ENDBRANCH  63  64
ENDBRANCH  62  63
ENDBRANCH  60  62
ENDBRANCH  59  60
ENDBRANCH  58  59
ENDBRANCH  57  58
ENDBRANCH  55  57
ENDBRANCH  52  53
ENDBRANCH  51  52
ENDBRANCH  49  51
ENDBRANCH  44  47
ENDBRANCH  41  44
ENDBRANCH  40  41
ENDBRANCH  39  40
ENDBRANCH   1  39
BRANCH   1  73
HETATM   73  O   UNK N   1      34.966  16.784   7.833  0.00  0.00    -0.307 OA
HETATM   74  H   UNK N   1      35.640  16.699   7.142  0.00  0.00     0.222 HD
ENDBRANCH   1  73
TORSDOF 37
ENDMDL
