MODEL 1
REMARK VINA RESULT:      -5.4      0.000      0.000
REMARK  6 active torsions:
REMARK  status: ('A' for Active; 'I' for Inactive)
REMARK    1  A    between atoms: C_4  and  C_2 
REMARK    2  A    between atoms: O_11  and  C_2 
REMARK    3  A    between atoms: O_12  and  C_3 
REMARK    4  A    between atoms: C_5  and  N_9 
REMARK    5  A    between atoms: C_6  and  O_13 
REMARK    6  A    between atoms: C_8  and  O_15 
ROOT
HETATM    1  C   UNK N   1      35.304  15.214  12.072  0.00  0.00     0.179 C 
HETATM    2  C   UNK N   1      34.384  15.834   9.405  0.00  0.00     0.169 C 
HETATM    3  C   UNK N   1      34.829  14.070  11.150  0.00  0.00     0.180 C 
HETATM    4  C   UNK N   1      33.797  14.620  10.154  0.00  0.00     0.177 C 
HETATM    5  C   UNK N   1      34.944  16.852  10.440  0.00  0.00     0.282 C 
HETATM    6  O   UNK N   1      32.633  14.997  10.833  0.00  0.00    -0.391 OA
HETATM    7  O   UNK N   1      35.896  16.234  11.288  0.00  0.00    -0.349 OA
HETATM    8  H   UNK N   1      31.764  15.158  11.232  0.00  0.00     0.210 HD
ENDROOT
BRANCH   2   9
HETATM    9  N   UNK N   1      33.383  16.328   8.457  0.00  0.00    -0.363 N 
HETATM   10  C   UNK N   1      33.527  17.073   7.399  0.00  0.00     0.107 C 
HETATM   11  C   UNK N   1      32.321  17.446   6.615  0.00  0.00     0.097 C 
ATOM     12  HN  UNK N   1      32.424  16.045   8.658  1.00  0.00     0.162 HD
BRANCH  10  13
HETATM   13  O   UNK N   1      34.726  17.518   6.989  0.00  0.00    -0.350 OA
HETATM   14  H   UNK N   1      34.939  17.585   6.079  0.00  0.00     0.219 HD
ENDBRANCH  10  13
ENDBRANCH   2   9
BRANCH   3  15
HETATM   15  O   UNK N   1      34.262  13.027  11.889  0.00  0.00    -0.390 OA
HETATM   16  H   UNK N   1      33.465  12.506  11.706  0.00  0.00     0.210 HD
ENDBRANCH   3  15
BRANCH   5  17
HETATM   17  O   UNK N   1      35.603  17.881   9.764  0.00  0.00    -0.369 OA
HETATM   18  H   UNK N   1      36.388  17.864   9.196  0.00  0.00     0.212 HD
ENDBRANCH   5  17
BRANCH   1  19
HETATM   19  C   UNK N   1      36.369  14.732  13.057  0.00  0.00     0.198 C 
BRANCH  19  20
HETATM   20  O   UNK N   1      37.150  13.716  12.502  0.00  0.00    -0.398 OA
HETATM   21  H   UNK N   1      37.836  13.139  12.871  0.00  0.00     0.209 HD
ENDBRANCH  19  20
ENDBRANCH   1  19
TORSDOF 6
ENDMDL
MODEL 2
REMARK VINA RESULT:      -5.3      2.044      4.901
REMARK  6 active torsions:
REMARK  status: ('A' for Active; 'I' for Inactive)
REMARK    1  A    between atoms: C_4  and  C_2 
REMARK    2  A    between atoms: O_11  and  C_2 
REMARK    3  A    between atoms: O_12  and  C_3 
REMARK    4  A    between atoms: C_5  and  N_9 
REMARK    5  A    between atoms: C_6  and  O_13 
REMARK    6  A    between atoms: C_8  and  O_15 
ROOT
HETATM    1  C   UNK N   1      34.558  17.076   8.665  0.00  0.00     0.179 C 
HETATM    2  C   UNK N   1      34.431  15.068  10.738  0.00  0.00     0.169 C 
HETATM    3  C   UNK N   1      33.197  16.439   9.020  0.00  0.00     0.180 C 
HETATM    4  C   UNK N   1      33.429  15.023   9.566  0.00  0.00     0.177 C 
HETATM    5  C   UNK N   1      35.704  15.846  10.293  0.00  0.00     0.282 C 
HETATM    6  O   UNK N   1      33.922  14.195   8.550  0.00  0.00    -0.391 OA
HETATM    7  O   UNK N   1      35.363  17.140   9.827  0.00  0.00    -0.349 OA
HETATM    8  H   UNK N   1      34.146  13.551   7.861  0.00  0.00     0.210 HD
ENDROOT
BRANCH   2   9
HETATM    9  N   UNK N   1      34.624  13.708  11.243  0.00  0.00    -0.363 N 
HETATM   10  C   UNK N   1      35.004  13.296  12.418  0.00  0.00     0.107 C 
HETATM   11  C   UNK N   1      35.135  11.835  12.659  0.00  0.00     0.097 C 
ATOM     12  HN  UNK N   1      34.430  12.967  10.568  1.00  0.00     0.162 HD
BRANCH  10  13
HETATM   13  O   UNK N   1      35.284  14.143  13.422  0.00  0.00    -0.350 OA
HETATM   14  H   UNK N   1      36.119  14.139  13.848  0.00  0.00     0.219 HD
ENDBRANCH  10  13
ENDBRANCH   2   9
BRANCH   3  15
HETATM   15  O   UNK N   1      32.358  16.381   7.903  0.00  0.00    -0.390 OA
HETATM   16  H   UNK N   1      32.298  15.704   7.211  0.00  0.00     0.210 HD
ENDBRANCH   3  15
BRANCH   5  17
HETATM   17  O   UNK N   1      36.549  16.014  11.392  0.00  0.00    -0.369 OA
HETATM   18  H   UNK N   1      37.006  15.361  11.944  0.00  0.00     0.212 HD
ENDBRANCH   5  17
BRANCH   1  19
HETATM   19  C   UNK N   1      34.389  18.508   8.157  0.00  0.00     0.198 C 
BRANCH  19  20
HETATM   20  O   UNK N   1      35.409  19.336   8.626  0.00  0.00    -0.398 OA
HETATM   21  H   UNK N   1      35.405  20.206   9.054  0.00  0.00     0.209 HD
ENDBRANCH  19  20
ENDBRANCH   1  19
TORSDOF 6
ENDMDL
MODEL 3
REMARK VINA RESULT:      -5.3      2.673      5.733
REMARK  6 active torsions:
REMARK  status: ('A' for Active; 'I' for Inactive)
REMARK    1  A    between atoms: C_4  and  C_2 
REMARK    2  A    between atoms: O_11  and  C_2 
REMARK    3  A    between atoms: O_12  and  C_3 
REMARK    4  A    between atoms: C_5  and  N_9 
REMARK    5  A    between atoms: C_6  and  O_13 
REMARK    6  A    between atoms: C_8  and  O_15 
ROOT
HETATM    1  C   UNK N   1      35.303  14.911   9.969  0.00  0.00     0.179 C 
HETATM    2  C   UNK N   1      36.558  13.503  12.157  0.00  0.00     0.169 C 
HETATM    3  C   UNK N   1      34.607  14.879  11.348  0.00  0.00     0.180 C 
HETATM    4  C   UNK N   1      35.020  13.600  12.091  0.00  0.00     0.177 C 
HETATM    5  C   UNK N   1      37.143  13.679  10.725  0.00  0.00     0.282 C 
HETATM    6  O   UNK N   1      34.499  12.479  11.437  0.00  0.00    -0.391 OA
HETATM    7  O   UNK N   1      36.707  14.899  10.152  0.00  0.00    -0.349 OA
HETATM    8  H   UNK N   1      34.065  11.681  11.097  0.00  0.00     0.210 HD
ENDROOT
BRANCH   2   9
HETATM    9  N   UNK N   1      36.920  12.281  12.879  0.00  0.00    -0.363 N 
HETATM   10  C   UNK N   1      37.309  12.121  14.112  0.00  0.00     0.107 C 
HETATM   11  C   UNK N   1      37.633  10.751  14.588  0.00  0.00     0.097 C 
ATOM     12  HN  UNK N   1      36.857  11.423  12.332  1.00  0.00     0.162 HD
BRANCH  10  13
HETATM   13  O   UNK N   1      37.430  13.148  14.968  0.00  0.00    -0.350 OA
HETATM   14  H   UNK N   1      38.269  13.448  15.257  0.00  0.00     0.219 HD
ENDBRANCH  10  13
ENDBRANCH   2   9
BRANCH   3  15
HETATM   15  O   UNK N   1      33.216  14.918  11.214  0.00  0.00    -0.390 OA
HETATM   16  H   UNK N   1      32.678  15.202  10.459  0.00  0.00     0.210 HD
ENDBRANCH   3  15
BRANCH   5  17
HETATM   17  O   UNK N   1      38.537  13.735  10.801  0.00  0.00    -0.369 OA
HETATM   18  H   UNK N   1      39.167  13.181  11.286  0.00  0.00     0.212 HD
ENDBRANCH   5  17
BRANCH   1  19
HETATM   19  C   UNK N   1      34.963  16.189   9.202  0.00  0.00     0.198 C 
BRANCH  19  20
HETATM   20  O   UNK N   1      34.569  17.211  10.068  0.00  0.00    -0.398 OA
HETATM   21  H   UNK N   1      34.970  18.061  10.305  0.00  0.00     0.209 HD
ENDBRANCH  19  20
ENDBRANCH   1  19
TORSDOF 6
ENDMDL
MODEL 4
REMARK VINA RESULT:      -5.2      1.699      2.312
REMARK  6 active torsions:
REMARK  status: ('A' for Active; 'I' for Inactive)
REMARK    1  A    between atoms: C_4  and  C_2 
REMARK    2  A    between atoms: O_11  and  C_2 
REMARK    3  A    between atoms: O_12  and  C_3 
REMARK    4  A    between atoms: C_5  and  N_9 
REMARK    5  A    between atoms: C_6  and  O_13 
REMARK    6  A    between atoms: C_8  and  O_15 
ROOT
HETATM    1  C   UNK N   1      34.696  16.412  10.318  0.00  0.00     0.179 C 
HETATM    2  C   UNK N   1      34.183  16.971   7.530  0.00  0.00     0.169 C 
HETATM    3  C   UNK N   1      34.389  15.244   9.355  0.00  0.00     0.180 C 
HETATM    4  C   UNK N   1      33.512  15.756   8.204  0.00  0.00     0.177 C 
HETATM    5  C   UNK N   1      34.558  18.017   8.620  0.00  0.00     0.282 C 
HETATM    6  O   UNK N   1      32.251  16.118   8.690  0.00  0.00    -0.391 OA
HETATM    7  O   UNK N   1      35.381  17.432   9.615  0.00  0.00    -0.349 OA
HETATM    8  H   UNK N   1      31.328  16.267   8.948  0.00  0.00     0.210 HD
ENDROOT
BRANCH   2   9
HETATM    9  N   UNK N   1      33.330  17.429   6.433  0.00  0.00    -0.363 N 
HETATM   10  C   UNK N   1      33.258  17.018   5.199  0.00  0.00     0.107 C 
HETATM   11  C   UNK N   1      32.300  17.681   4.276  0.00  0.00     0.097 C 
ATOM     12  HN  UNK N   1      32.691  18.189   6.671  1.00  0.00     0.162 HD
BRANCH  10  13
HETATM   13  O   UNK N   1      34.020  16.018   4.728  0.00  0.00    -0.350 OA
HETATM   14  H   UNK N   1      34.263  15.970   3.825  0.00  0.00     0.219 HD
ENDBRANCH  10  13
ENDBRANCH   2   9
BRANCH   3  15
HETATM   15  O   UNK N   1      33.736  14.200  10.018  0.00  0.00    -0.390 OA
HETATM   16  H   UNK N   1      34.030  13.290  10.173  0.00  0.00     0.210 HD
ENDBRANCH   3  15
BRANCH   5  17
HETATM   17  O   UNK N   1      35.293  19.050   8.034  0.00  0.00    -0.369 OA
HETATM   18  H   UNK N   1      35.920  19.679   8.421  0.00  0.00     0.212 HD
ENDBRANCH   5  17
BRANCH   1  19
HETATM   19  C   UNK N   1      35.607  15.968  11.462  0.00  0.00     0.198 C 
BRANCH  19  20
HETATM   20  O   UNK N   1      36.950  16.006  11.086  0.00  0.00    -0.398 OA
HETATM   21  H   UNK N   1      37.442  16.561  10.461  0.00  0.00     0.209 HD
ENDBRANCH  19  20
ENDBRANCH   1  19
TORSDOF 6
ENDMDL
MODEL 5
REMARK VINA RESULT:      -5.2      1.410      2.358
REMARK  6 active torsions:
REMARK  status: ('A' for Active; 'I' for Inactive)
REMARK    1  A    between atoms: C_4  and  C_2 
REMARK    2  A    between atoms: O_11  and  C_2 
REMARK    3  A    between atoms: O_12  and  C_3 
REMARK    4  A    between atoms: C_5  and  N_9 
REMARK    5  A    between atoms: C_6  and  O_13 
REMARK    6  A    between atoms: C_8  and  O_15 
ROOT
HETATM    1  C   UNK N   1      35.287  14.418  11.280  0.00  0.00     0.179 C 
HETATM    2  C   UNK N   1      34.067  16.087   9.262  0.00  0.00     0.169 C 
HETATM    3  C   UNK N   1      36.115  15.548  10.629  0.00  0.00     0.180 C 
HETATM    4  C   UNK N   1      35.584  15.811   9.213  0.00  0.00     0.177 C 
HETATM    5  C   UNK N   1      33.365  14.944  10.052  0.00  0.00     0.282 C 
HETATM    6  O   UNK N   1      35.841  14.706   8.394  0.00  0.00    -0.391 OA
HETATM    7  O   UNK N   1      33.929  14.810  11.345  0.00  0.00    -0.349 OA
HETATM    8  H   UNK N   1      36.101  14.025   7.755  0.00  0.00     0.210 HD
ENDROOT
BRANCH   2   9
HETATM    9  N   UNK N   1      33.593  16.344   7.901  0.00  0.00    -0.363 N 
HETATM   10  C   UNK N   1      33.837  17.344   7.104  0.00  0.00     0.107 C 
HETATM   11  C   UNK N   1      33.202  17.362   5.760  0.00  0.00     0.097 C 
ATOM     12  HN  UNK N   1      32.976  15.627   7.517  1.00  0.00     0.162 HD
BRANCH  10  13
HETATM   13  O   UNK N   1      34.639  18.363   7.451  0.00  0.00    -0.350 OA
HETATM   14  H   UNK N   1      35.561  18.339   7.286  0.00  0.00     0.219 HD
ENDBRANCH  10  13
ENDBRANCH   2   9
BRANCH   3  15
HETATM   15  O   UNK N   1      37.471  15.212  10.570  0.00  0.00    -0.390 OA
HETATM   16  H   UNK N   1      38.250  15.788  10.609  0.00  0.00     0.210 HD
ENDBRANCH   3  15
BRANCH   5  17
HETATM   17  O   UNK N   1      32.016  15.263  10.222  0.00  0.00    -0.369 OA
HETATM   18  H   UNK N   1      31.278  15.246   9.595  0.00  0.00     0.212 HD
ENDBRANCH   5  17
BRANCH   1  19
HETATM   19  C   UNK N   1      35.744  14.144  12.712  0.00  0.00     0.198 C 
BRANCH  19  20
HETATM   20  O   UNK N   1      36.490  15.210  13.219  0.00  0.00    -0.398 OA
HETATM   21  H   UNK N   1      37.113  15.283  13.957  0.00  0.00     0.209 HD
ENDBRANCH  19  20
ENDBRANCH   1  19
TORSDOF 6
ENDMDL
MODEL 6
REMARK VINA RESULT:      -5.1      1.714      2.793
REMARK  6 active torsions:
REMARK  status: ('A' for Active; 'I' for Inactive)
REMARK    1  A    between atoms: C_4  and  C_2 
REMARK    2  A    between atoms: O_11  and  C_2 
REMARK    3  A    between atoms: O_12  and  C_3 
REMARK    4  A    between atoms: C_5  and  N_9 
REMARK    5  A    between atoms: C_6  and  O_13 
REMARK    6  A    between atoms: C_8  and  O_15 
ROOT
HETATM    1  C   UNK N   1      36.087  13.452  11.806  0.00  0.00     0.179 C 
HETATM    2  C   UNK N   1      34.534  15.545  10.558  0.00  0.00     0.169 C 
HETATM    3  C   UNK N   1      35.822  14.763  12.579  0.00  0.00     0.180 C 
HETATM    4  C   UNK N   1      35.633  15.911  11.576  0.00  0.00     0.177 C 
HETATM    5  C   UNK N   1      34.848  14.149   9.946  0.00  0.00     0.282 C 
HETATM    6  O   UNK N   1      36.836  16.163  10.908  0.00  0.00    -0.391 OA
HETATM    7  O   UNK N   1      34.982  13.173  10.965  0.00  0.00    -0.349 OA
HETATM    8  H   UNK N   1      37.667  16.461  10.506  0.00  0.00     0.210 HD
ENDROOT
BRANCH   2   9
HETATM    9  N   UNK N   1      34.370  16.660   9.624  0.00  0.00    -0.363 N 
HETATM   10  C   UNK N   1      33.322  17.044   8.952  0.00  0.00     0.107 C 
HETATM   11  C   UNK N   1      33.440  18.218   8.049  0.00  0.00     0.097 C 
ATOM     12  HN  UNK N   1      35.207  17.225   9.477  1.00  0.00     0.162 HD
BRANCH  10  13
HETATM   13  O   UNK N   1      32.139  16.416   9.044  0.00  0.00    -0.350 OA
HETATM   14  H   UNK N   1      31.380  16.732   8.593  0.00  0.00     0.219 HD
ENDBRANCH  10  13
ENDBRANCH   2   9
BRANCH   3  15
HETATM   15  O   UNK N   1      36.879  15.062  13.444  0.00  0.00    -0.390 OA
HETATM   16  H   UNK N   1      37.685  14.557  13.630  0.00  0.00     0.210 HD
ENDBRANCH   3  15
BRANCH   5  17
HETATM   17  O   UNK N   1      33.784  13.751   9.134  0.00  0.00    -0.369 OA
HETATM   18  H   UNK N   1      32.932  14.178   8.952  0.00  0.00     0.212 HD
ENDBRANCH   5  17
BRANCH   1  19
HETATM   19  C   UNK N   1      36.237  12.265  12.756  0.00  0.00     0.198 C 
BRANCH  19  20
HETATM   20  O   UNK N   1      37.493  12.259  13.366  0.00  0.00    -0.398 OA
HETATM   21  H   UNK N   1      38.284  12.806  13.246  0.00  0.00     0.209 HD
ENDBRANCH  19  20
ENDBRANCH   1  19
TORSDOF 6
ENDMDL
MODEL 7
REMARK VINA RESULT:      -5.1      2.611      4.995
REMARK  6 active torsions:
REMARK  status: ('A' for Active; 'I' for Inactive)
REMARK    1  A    between atoms: C_4  and  C_2 
REMARK    2  A    between atoms: O_11  and  C_2 
REMARK    3  A    between atoms: O_12  and  C_3 
REMARK    4  A    between atoms: C_5  and  N_9 
REMARK    5  A    between atoms: C_6  and  O_13 
REMARK    6  A    between atoms: C_8  and  O_15 
ROOT
HETATM    1  C   UNK N   1      33.150  16.853   8.670  0.00  0.00     0.179 C 
HETATM    2  C   UNK N   1      33.563  14.006   8.933  0.00  0.00     0.169 C 
HETATM    3  C   UNK N   1      34.405  16.334   9.407  0.00  0.00     0.180 C 
HETATM    4  C   UNK N   1      34.098  14.960  10.020  0.00  0.00     0.177 C 
HETATM    5  C   UNK N   1      32.388  14.696   8.180  0.00  0.00     0.282 C 
HETATM    6  O   UNK N   1      33.152  15.096  11.042  0.00  0.00    -0.391 OA
HETATM    7  O   UNK N   1      32.798  15.942   7.646  0.00  0.00    -0.349 OA
HETATM    8  H   UNK N   1      32.596  15.146  11.835  0.00  0.00     0.210 HD
ENDROOT
BRANCH   2   9
HETATM    9  N   UNK N   1      33.290  12.704   9.545  0.00  0.00    -0.363 N 
HETATM   10  C   UNK N   1      33.268  11.516   9.013  0.00  0.00     0.107 C 
HETATM   11  C   UNK N   1      32.939  10.350   9.874  0.00  0.00     0.097 C 
ATOM     12  HN  UNK N   1      33.084  12.733  10.544  1.00  0.00     0.162 HD
BRANCH  10  13
HETATM   13  O   UNK N   1      33.529  11.305   7.713  0.00  0.00    -0.350 OA
HETATM   14  H   UNK N   1      33.926  11.965   7.179  0.00  0.00     0.219 HD
ENDBRANCH  10  13
ENDBRANCH   2   9
BRANCH   3  15
HETATM   15  O   UNK N   1      34.805  17.220  10.412  0.00  0.00    -0.390 OA
HETATM   16  H   UNK N   1      35.535  17.145  11.045  0.00  0.00     0.210 HD
ENDBRANCH   3  15
BRANCH   5  17
HETATM   17  O   UNK N   1      31.997  13.896   7.104  0.00  0.00    -0.369 OA
HETATM   18  H   UNK N   1      31.903  12.934   7.033  0.00  0.00     0.212 HD
ENDBRANCH   5  17
BRANCH   1  19
HETATM   19  C   UNK N   1      33.415  18.201   8.000  0.00  0.00     0.198 C 
BRANCH  19  20
HETATM   20  O   UNK N   1      34.749  18.321   7.609  0.00  0.00    -0.398 OA
HETATM   21  H   UNK N   1      35.198  18.204   6.758  0.00  0.00     0.209 HD
ENDBRANCH  19  20
ENDBRANCH   1  19
TORSDOF 6
ENDMDL
MODEL 8
REMARK VINA RESULT:      -5.0      3.786      6.829
REMARK  6 active torsions:
REMARK  status: ('A' for Active; 'I' for Inactive)
REMARK    1  A    between atoms: C_4  and  C_2 
REMARK    2  A    between atoms: O_11  and  C_2 
REMARK    3  A    between atoms: O_12  and  C_3 
REMARK    4  A    between atoms: C_5  and  N_9 
REMARK    5  A    between atoms: C_6  and  O_13 
REMARK    6  A    between atoms: C_8  and  O_15 
ROOT
HETATM    1  C   UNK N   1      28.742  17.410   7.169  0.00  0.00     0.179 C 
HETATM    2  C   UNK N   1      31.455  17.837   8.067  0.00  0.00     0.169 C 
HETATM    3  C   UNK N   1      29.022  18.470   8.256  0.00  0.00     0.180 C 
HETATM    4  C   UNK N   1      30.281  18.070   9.040  0.00  0.00     0.177 C 
HETATM    5  C   UNK N   1      31.005  16.852   6.948  0.00  0.00     0.282 C 
HETATM    6  O   UNK N   1      30.034  16.906   9.775  0.00  0.00    -0.391 OA
HETATM    7  O   UNK N   1      29.848  17.338   6.289  0.00  0.00    -0.349 OA
HETATM    8  H   UNK N   1      29.883  16.176  10.397  0.00  0.00     0.210 HD
ENDROOT
BRANCH   2   9
HETATM    9  N   UNK N   1      32.640  17.468   8.842  0.00  0.00    -0.363 N 
HETATM   10  C   UNK N   1      33.904  17.592   8.552  0.00  0.00     0.107 C 
HETATM   11  C   UNK N   1      34.915  17.111   9.530  0.00  0.00     0.097 C 
ATOM     12  HN  UNK N   1      32.446  17.047   9.752  1.00  0.00     0.162 HD
BRANCH  10  13
HETATM   13  O   UNK N   1      34.328  18.138   7.401  0.00  0.00    -0.350 OA
HETATM   14  H   UNK N   1      33.743  18.600   6.833  0.00  0.00     0.219 HD
ENDBRANCH  10  13
ENDBRANCH   2   9
BRANCH   3  15
HETATM   15  O   UNK N   1      27.941  18.594   9.134  0.00  0.00    -0.390 OA
HETATM   16  H   UNK N   1      27.016  18.816   8.944  0.00  0.00     0.210 HD
ENDBRANCH   3  15
BRANCH   5  17
HETATM   17  O   UNK N   1      32.014  16.752   5.989  0.00  0.00    -0.369 OA
HETATM   18  H   UNK N   1      32.964  16.583   6.085  0.00  0.00     0.212 HD
ENDBRANCH   5  17
BRANCH   1  19
HETATM   19  C   UNK N   1      27.523  17.783   6.327  0.00  0.00     0.198 C 
BRANCH  19  20
HETATM   20  O   UNK N   1      27.129  19.101   6.560  0.00  0.00    -0.398 OA
HETATM   21  H   UNK N   1      26.955  19.601   7.373  0.00  0.00     0.209 HD
ENDBRANCH  19  20
ENDBRANCH   1  19
TORSDOF 6
ENDMDL
MODEL 9
REMARK VINA RESULT:      -4.9      1.732      5.290
REMARK  6 active torsions:
REMARK  status: ('A' for Active; 'I' for Inactive)
REMARK    1  A    between atoms: C_4  and  C_2 
REMARK    2  A    between atoms: O_11  and  C_2 
REMARK    3  A    between atoms: O_12  and  C_3 
REMARK    4  A    between atoms: C_5  and  N_9 
REMARK    5  A    between atoms: C_6  and  O_13 
REMARK    6  A    between atoms: C_8  and  O_15 
ROOT
HETATM    1  C   UNK N   1      33.455  17.051   8.649  0.00  0.00     0.179 C 
HETATM    2  C   UNK N   1      34.881  15.016  10.123  0.00  0.00     0.169 C 
HETATM    3  C   UNK N   1      34.972  17.214   8.891  0.00  0.00     0.180 C 
HETATM    4  C   UNK N   1      35.357  16.482  10.185  0.00  0.00     0.177 C 
HETATM    5  C   UNK N   1      33.372  14.984   9.744  0.00  0.00     0.282 C 
HETATM    6  O   UNK N   1      34.780  17.124  11.286  0.00  0.00    -0.391 OA
HETATM    7  O   UNK N   1      33.145  15.675   8.528  0.00  0.00    -0.349 OA
HETATM    8  H   UNK N   1      34.509  17.595  12.089  0.00  0.00     0.210 HD
ENDROOT
BRANCH   2   9
HETATM    9  N   UNK N   1      35.272  14.343  11.363  0.00  0.00    -0.363 N 
HETATM   10  C   UNK N   1      36.435  13.898  11.744  0.00  0.00     0.107 C 
HETATM   11  C   UNK N   1      36.548  13.229  13.067  0.00  0.00     0.097 C 
ATOM     12  HN  UNK N   1      34.515  14.201  12.032  1.00  0.00     0.162 HD
BRANCH  10  13
HETATM   13  O   UNK N   1      37.536  14.018  10.986  0.00  0.00    -0.350 OA
HETATM   14  H   UNK N   1      37.755  14.827  10.566  0.00  0.00     0.219 HD
ENDBRANCH  10  13
ENDBRANCH   2   9
BRANCH   3  15
HETATM   15  O   UNK N   1      35.327  18.563   8.990  0.00  0.00    -0.390 OA
HETATM   16  H   UNK N   1      35.507  19.205   8.286  0.00  0.00     0.210 HD
ENDBRANCH   3  15
BRANCH   5  17
HETATM   17  O   UNK N   1      32.974  13.660   9.546  0.00  0.00    -0.369 OA
HETATM   18  H   UNK N   1      32.100  13.245   9.610  0.00  0.00     0.212 HD
ENDBRANCH   5  17
BRANCH   1  19
HETATM   19  C   UNK N   1      33.023  17.724   7.346  0.00  0.00     0.198 C 
BRANCH  19  20
HETATM   20  O   UNK N   1      34.117  17.967   6.514  0.00  0.00    -0.398 OA
HETATM   21  H   UNK N   1      34.342  17.668   5.620  0.00  0.00     0.209 HD
ENDBRANCH  19  20
ENDBRANCH   1  19
TORSDOF 6
ENDMDL
