MODEL 1
REMARK VINA RESULT:      -6.8      0.000      0.000
REMARK  6 active torsions:
REMARK  status: ('A' for Active; 'I' for Inactive)
REMARK    1  A    between atoms: O_1  and  C_2 
REMARK    2  A    between atoms: C_5  and  C_8 
REMARK    3  A    between atoms: C_9  and  C_10 
REMARK    4  A    between atoms: C_10  and  C_12 
REMARK    5  A    between atoms: C_15  and  O_16 
REMARK    6  A    between atoms: C_18  and  O_19 
ROOT
HETATM    1  C   UNK N   1      30.067  22.905  -2.703  0.00  0.00     0.184 C 
HETATM    2  O   UNK N   1      30.315  22.927  -1.501  0.00  0.00    -0.287 OA
ENDROOT
BRANCH   1   3
HETATM    3  C   UNK N   1      29.014  23.757  -3.257  0.00  0.00     0.056 C 
HETATM    4  C   UNK N   1      27.747  23.887  -2.871  0.00  0.00     0.015 C 
BRANCH   4   5
HETATM    5  C   UNK N   1      26.892  24.800  -3.658  0.00  0.00    -0.036 A 
HETATM    6  C   UNK N   1      26.721  26.134  -3.271  0.00  0.00     0.014 A 
HETATM    7  C   UNK N   1      25.897  26.980  -4.026  0.00  0.00     0.037 A 
HETATM    8  C   UNK N   1      25.241  26.496  -5.165  0.00  0.00     0.065 A 
HETATM    9  C   UNK N   1      25.407  25.168  -5.554  0.00  0.00     0.037 A 
HETATM   10  C   UNK N   1      26.226  24.328  -4.807  0.00  0.00     0.014 A 
BRANCH   8  11
HETATM   11  O   UNK N   1      24.449  27.305  -5.885  0.00  0.00    -0.361 OA
HETATM   12  H   UNK N   1      23.577  27.039  -6.100  0.00  0.00     0.217 HD
ENDBRANCH   8  11
ENDBRANCH   4   5
ENDBRANCH   1   3
BRANCH   1  13
HETATM   13  C   UNK N   1      30.803  21.978  -3.613  0.00  0.00     0.047 A 
HETATM   14  C   UNK N   1      30.313  21.748  -4.905  0.00  0.00     0.021 A 
HETATM   15  C   UNK N   1      30.993  20.901  -5.787  0.00  0.00     0.037 A 
HETATM   16  C   UNK N   1      32.174  20.271  -5.383  0.00  0.00     0.068 A 
HETATM   17  C   UNK N   1      32.670  20.480  -4.103  0.00  0.00     0.074 A 
HETATM   18  C   UNK N   1      32.007  21.322  -3.211  0.00  0.00     0.082 A 
BRANCH  16  19
HETATM   19  O   UNK N   1      32.830  19.463  -6.230  0.00  0.00    -0.361 OA
HETATM   20  H   UNK N   1      33.124  18.621  -5.942  0.00  0.00     0.217 HD
ENDBRANCH  16  19
BRANCH  18  21
HETATM   21  O   UNK N   1      32.530  21.486  -1.987  0.00  0.00    -0.360 OA
HETATM   22  H   UNK N   1      32.421  20.825  -1.333  0.00  0.00     0.217 HD
ENDBRANCH  18  21
ENDBRANCH   1  13
TORSDOF 6
ENDMDL
MODEL 2
REMARK VINA RESULT:      -6.7      9.892     12.666
REMARK  6 active torsions:
REMARK  status: ('A' for Active; 'I' for Inactive)
REMARK    1  A    between atoms: O_1  and  C_2 
REMARK    2  A    between atoms: C_5  and  C_8 
REMARK    3  A    between atoms: C_9  and  C_10 
REMARK    4  A    between atoms: C_10  and  C_12 
REMARK    5  A    between atoms: C_15  and  O_16 
REMARK    6  A    between atoms: C_18  and  O_19 
ROOT
HETATM    1  C   UNK N   1      24.049  20.297   3.163  0.00  0.00     0.184 C 
HETATM    2  O   UNK N   1      24.260  21.198   2.356  0.00  0.00    -0.287 OA
ENDROOT
BRANCH   1   3
HETATM    3  C   UNK N   1      25.111  19.845   4.061  0.00  0.00     0.056 C 
HETATM    4  C   UNK N   1      26.412  20.124   4.034  0.00  0.00     0.015 C 
BRANCH   4   5
HETATM    5  C   UNK N   1      27.263  19.478   5.056  0.00  0.00    -0.036 A 
HETATM    6  C   UNK N   1      28.080  18.391   4.724  0.00  0.00     0.014 A 
HETATM    7  C   UNK N   1      28.872  17.786   5.711  0.00  0.00     0.037 A 
HETATM    8  C   UNK N   1      28.845  18.263   7.028  0.00  0.00     0.065 A 
HETATM    9  C   UNK N   1      28.032  19.344   7.363  0.00  0.00     0.037 A 
HETATM   10  C   UNK N   1      27.249  19.947   6.384  0.00  0.00     0.014 A 
BRANCH   8  11
HETATM   11  O   UNK N   1      29.600  17.681   7.973  0.00  0.00    -0.361 OA
HETATM   12  H   UNK N   1      30.246  17.047   7.733  0.00  0.00     0.217 HD
ENDBRANCH   8  11
ENDBRANCH   4   5
ENDBRANCH   1   3
BRANCH   1  13
HETATM   13  C   UNK N   1      22.720  19.618   3.212  0.00  0.00     0.047 A 
HETATM   14  C   UNK N   1      22.650  18.266   3.571  0.00  0.00     0.021 A 
HETATM   15  C   UNK N   1      21.417  17.609   3.646  0.00  0.00     0.037 A 
HETATM   16  C   UNK N   1      20.237  18.300   3.357  0.00  0.00     0.068 A 
HETATM   17  C   UNK N   1      20.287  19.638   2.991  0.00  0.00     0.074 A 
HETATM   18  C   UNK N   1      21.507  20.310   2.913  0.00  0.00     0.082 A 
BRANCH  16  19
HETATM   19  O   UNK N   1      19.053  17.672   3.434  0.00  0.00    -0.361 OA
HETATM   20  H   UNK N   1      19.003  16.747   3.292  0.00  0.00     0.217 HD
ENDBRANCH  16  19
BRANCH  18  21
HETATM   21  O   UNK N   1      21.496  21.602   2.552  0.00  0.00    -0.360 OA
HETATM   22  H   UNK N   1      20.859  21.918   1.943  0.00  0.00     0.217 HD
ENDBRANCH  18  21
ENDBRANCH   1  13
TORSDOF 6
ENDMDL
MODEL 3
REMARK VINA RESULT:      -6.6     19.399     22.402
REMARK  6 active torsions:
REMARK  status: ('A' for Active; 'I' for Inactive)
REMARK    1  A    between atoms: O_1  and  C_2 
REMARK    2  A    between atoms: C_5  and  C_8 
REMARK    3  A    between atoms: C_9  and  C_10 
REMARK    4  A    between atoms: C_10  and  C_12 
REMARK    5  A    between atoms: C_15  and  O_16 
REMARK    6  A    between atoms: C_18  and  O_19 
ROOT
HETATM    1  C   UNK N   1      35.072  12.645  12.653  0.00  0.00     0.184 C 
HETATM    2  O   UNK N   1      34.973  11.565  12.077  0.00  0.00    -0.287 OA
ENDROOT
BRANCH   1   3
HETATM    3  C   UNK N   1      35.128  12.703  14.113  0.00  0.00     0.056 C 
HETATM    4  C   UNK N   1      35.629  11.818  14.972  0.00  0.00     0.015 C 
BRANCH   4   5
HETATM    5  C   UNK N   1      35.500  12.127  16.412  0.00  0.00    -0.036 A 
HETATM    6  C   UNK N   1      35.529  11.106  17.369  0.00  0.00     0.014 A 
HETATM    7  C   UNK N   1      35.395  11.421  18.729  0.00  0.00     0.037 A 
HETATM    8  C   UNK N   1      35.229  12.751  19.134  0.00  0.00     0.065 A 
HETATM    9  C   UNK N   1      35.198  13.771  18.184  0.00  0.00     0.037 A 
HETATM   10  C   UNK N   1      35.334  13.461  16.835  0.00  0.00     0.014 A 
BRANCH   8  11
HETATM   11  O   UNK N   1      35.097  13.051  20.435  0.00  0.00    -0.361 OA
HETATM   12  H   UNK N   1      35.414  12.459  21.087  0.00  0.00     0.217 HD
ENDBRANCH   8  11
ENDBRANCH   4   5
ENDBRANCH   1   3
BRANCH   1  13
HETATM   13  C   UNK N   1      35.093  13.920  11.875  0.00  0.00     0.047 A 
HETATM   14  C   UNK N   1      35.827  15.010  12.360  0.00  0.00     0.021 A 
HETATM   15  C   UNK N   1      35.882  16.210  11.643  0.00  0.00     0.037 A 
HETATM   16  C   UNK N   1      35.199  16.333  10.429  0.00  0.00     0.068 A 
HETATM   17  C   UNK N   1      34.460  15.265   9.937  0.00  0.00     0.074 A 
HETATM   18  C   UNK N   1      34.394  14.061  10.638  0.00  0.00     0.082 A 
BRANCH  16  19
HETATM   19  O   UNK N   1      35.255  17.481   9.737  0.00  0.00    -0.361 OA
HETATM   20  H   UNK N   1      35.954  17.630   9.131  0.00  0.00     0.217 HD
ENDBRANCH  16  19
BRANCH  18  21
HETATM   21  O   UNK N   1      33.664  13.064  10.116  0.00  0.00    -0.360 OA
HETATM   22  H   UNK N   1      33.710  12.872   9.201  0.00  0.00     0.217 HD
ENDBRANCH  18  21
ENDBRANCH   1  13
TORSDOF 6
ENDMDL
MODEL 4
REMARK VINA RESULT:      -6.6      9.578     10.898
REMARK  6 active torsions:
REMARK  status: ('A' for Active; 'I' for Inactive)
REMARK    1  A    between atoms: O_1  and  C_2 
REMARK    2  A    between atoms: C_5  and  C_8 
REMARK    3  A    between atoms: C_9  and  C_10 
REMARK    4  A    between atoms: C_10  and  C_12 
REMARK    5  A    between atoms: C_15  and  O_16 
REMARK    6  A    between atoms: C_18  and  O_19 
ROOT
HETATM    1  C   UNK N   1      25.815  20.553   3.237  0.00  0.00     0.184 C 
HETATM    2  O   UNK N   1      26.373  21.172   2.335  0.00  0.00    -0.287 OA
ENDROOT
BRANCH   1   3
HETATM    3  C   UNK N   1      24.398  20.208   3.131  0.00  0.00     0.056 C 
HETATM    4  C   UNK N   1      23.695  19.312   3.821  0.00  0.00     0.015 C 
BRANCH   4   5
HETATM    5  C   UNK N   1      22.272  19.145   3.459  0.00  0.00    -0.036 A 
HETATM    6  C   UNK N   1      21.572  17.989   3.821  0.00  0.00     0.014 A 
HETATM    7  C   UNK N   1      20.225  17.846   3.458  0.00  0.00     0.037 A 
HETATM    8  C   UNK N   1      19.578  18.855   2.732  0.00  0.00     0.065 A 
HETATM    9  C   UNK N   1      20.272  20.007   2.369  0.00  0.00     0.037 A 
HETATM   10  C   UNK N   1      21.607  20.152   2.730  0.00  0.00     0.014 A 
BRANCH   8  11
HETATM   11  O   UNK N   1      18.290  18.716   2.382  0.00  0.00    -0.361 OA
HETATM   12  H   UNK N   1      17.832  17.924   2.582  0.00  0.00     0.217 HD
ENDBRANCH   8  11
ENDBRANCH   4   5
ENDBRANCH   1   3
BRANCH   1  13
HETATM   13  C   UNK N   1      26.561  20.182   4.477  0.00  0.00     0.047 A 
HETATM   14  C   UNK N   1      26.338  20.904   5.656  0.00  0.00     0.021 A 
HETATM   15  C   UNK N   1      27.006  20.566   6.838  0.00  0.00     0.037 A 
HETATM   16  C   UNK N   1      27.910  19.499   6.851  0.00  0.00     0.068 A 
HETATM   17  C   UNK N   1      28.149  18.777   5.689  0.00  0.00     0.074 A 
HETATM   18  C   UNK N   1      27.491  19.099   4.502  0.00  0.00     0.082 A 
BRANCH  16  19
HETATM   19  O   UNK N   1      28.547  19.170   7.985  0.00  0.00    -0.361 OA
HETATM   20  H   UNK N   1      29.391  18.764   7.948  0.00  0.00     0.217 HD
ENDBRANCH  16  19
BRANCH  18  21
HETATM   21  O   UNK N   1      27.763  18.369   3.410  0.00  0.00    -0.360 OA
HETATM   22  H   UNK N   1      28.554  18.512   2.930  0.00  0.00     0.217 HD
ENDBRANCH  18  21
ENDBRANCH   1  13
TORSDOF 6
ENDMDL
MODEL 5
REMARK VINA RESULT:      -6.5     13.761     17.236
REMARK  6 active torsions:
REMARK  status: ('A' for Active; 'I' for Inactive)
REMARK    1  A    between atoms: O_1  and  C_2 
REMARK    2  A    between atoms: C_5  and  C_8 
REMARK    3  A    between atoms: C_9  and  C_10 
REMARK    4  A    between atoms: C_10  and  C_12 
REMARK    5  A    between atoms: C_15  and  O_16 
REMARK    6  A    between atoms: C_18  and  O_19 
ROOT
HETATM    1  C   UNK N   1      34.371  18.015   8.501  0.00  0.00     0.184 C 
HETATM    2  O   UNK N   1      34.948  19.085   8.328  0.00  0.00    -0.287 OA
ENDROOT
BRANCH   1   3
HETATM    3  C   UNK N   1      34.932  17.009   9.402  0.00  0.00     0.056 C 
HETATM    4  C   UNK N   1      35.079  15.700   9.215  0.00  0.00     0.015 C 
BRANCH   4   5
HETATM    5  C   UNK N   1      35.641  14.916  10.335  0.00  0.00    -0.036 A 
HETATM    6  C   UNK N   1      35.074  14.984  11.612  0.00  0.00     0.014 A 
HETATM    7  C   UNK N   1      35.630  14.240  12.663  0.00  0.00     0.037 A 
HETATM    8  C   UNK N   1      36.753  13.433  12.441  0.00  0.00     0.065 A 
HETATM    9  C   UNK N   1      37.322  13.363  11.171  0.00  0.00     0.037 A 
HETATM   10  C   UNK N   1      36.770  14.098  10.126  0.00  0.00     0.014 A 
BRANCH   8  11
HETATM   11  O   UNK N   1      37.286  12.724  13.448  0.00  0.00    -0.361 OA
HETATM   12  H   UNK N   1      36.980  11.857  13.624  0.00  0.00     0.217 HD
ENDBRANCH   8  11
ENDBRANCH   4   5
ENDBRANCH   1   3
BRANCH   1  13
HETATM   13  C   UNK N   1      33.112  17.704   7.760  0.00  0.00     0.047 A 
HETATM   14  C   UNK N   1      31.903  17.620   8.462  0.00  0.00     0.021 A 
HETATM   15  C   UNK N   1      30.705  17.351   7.792  0.00  0.00     0.037 A 
HETATM   16  C   UNK N   1      30.704  17.160   6.407  0.00  0.00     0.068 A 
HETATM   17  C   UNK N   1      31.894  17.232   5.696  0.00  0.00     0.074 A 
HETATM   18  C   UNK N   1      33.098  17.501   6.346  0.00  0.00     0.082 A 
BRANCH  16  19
HETATM   19  O   UNK N   1      29.554  16.908   5.763  0.00  0.00    -0.361 OA
HETATM   20  H   UNK N   1      29.412  16.069   5.369  0.00  0.00     0.217 HD
ENDBRANCH  16  19
BRANCH  18  21
HETATM   21  O   UNK N   1      34.217  17.557   5.609  0.00  0.00    -0.360 OA
HETATM   22  H   UNK N   1      34.351  16.954   4.905  0.00  0.00     0.217 HD
ENDBRANCH  18  21
ENDBRANCH   1  13
TORSDOF 6
ENDMDL
MODEL 6
REMARK VINA RESULT:      -6.5     12.574     14.557
REMARK  6 active torsions:
REMARK  status: ('A' for Active; 'I' for Inactive)
REMARK    1  A    between atoms: O_1  and  C_2 
REMARK    2  A    between atoms: C_5  and  C_8 
REMARK    3  A    between atoms: C_9  and  C_10 
REMARK    4  A    between atoms: C_10  and  C_12 
REMARK    5  A    between atoms: C_15  and  O_16 
REMARK    6  A    between atoms: C_18  and  O_19 
ROOT
HETATM    1  C   UNK N   1      34.260  18.007   8.324  0.00  0.00     0.184 C 
HETATM    2  O   UNK N   1      34.968  19.009   8.366  0.00  0.00    -0.287 OA
ENDROOT
BRANCH   1   3
HETATM    3  C   UNK N   1      32.842  18.117   7.984  0.00  0.00     0.056 C 
HETATM    4  C   UNK N   1      31.807  17.421   8.450  0.00  0.00     0.015 C 
BRANCH   4   5
HETATM    5  C   UNK N   1      30.477  17.724   7.882  0.00  0.00    -0.036 A 
HETATM    6  C   UNK N   1      30.122  17.267   6.608  0.00  0.00     0.014 A 
HETATM    7  C   UNK N   1      28.858  17.575   6.083  0.00  0.00     0.037 A 
HETATM    8  C   UNK N   1      27.952  18.341   6.827  0.00  0.00     0.065 A 
HETATM    9  C   UNK N   1      28.302  18.799   8.096  0.00  0.00     0.037 A 
HETATM   10  C   UNK N   1      29.554  18.492   8.619  0.00  0.00     0.014 A 
BRANCH   8  11
HETATM   11  O   UNK N   1      26.744  18.639   6.323  0.00  0.00    -0.361 OA
HETATM   12  H   UNK N   1      26.659  19.313   5.678  0.00  0.00     0.217 HD
ENDBRANCH   8  11
ENDBRANCH   4   5
ENDBRANCH   1   3
BRANCH   1  13
HETATM   13  C   UNK N   1      34.822  16.665   8.662  0.00  0.00     0.047 A 
HETATM   14  C   UNK N   1      34.964  15.704   7.653  0.00  0.00     0.021 A 
HETATM   15  C   UNK N   1      35.507  14.446   7.936  0.00  0.00     0.037 A 
HETATM   16  C   UNK N   1      35.913  14.134   9.237  0.00  0.00     0.068 A 
HETATM   17  C   UNK N   1      35.774  15.073  10.251  0.00  0.00     0.074 A 
HETATM   18  C   UNK N   1      35.236  16.332   9.988  0.00  0.00     0.082 A 
BRANCH  16  19
HETATM   19  O   UNK N   1      36.440  12.931   9.508  0.00  0.00    -0.361 OA
HETATM   20  H   UNK N   1      36.641  12.695  10.393  0.00  0.00     0.217 HD
ENDBRANCH  16  19
BRANCH  18  21
HETATM   21  O   UNK N   1      35.122  17.197  11.006  0.00  0.00    -0.360 OA
HETATM   22  H   UNK N   1      34.435  17.100  11.635  0.00  0.00     0.217 HD
ENDBRANCH  18  21
ENDBRANCH   1  13
TORSDOF 6
ENDMDL
MODEL 7
REMARK VINA RESULT:      -6.5     10.106     11.417
REMARK  6 active torsions:
REMARK  status: ('A' for Active; 'I' for Inactive)
REMARK    1  A    between atoms: O_1  and  C_2 
REMARK    2  A    between atoms: C_5  and  C_8 
REMARK    3  A    between atoms: C_9  and  C_10 
REMARK    4  A    between atoms: C_10  and  C_12 
REMARK    5  A    between atoms: C_15  and  O_16 
REMARK    6  A    between atoms: C_18  and  O_19 
ROOT
HETATM    1  C   UNK N   1      28.866  17.512   7.526  0.00  0.00     0.184 C 
HETATM    2  O   UNK N   1      28.397  16.951   8.512  0.00  0.00    -0.287 OA
ENDROOT
BRANCH   1   3
HETATM    3  C   UNK N   1      27.985  18.150   6.548  0.00  0.00     0.056 C 
HETATM    4  C   UNK N   1      27.270  17.597   5.572  0.00  0.00     0.015 C 
BRANCH   4   5
HETATM    5  C   UNK N   1      26.498  18.507   4.700  0.00  0.00    -0.036 A 
HETATM    6  C   UNK N   1      27.127  19.566   4.036  0.00  0.00     0.014 A 
HETATM    7  C   UNK N   1      26.374  20.425   3.222  0.00  0.00     0.037 A 
HETATM    8  C   UNK N   1      24.995  20.229   3.073  0.00  0.00     0.065 A 
HETATM    9  C   UNK N   1      24.365  19.175   3.733  0.00  0.00     0.037 A 
HETATM   10  C   UNK N   1      25.110  18.321   4.539  0.00  0.00     0.014 A 
BRANCH   8  11
HETATM   11  O   UNK N   1      24.274  21.052   2.297  0.00  0.00    -0.361 OA
HETATM   12  H   UNK N   1      24.418  21.977   2.334  0.00  0.00     0.217 HD
ENDBRANCH   8  11
ENDBRANCH   4   5
ENDBRANCH   1   3
BRANCH   1  13
HETATM   13  C   UNK N   1      30.340  17.515   7.284  0.00  0.00     0.047 A 
HETATM   14  C   UNK N   1      30.828  17.226   6.003  0.00  0.00     0.021 A 
HETATM   15  C   UNK N   1      32.202  17.242   5.741  0.00  0.00     0.037 A 
HETATM   16  C   UNK N   1      33.107  17.546   6.763  0.00  0.00     0.068 A 
HETATM   17  C   UNK N   1      32.641  17.827   8.041  0.00  0.00     0.074 A 
HETATM   18  C   UNK N   1      31.275  17.818   8.320  0.00  0.00     0.082 A 
BRANCH  16  19
HETATM   19  O   UNK N   1      34.425  17.567   6.512  0.00  0.00    -0.361 OA
HETATM   20  H   UNK N   1      34.945  16.805   6.673  0.00  0.00     0.217 HD
ENDBRANCH  16  19
BRANCH  18  21
HETATM   21  O   UNK N   1      30.883  18.095   9.572  0.00  0.00    -0.360 OA
HETATM   22  H   UNK N   1      30.332  17.498  10.039  0.00  0.00     0.217 HD
ENDBRANCH  18  21
ENDBRANCH   1  13
TORSDOF 6
ENDMDL
MODEL 8
REMARK VINA RESULT:      -6.4      9.971     13.109
REMARK  6 active torsions:
REMARK  status: ('A' for Active; 'I' for Inactive)
REMARK    1  A    between atoms: O_1  and  C_2 
REMARK    2  A    between atoms: C_5  and  C_8 
REMARK    3  A    between atoms: C_9  and  C_10 
REMARK    4  A    between atoms: C_10  and  C_12 
REMARK    5  A    between atoms: C_15  and  O_16 
REMARK    6  A    between atoms: C_18  and  O_19 
ROOT
HETATM    1  C   UNK N   1      27.319  17.405   5.958  0.00  0.00     0.184 C 
HETATM    2  O   UNK N   1      26.678  16.523   6.523  0.00  0.00    -0.287 OA
ENDROOT
BRANCH   1   3
HETATM    3  C   UNK N   1      28.746  17.574   6.233  0.00  0.00     0.056 C 
HETATM    4  C   UNK N   1      29.724  16.672   6.190  0.00  0.00     0.015 C 
BRANCH   4   5
HETATM    5  C   UNK N   1      31.079  17.127   6.569  0.00  0.00    -0.036 A 
HETATM    6  C   UNK N   1      32.124  17.114   5.638  0.00  0.00     0.014 A 
HETATM    7  C   UNK N   1      33.404  17.540   6.021  0.00  0.00     0.037 A 
HETATM    8  C   UNK N   1      33.642  17.973   7.332  0.00  0.00     0.065 A 
HETATM    9  C   UNK N   1      32.604  17.986   8.262  0.00  0.00     0.037 A 
HETATM   10  C   UNK N   1      31.333  17.567   7.883  0.00  0.00     0.014 A 
BRANCH   8  11
HETATM   11  O   UNK N   1      34.868  18.377   7.699  0.00  0.00    -0.361 OA
HETATM   12  H   UNK N   1      35.550  18.446   7.061  0.00  0.00     0.217 HD
ENDBRANCH   8  11
ENDBRANCH   4   5
ENDBRANCH   1   3
BRANCH   1  13
HETATM   13  C   UNK N   1      26.646  18.347   5.016  0.00  0.00     0.047 A 
HETATM   14  C   UNK N   1      27.411  19.299   4.329  0.00  0.00     0.021 A 
HETATM   15  C   UNK N   1      26.811  20.181   3.424  0.00  0.00     0.037 A 
HETATM   16  C   UNK N   1      25.433  20.122   3.197  0.00  0.00     0.068 A 
HETATM   17  C   UNK N   1      24.657  19.190   3.874  0.00  0.00     0.074 A 
HETATM   18  C   UNK N   1      25.238  18.302   4.779  0.00  0.00     0.082 A 
BRANCH  16  19
HETATM   19  O   UNK N   1      24.857  20.963   2.325  0.00  0.00    -0.361 OA
HETATM   20  H   UNK N   1      24.642  20.669   1.461  0.00  0.00     0.217 HD
ENDBRANCH  16  19
BRANCH  18  21
HETATM   21  O   UNK N   1      24.440  17.425   5.406  0.00  0.00    -0.360 OA
HETATM   22  H   UNK N   1      23.577  17.257   5.085  0.00  0.00     0.217 HD
ENDBRANCH  18  21
ENDBRANCH   1  13
TORSDOF 6
ENDMDL
MODEL 9
REMARK VINA RESULT:      -6.4     15.759     17.793
REMARK  6 active torsions:
REMARK  status: ('A' for Active; 'I' for Inactive)
REMARK    1  A    between atoms: O_1  and  C_2 
REMARK    2  A    between atoms: C_5  and  C_8 
REMARK    3  A    between atoms: C_9  and  C_10 
REMARK    4  A    between atoms: C_10  and  C_12 
REMARK    5  A    between atoms: C_15  and  O_16 
REMARK    6  A    between atoms: C_18  and  O_19 
ROOT
HETATM    1  C   UNK N   1      19.880  15.808   7.898  0.00  0.00     0.184 C 
HETATM    2  O   UNK N   1      18.832  16.109   8.465  0.00  0.00    -0.287 OA
ENDROOT
BRANCH   1   3
HETATM    3  C   UNK N   1      20.903  15.033   8.599  0.00  0.00     0.056 C 
HETATM    4  C   UNK N   1      21.125  13.720   8.579  0.00  0.00     0.015 C 
BRANCH   4   5
HETATM    5  C   UNK N   1      22.216  13.207   9.435  0.00  0.00    -0.036 A 
HETATM    6  C   UNK N   1      23.551  13.298   9.026  0.00  0.00     0.014 A 
HETATM    7  C   UNK N   1      24.569  12.795   9.848  0.00  0.00     0.037 A 
HETATM    8  C   UNK N   1      24.255  12.198  11.076  0.00  0.00     0.065 A 
HETATM    9  C   UNK N   1      22.926  12.104  11.487  0.00  0.00     0.037 A 
HETATM   10  C   UNK N   1      21.915  12.605  10.673  0.00  0.00     0.014 A 
BRANCH   8  11
HETATM   11  O   UNK N   1      25.229  11.713  11.861  0.00  0.00    -0.361 OA
HETATM   12  H   UNK N   1      25.645  12.269  12.489  0.00  0.00     0.217 HD
ENDBRANCH   8  11
ENDBRANCH   4   5
ENDBRANCH   1   3
BRANCH   1  13
HETATM   13  C   UNK N   1      20.146  16.267   6.503  0.00  0.00     0.047 A 
HETATM   14  C   UNK N   1      21.411  16.771   6.173  0.00  0.00     0.021 A 
HETATM   15  C   UNK N   1      21.696  17.188   4.868  0.00  0.00     0.037 A 
HETATM   16  C   UNK N   1      20.715  17.107   3.876  0.00  0.00     0.068 A 
HETATM   17  C   UNK N   1      19.453  16.617   4.186  0.00  0.00     0.074 A 
HETATM   18  C   UNK N   1      19.150  16.196   5.481  0.00  0.00     0.082 A 
BRANCH  16  19
HETATM   19  O   UNK N   1      20.989  17.501   2.623  0.00  0.00    -0.361 OA
HETATM   20  H   UNK N   1      21.857  17.771   2.396  0.00  0.00     0.217 HD
ENDBRANCH  16  19
BRANCH  18  21
HETATM   21  O   UNK N   1      17.915  15.734   5.724  0.00  0.00    -0.360 OA
HETATM   22  H   UNK N   1      17.690  15.408   6.572  0.00  0.00     0.217 HD
ENDBRANCH  18  21
ENDBRANCH   1  13
TORSDOF 6
ENDMDL
