MODEL 1
REMARK VINA RESULT:      -6.3      0.000      0.000
REMARK  12 active torsions:
REMARK  status: ('A' for Active; 'I' for Inactive)
REMARK    1  A    between atoms: C_3  and  C_1 
REMARK    2  A    between atoms: O_13  and  C_1 
REMARK    3  A    between atoms: C_4  and  C_2 
REMARK    4  A    between atoms: O_14  and  C_2 
REMARK    5  A    between atoms: C_5  and  O_15 
REMARK    6  A    between atoms: C_6  and  O_16 
REMARK    7  A    between atoms: C_7  and  O_17 
REMARK    8  A    between atoms: C_8  and  O_18 
REMARK    9  A    between atoms: C_9  and  O_19 
REMARK   10  A    between atoms: C_10  and  S_23 
REMARK   11  A    between atoms: C_11  and  O_20 
REMARK   12  A    between atoms: C_12  and  S_23 
ROOT
HETATM    1  S   UNK N   1      34.349  14.504   8.359  0.00  0.00    -0.124 SA
ENDROOT
BRANCH   1   2
HETATM    2  C   UNK N   1      34.174  15.625   6.903  0.00  0.00     0.112 C 
HETATM    3  C   UNK N   1      33.786  17.100   7.162  0.00  0.00     0.164 C 
HETATM    4  O   UNK N   1      34.011  17.895   6.000  0.00  0.00    -0.350 OA
HETATM    5  C   UNK N   1      33.319  17.418   4.838  0.00  0.00     0.288 C 
HETATM    6  C   UNK N   1      33.644  15.948   4.525  0.00  0.00     0.203 C 
HETATM    7  C   UNK N   1      33.357  15.053   5.737  0.00  0.00     0.168 C 
BRANCH   3   8
HETATM    8  C   UNK N   1      32.359  17.293   7.679  0.00  0.00     0.197 C 
BRANCH   8   9
HETATM    9  O   UNK N   1      32.361  17.413   9.070  0.00  0.00    -0.398 OA
HETATM   10  H   UNK N   1      31.529  17.340   9.565  0.00  0.00     0.209 HD
ENDBRANCH   8   9
ENDBRANCH   3   8
BRANCH   5  11
HETATM   11  O   UNK N   1      31.944  17.622   4.962  0.00  0.00    -0.369 OA
HETATM   12  H   UNK N   1      30.999  17.486   5.133  0.00  0.00     0.212 HD
ENDBRANCH   5  11
BRANCH   6  13
HETATM   13  O   UNK N   1      32.912  15.517   3.410  0.00  0.00    -0.388 OA
HETATM   14  H   UNK N   1      33.116  15.501   2.462  0.00  0.00     0.210 HD
ENDBRANCH   6  13
BRANCH   7  15
HETATM   15  O   UNK N   1      33.759  13.745   5.456  0.00  0.00    -0.392 OA
HETATM   16  H   UNK N   1      34.596  13.397   5.801  0.00  0.00     0.210 HD
ENDBRANCH   7  15
ENDBRANCH   1   2
BRANCH   1  17
HETATM   17  C   UNK N   1      35.116  15.464   9.741  0.00  0.00     0.215 C 
HETATM   18  C   UNK N   1      34.510  15.009  11.092  0.00  0.00     0.188 C 
HETATM   19  C   UNK N   1      34.930  13.556  11.382  0.00  0.00     0.181 C 
HETATM   20  C   UNK N   1      36.460  13.469  11.364  0.00  0.00     0.180 C 
HETATM   21  C   UNK N   1      36.973  14.020  10.015  0.00  0.00     0.178 C 
HETATM   22  O   UNK N   1      36.534  15.354   9.790  0.00  0.00    -0.363 OA
BRANCH  18  23
HETATM   23  O   UNK N   1      33.116  15.115  11.067  0.00  0.00    -0.389 OA
HETATM   24  H   UNK N   1      32.685  15.929  11.374  0.00  0.00     0.210 HD
ENDBRANCH  18  23
BRANCH  19  25
HETATM   25  O   UNK N   1      34.436  13.138  12.620  0.00  0.00    -0.390 OA
HETATM   26  H   UNK N   1      34.709  13.592  13.433  0.00  0.00     0.210 HD
ENDBRANCH  19  25
BRANCH  20  27
HETATM   27  O   UNK N   1      36.985  14.210  12.429  0.00  0.00    -0.390 OA
HETATM   28  H   UNK N   1      36.809  14.922  13.064  0.00  0.00     0.210 HD
ENDBRANCH  20  27
BRANCH  21  29
HETATM   29  C   UNK N   1      38.499  13.978   9.932  0.00  0.00     0.198 C 
BRANCH  29  30
HETATM   30  O   UNK N   1      39.042  13.184  10.946  0.00  0.00    -0.398 OA
HETATM   31  H   UNK N   1      38.915  12.549  11.668  0.00  0.00     0.209 HD
ENDBRANCH  29  30
ENDBRANCH  21  29
ENDBRANCH   1  17
TORSDOF 12
ENDMDL
MODEL 2
REMARK VINA RESULT:      -6.0     12.049     15.406
REMARK  12 active torsions:
REMARK  status: ('A' for Active; 'I' for Inactive)
REMARK    1  A    between atoms: C_3  and  C_1 
REMARK    2  A    between atoms: O_13  and  C_1 
REMARK    3  A    between atoms: C_4  and  C_2 
REMARK    4  A    between atoms: O_14  and  C_2 
REMARK    5  A    between atoms: C_5  and  O_15 
REMARK    6  A    between atoms: C_6  and  O_16 
REMARK    7  A    between atoms: C_7  and  O_17 
REMARK    8  A    between atoms: C_8  and  O_18 
REMARK    9  A    between atoms: C_9  and  O_19 
REMARK   10  A    between atoms: C_10  and  S_23 
REMARK   11  A    between atoms: C_11  and  O_20 
REMARK   12  A    between atoms: C_12  and  S_23 
ROOT
HETATM    1  S   UNK N   1      21.052  17.297   5.519  0.00  0.00    -0.124 SA
ENDROOT
BRANCH   1   2
HETATM    2  C   UNK N   1      21.292  15.641   6.300  0.00  0.00     0.112 C 
HETATM    3  C   UNK N   1      20.178  15.107   7.231  0.00  0.00     0.164 C 
HETATM    4  O   UNK N   1      20.353  13.715   7.483  0.00  0.00    -0.350 OA
HETATM    5  C   UNK N   1      21.634  13.391   8.039  0.00  0.00     0.288 C 
HETATM    6  C   UNK N   1      22.796  13.905   7.173  0.00  0.00     0.203 C 
HETATM    7  C   UNK N   1      22.672  15.414   6.929  0.00  0.00     0.168 C 
BRANCH   3   8
HETATM    8  C   UNK N   1      20.034  15.879   8.544  0.00  0.00     0.197 C 
BRANCH   8   9
HETATM    9  O   UNK N   1      19.040  15.302   9.338  0.00  0.00    -0.398 OA
HETATM   10  H   UNK N   1      18.797  14.371   9.209  0.00  0.00     0.209 HD
ENDBRANCH   8   9
ENDBRANCH   3   8
BRANCH   5  11
HETATM   11  O   UNK N   1      21.734  13.850   9.353  0.00  0.00    -0.369 OA
HETATM   12  H   UNK N   1      21.979  13.938  10.288  0.00  0.00     0.212 HD
ENDBRANCH   5  11
BRANCH   6  13
HETATM   13  O   UNK N   1      24.023  13.602   7.779  0.00  0.00    -0.388 OA
HETATM   14  H   UNK N   1      24.422  13.878   8.619  0.00  0.00     0.210 HD
ENDBRANCH   6  13
BRANCH   7  15
HETATM   15  O   UNK N   1      23.681  15.830   6.057  0.00  0.00    -0.392 OA
HETATM   16  H   UNK N   1      23.732  15.480   5.153  0.00  0.00     0.210 HD
ENDBRANCH   7  15
ENDBRANCH   1   2
BRANCH   1  17
HETATM   17  C   UNK N   1      21.409  17.142   3.711  0.00  0.00     0.215 C 
HETATM   18  C   UNK N   1      20.080  17.153   2.914  0.00  0.00     0.188 C 
HETATM   19  C   UNK N   1      19.417  18.538   3.037  0.00  0.00     0.181 C 
HETATM   20  C   UNK N   1      20.404  19.606   2.551  0.00  0.00     0.180 C 
HETATM   21  C   UNK N   1      21.722  19.461   3.344  0.00  0.00     0.178 C 
HETATM   22  O   UNK N   1      22.274  18.157   3.214  0.00  0.00    -0.363 OA
BRANCH  18  23
HETATM   23  O   UNK N   1      19.217  16.159   3.383  0.00  0.00    -0.389 OA
HETATM   24  H   UNK N   1      19.577  15.336   3.749  0.00  0.00     0.210 HD
ENDBRANCH  18  23
BRANCH  19  25
HETATM   25  O   UNK N   1      18.241  18.589   2.286  0.00  0.00    -0.390 OA
HETATM   26  H   UNK N   1      17.697  19.393   2.283  0.00  0.00     0.210 HD
ENDBRANCH  19  25
BRANCH  20  27
HETATM   27  O   UNK N   1      20.635  19.442   1.180  0.00  0.00    -0.390 OA
HETATM   28  H   UNK N   1      20.220  19.398   0.304  0.00  0.00     0.210 HD
ENDBRANCH  20  27
BRANCH  21  29
HETATM   29  C   UNK N   1      22.763  20.489   2.900  0.00  0.00     0.198 C 
BRANCH  29  30
HETATM   30  O   UNK N   1      22.184  21.744   2.695  0.00  0.00    -0.398 OA
HETATM   31  H   UNK N   1      21.406  22.279   2.473  0.00  0.00     0.209 HD
ENDBRANCH  29  30
ENDBRANCH  21  29
ENDBRANCH   1  17
TORSDOF 12
ENDMDL
MODEL 3
REMARK VINA RESULT:      -6.0     13.343     14.940
REMARK  12 active torsions:
REMARK  status: ('A' for Active; 'I' for Inactive)
REMARK    1  A    between atoms: C_3  and  C_1 
REMARK    2  A    between atoms: O_13  and  C_1 
REMARK    3  A    between atoms: C_4  and  C_2 
REMARK    4  A    between atoms: O_14  and  C_2 
REMARK    5  A    between atoms: C_5  and  O_15 
REMARK    6  A    between atoms: C_6  and  O_16 
REMARK    7  A    between atoms: C_7  and  O_17 
REMARK    8  A    between atoms: C_8  and  O_18 
REMARK    9  A    between atoms: C_9  and  O_19 
REMARK   10  A    between atoms: C_10  and  S_23 
REMARK   11  A    between atoms: C_11  and  O_20 
REMARK   12  A    between atoms: C_12  and  S_23 
ROOT
HETATM    1  S   UNK N   1      21.440  16.319   4.841  0.00  0.00    -0.124 SA
ENDROOT
BRANCH   1   2
HETATM    2  C   UNK N   1      20.923  17.888   4.017  0.00  0.00     0.112 C 
HETATM    3  C   UNK N   1      19.768  17.824   2.990  0.00  0.00     0.164 C 
HETATM    4  O   UNK N   1      19.276  19.129   2.697  0.00  0.00    -0.350 OA
HETATM    5  C   UNK N   1      20.287  20.028   2.222  0.00  0.00     0.288 C 
HETATM    6  C   UNK N   1      21.480  20.133   3.187  0.00  0.00     0.203 C 
HETATM    7  C   UNK N   1      22.073  18.749   3.479  0.00  0.00     0.168 C 
BRANCH   3   8
HETATM    8  C   UNK N   1      20.116  17.077   1.700  0.00  0.00     0.197 C 
BRANCH   8   9
HETATM    9  O   UNK N   1      19.050  17.144   0.800  0.00  0.00    -0.398 OA
HETATM   10  H   UNK N   1      18.874  17.967   0.317  0.00  0.00     0.209 HD
ENDBRANCH   8   9
ENDBRANCH   3   8
BRANCH   5  11
HETATM   11  O   UNK N   1      20.701  19.673   0.937  0.00  0.00    -0.369 OA
HETATM   12  H   UNK N   1      20.707  19.475  -0.013  0.00  0.00     0.212 HD
ENDBRANCH   5  11
BRANCH   6  13
HETATM   13  O   UNK N   1      22.457  20.987   2.658  0.00  0.00    -0.388 OA
HETATM   14  H   UNK N   1      22.519  21.467   1.818  0.00  0.00     0.210 HD
ENDBRANCH   6  13
BRANCH   7  15
HETATM   15  O   UNK N   1      23.083  18.867   4.436  0.00  0.00    -0.392 OA
HETATM   16  H   UNK N   1      23.316  19.731   4.809  0.00  0.00     0.210 HD
ENDBRANCH   7  15
ENDBRANCH   1   2
BRANCH   1  17
HETATM   17  C   UNK N   1      19.970  15.608   5.708  0.00  0.00     0.215 C 
HETATM   18  C   UNK N   1      20.349  14.249   6.350  0.00  0.00     0.188 C 
HETATM   19  C   UNK N   1      21.364  14.480   7.485  0.00  0.00     0.181 C 
HETATM   20  C   UNK N   1      20.761  15.461   8.497  0.00  0.00     0.180 C 
HETATM   21  C   UNK N   1      20.340  16.747   7.751  0.00  0.00     0.178 C 
HETATM   22  O   UNK N   1      19.423  16.470   6.701  0.00  0.00    -0.363 OA
BRANCH  18  23
HETATM   23  O   UNK N   1      20.883  13.384   5.390  0.00  0.00    -0.389 OA
HETATM   24  H   UNK N   1      21.834  13.402   5.196  0.00  0.00     0.210 HD
ENDBRANCH  18  23
BRANCH  19  25
HETATM   25  O   UNK N   1      21.685  13.273   8.112  0.00  0.00    -0.390 OA
HETATM   26  H   UNK N   1      22.016  13.270   9.024  0.00  0.00     0.210 HD
ENDBRANCH  19  25
BRANCH  20  27
HETATM   27  O   UNK N   1      19.657  14.870   9.122  0.00  0.00    -0.390 OA
HETATM   28  H   UNK N   1      18.901  14.274   9.002  0.00  0.00     0.210 HD
ENDBRANCH  20  27
BRANCH  21  29
HETATM   29  C   UNK N   1      19.714  17.769   8.701  0.00  0.00     0.198 C 
BRANCH  29  30
HETATM   30  O   UNK N   1      20.249  19.044   8.501  0.00  0.00    -0.398 OA
HETATM   31  H   UNK N   1      20.329  19.841   7.952  0.00  0.00     0.209 HD
ENDBRANCH  29  30
ENDBRANCH  21  29
ENDBRANCH   1  17
TORSDOF 12
ENDMDL
MODEL 4
REMARK VINA RESULT:      -5.8     13.517     17.870
REMARK  12 active torsions:
REMARK  status: ('A' for Active; 'I' for Inactive)
REMARK    1  A    between atoms: C_3  and  C_1 
REMARK    2  A    between atoms: O_13  and  C_1 
REMARK    3  A    between atoms: C_4  and  C_2 
REMARK    4  A    between atoms: O_14  and  C_2 
REMARK    5  A    between atoms: C_5  and  O_15 
REMARK    6  A    between atoms: C_6  and  O_16 
REMARK    7  A    between atoms: C_7  and  O_17 
REMARK    8  A    between atoms: C_8  and  O_18 
REMARK    9  A    between atoms: C_9  and  O_19 
REMARK   10  A    between atoms: C_10  and  S_23 
REMARK   11  A    between atoms: C_11  and  O_20 
REMARK   12  A    between atoms: C_12  and  S_23 
ROOT
HETATM    1  S   UNK N   1      28.688  23.805  -3.961  0.00  0.00    -0.124 SA
ENDROOT
BRANCH   1   2
HETATM    2  C   UNK N   1      30.361  23.034  -4.080  0.00  0.00     0.112 C 
HETATM    3  C   UNK N   1      30.738  22.312  -5.395  0.00  0.00     0.164 C 
HETATM    4  O   UNK N   1      32.142  22.068  -5.454  0.00  0.00    -0.350 OA
HETATM    5  C   UNK N   1      32.639  21.317  -4.339  0.00  0.00     0.288 C 
HETATM    6  C   UNK N   1      32.288  21.967  -2.990  0.00  0.00     0.203 C 
HETATM    7  C   UNK N   1      30.776  22.192  -2.867  0.00  0.00     0.168 C 
BRANCH   3   8
HETATM    8  C   UNK N   1      29.955  21.023  -5.650  0.00  0.00     0.197 C 
BRANCH   8   9
HETATM    9  O   UNK N   1      29.076  21.195  -6.721  0.00  0.00    -0.398 OA
HETATM   10  H   UNK N   1      28.123  21.068  -6.592  0.00  0.00     0.209 HD
ENDBRANCH   8   9
ENDBRANCH   3   8
BRANCH   5  11
HETATM   11  O   UNK N   1      32.199  19.994  -4.397  0.00  0.00    -0.369 OA
HETATM   12  H   UNK N   1      31.633  19.206  -4.435  0.00  0.00     0.212 HD
ENDBRANCH   5  11
BRANCH   6  13
HETATM   13  O   UNK N   1      32.757  21.175  -1.934  0.00  0.00    -0.388 OA
HETATM   14  H   UNK N   1      32.510  20.291  -1.621  0.00  0.00     0.210 HD
ENDBRANCH   6  13
BRANCH   7  15
HETATM   15  O   UNK N   1      30.502  22.877  -1.680  0.00  0.00    -0.392 OA
HETATM   16  H   UNK N   1      30.590  22.437  -0.820  0.00  0.00     0.210 HD
ENDBRANCH   7  15
ENDBRANCH   1   2
BRANCH   1  17
HETATM   17  C   UNK N   1      28.633  25.253  -5.109  0.00  0.00     0.215 C 
HETATM   18  C   UNK N   1      27.648  24.962  -6.269  0.00  0.00     0.188 C 
HETATM   19  C   UNK N   1      26.212  24.881  -5.718  0.00  0.00     0.181 C 
HETATM   20  C   UNK N   1      25.888  26.187  -4.983  0.00  0.00     0.180 C 
HETATM   21  C   UNK N   1      26.968  26.432  -3.906  0.00  0.00     0.178 C 
HETATM   22  O   UNK N   1      28.273  26.472  -4.469  0.00  0.00    -0.363 OA
BRANCH  18  23
HETATM   23  O   UNK N   1      27.987  23.770  -6.916  0.00  0.00    -0.389 OA
HETATM   24  H   UNK N   1      28.571  23.130  -6.479  0.00  0.00     0.210 HD
ENDBRANCH  18  23
BRANCH  19  25
HETATM   25  O   UNK N   1      25.298  24.668  -6.752  0.00  0.00    -0.390 OA
HETATM   26  H   UNK N   1      25.277  25.266  -7.516  0.00  0.00     0.210 HD
ENDBRANCH  19  25
BRANCH  20  27
HETATM   27  O   UNK N   1      25.858  27.245  -5.899  0.00  0.00    -0.390 OA
HETATM   28  H   UNK N   1      25.285  27.810  -6.442  0.00  0.00     0.210 HD
ENDBRANCH  20  27
BRANCH  21  29
HETATM   29  C   UNK N   1      26.716  27.731  -3.140  0.00  0.00     0.198 C 
BRANCH  29  30
HETATM   30  O   UNK N   1      25.374  28.112  -3.212  0.00  0.00    -0.398 OA
HETATM   31  H   UNK N   1      24.587  28.485  -2.784  0.00  0.00     0.209 HD
ENDBRANCH  29  30
ENDBRANCH  21  29
ENDBRANCH   1  17
TORSDOF 12
ENDMDL
MODEL 5
REMARK VINA RESULT:      -5.8     13.109     15.621
REMARK  12 active torsions:
REMARK  status: ('A' for Active; 'I' for Inactive)
REMARK    1  A    between atoms: C_3  and  C_1 
REMARK    2  A    between atoms: O_13  and  C_1 
REMARK    3  A    between atoms: C_4  and  C_2 
REMARK    4  A    between atoms: O_14  and  C_2 
REMARK    5  A    between atoms: C_5  and  O_15 
REMARK    6  A    between atoms: C_6  and  O_16 
REMARK    7  A    between atoms: C_7  and  O_17 
REMARK    8  A    between atoms: C_8  and  O_18 
REMARK    9  A    between atoms: C_9  and  O_19 
REMARK   10  A    between atoms: C_10  and  S_23 
REMARK   11  A    between atoms: C_11  and  O_20 
REMARK   12  A    between atoms: C_12  and  S_23 
ROOT
HETATM    1  S   UNK N   1      20.916  17.327   5.601  0.00  0.00    -0.124 SA
ENDROOT
BRANCH   1   2
HETATM    2  C   UNK N   1      21.550  15.851   6.512  0.00  0.00     0.112 C 
HETATM    3  C   UNK N   1      21.740  14.535   5.722  0.00  0.00     0.164 C 
HETATM    4  O   UNK N   1      22.529  13.608   6.464  0.00  0.00    -0.350 OA
HETATM    5  C   UNK N   1      21.995  13.312   7.760  0.00  0.00     0.288 C 
HETATM    6  C   UNK N   1      21.763  14.578   8.603  0.00  0.00     0.203 C 
HETATM    7  C   UNK N   1      20.868  15.576   7.858  0.00  0.00     0.168 C 
BRANCH   3   8
HETATM    8  C   UNK N   1      20.433  13.884   5.262  0.00  0.00     0.197 C 
BRANCH   8   9
HETATM    9  O   UNK N   1      20.480  13.623   3.891  0.00  0.00    -0.398 OA
HETATM   10  H   UNK N   1      20.749  14.321   3.273  0.00  0.00     0.209 HD
ENDBRANCH   8   9
ENDBRANCH   3   8
BRANCH   5  11
HETATM   11  O   UNK N   1      20.830  12.550   7.655  0.00  0.00    -0.369 OA
HETATM   12  H   UNK N   1      20.215  11.803   7.583  0.00  0.00     0.212 HD
ENDBRANCH   5  11
BRANCH   6  13
HETATM   13  O   UNK N   1      21.201  14.240   9.841  0.00  0.00    -0.388 OA
HETATM   14  H   UNK N   1      21.257  13.440  10.387  0.00  0.00     0.210 HD
ENDBRANCH   6  13
BRANCH   7  15
HETATM   15  O   UNK N   1      20.763  16.753   8.602  0.00  0.00    -0.392 OA
HETATM   16  H   UNK N   1      21.012  16.773   9.539  0.00  0.00     0.210 HD
ENDBRANCH   7  15
ENDBRANCH   1   2
BRANCH   1  17
HETATM   17  C   UNK N   1      21.323  17.122   3.810  0.00  0.00     0.215 C 
HETATM   18  C   UNK N   1      20.020  17.141   2.972  0.00  0.00     0.188 C 
HETATM   19  C   UNK N   1      19.382  18.542   3.042  0.00  0.00     0.181 C 
HETATM   20  C   UNK N   1      20.406  19.577   2.562  0.00  0.00     0.180 C 
HETATM   21  C   UNK N   1      21.696  19.424   3.399  0.00  0.00     0.178 C 
HETATM   22  O   UNK N   1      22.224  18.107   3.315  0.00  0.00    -0.363 OA
BRANCH  18  23
HETATM   23  O   UNK N   1      19.122  16.176   3.437  0.00  0.00    -0.389 OA
HETATM   24  H   UNK N   1      18.775  16.232   4.342  0.00  0.00     0.210 HD
ENDBRANCH  18  23
BRANCH  19  25
HETATM   25  O   UNK N   1      18.230  18.599   2.255  0.00  0.00    -0.390 OA
HETATM   26  H   UNK N   1      18.226  19.115   1.433  0.00  0.00     0.210 HD
ENDBRANCH  19  25
BRANCH  20  27
HETATM   27  O   UNK N   1      20.674  19.376   1.203  0.00  0.00    -0.390 OA
HETATM   28  H   UNK N   1      20.576  19.744   0.311  0.00  0.00     0.210 HD
ENDBRANCH  20  27
BRANCH  21  29
HETATM   29  C   UNK N   1      22.772  20.420   2.962  0.00  0.00     0.198 C 
BRANCH  29  30
HETATM   30  O   UNK N   1      22.224  21.679   2.703  0.00  0.00    -0.398 OA
HETATM   31  H   UNK N   1      21.455  22.270   2.691  0.00  0.00     0.209 HD
ENDBRANCH  29  30
ENDBRANCH  21  29
ENDBRANCH   1  17
TORSDOF 12
ENDMDL
MODEL 6
REMARK VINA RESULT:      -5.6      1.341      6.675
REMARK  12 active torsions:
REMARK  status: ('A' for Active; 'I' for Inactive)
REMARK    1  A    between atoms: C_3  and  C_1 
REMARK    2  A    between atoms: O_13  and  C_1 
REMARK    3  A    between atoms: C_4  and  C_2 
REMARK    4  A    between atoms: O_14  and  C_2 
REMARK    5  A    between atoms: C_5  and  O_15 
REMARK    6  A    between atoms: C_6  and  O_16 
REMARK    7  A    between atoms: C_7  and  O_17 
REMARK    8  A    between atoms: C_8  and  O_18 
REMARK    9  A    between atoms: C_9  and  O_19 
REMARK   10  A    between atoms: C_10  and  S_23 
REMARK   11  A    between atoms: C_11  and  O_20 
REMARK   12  A    between atoms: C_12  and  S_23 
ROOT
HETATM    1  S   UNK N   1      34.478  13.651   8.014  0.00  0.00    -0.124 SA
ENDROOT
BRANCH   1   2
HETATM    2  C   UNK N   1      35.481  13.179   9.491  0.00  0.00     0.112 C 
HETATM    3  C   UNK N   1      34.809  13.258  10.882  0.00  0.00     0.164 C 
HETATM    4  O   UNK N   1      35.582  12.564  11.858  0.00  0.00    -0.350 OA
HETATM    5  C   UNK N   1      36.934  13.032  11.955  0.00  0.00     0.288 C 
HETATM    6  C   UNK N   1      37.665  12.997  10.603  0.00  0.00     0.203 C 
HETATM    7  C   UNK N   1      36.889  13.786   9.540  0.00  0.00     0.168 C 
BRANCH   3   8
HETATM    8  C   UNK N   1      34.501  14.682  11.351  0.00  0.00     0.197 C 
BRANCH   8   9
HETATM    9  O   UNK N   1      33.173  15.008  11.065  0.00  0.00    -0.398 OA
HETATM   10  H   UNK N   1      32.969  15.814  10.565  0.00  0.00     0.209 HD
ENDBRANCH   8   9
ENDBRANCH   3   8
BRANCH   5  11
HETATM   11  O   UNK N   1      36.978  14.304  12.527  0.00  0.00    -0.369 OA
HETATM   12  H   UNK N   1      36.999  15.031  13.169  0.00  0.00     0.212 HD
ENDBRANCH   5  11
BRANCH   6  13
HETATM   13  O   UNK N   1      38.965  13.503  10.741  0.00  0.00    -0.388 OA
HETATM   14  H   UNK N   1      39.389  14.310  10.411  0.00  0.00     0.210 HD
ENDBRANCH   6  13
BRANCH   7  15
HETATM   15  O   UNK N   1      37.523  13.649   8.303  0.00  0.00    -0.392 OA
HETATM   16  H   UNK N   1      37.671  14.419   7.732  0.00  0.00     0.210 HD
ENDBRANCH   7  15
ENDBRANCH   1   2
BRANCH   1  17
HETATM   17  C   UNK N   1      34.589  15.484   7.800  0.00  0.00     0.215 C 
HETATM   18  C   UNK N   1      34.875  15.820   6.314  0.00  0.00     0.188 C 
HETATM   19  C   UNK N   1      33.660  15.425   5.453  0.00  0.00     0.181 C 
HETATM   20  C   UNK N   1      32.417  16.145   5.991  0.00  0.00     0.180 C 
HETATM   21  C   UNK N   1      32.264  15.816   7.493  0.00  0.00     0.178 C 
HETATM   22  O   UNK N   1      33.424  16.178   8.231  0.00  0.00    -0.363 OA
BRANCH  18  23
HETATM   23  O   UNK N   1      36.020  15.151   5.870  0.00  0.00    -0.389 OA
HETATM   24  H   UNK N   1      35.946  14.452   5.202  0.00  0.00     0.210 HD
ENDBRANCH  18  23
BRANCH  19  25
HETATM   25  O   UNK N   1      33.873  15.763   4.115  0.00  0.00    -0.390 OA
HETATM   26  H   UNK N   1      34.649  15.421   3.643  0.00  0.00     0.210 HD
ENDBRANCH  19  25
BRANCH  20  27
HETATM   27  O   UNK N   1      32.555  17.524   5.801  0.00  0.00    -0.390 OA
HETATM   28  H   UNK N   1      33.187  18.256   5.724  0.00  0.00     0.210 HD
ENDBRANCH  20  27
BRANCH  21  29
HETATM   29  C   UNK N   1      31.048  16.515   8.102  0.00  0.00     0.198 C 
BRANCH  29  30
HETATM   30  O   UNK N   1      31.183  16.659   9.485  0.00  0.00    -0.398 OA
HETATM   31  H   UNK N   1      30.891  17.066  10.316  0.00  0.00     0.209 HD
ENDBRANCH  29  30
ENDBRANCH  21  29
ENDBRANCH   1  17
TORSDOF 12
ENDMDL
MODEL 7
REMARK VINA RESULT:      -5.6      2.104      3.611
REMARK  12 active torsions:
REMARK  status: ('A' for Active; 'I' for Inactive)
REMARK    1  A    between atoms: C_3  and  C_1 
REMARK    2  A    between atoms: O_13  and  C_1 
REMARK    3  A    between atoms: C_4  and  C_2 
REMARK    4  A    between atoms: O_14  and  C_2 
REMARK    5  A    between atoms: C_5  and  O_15 
REMARK    6  A    between atoms: C_6  and  O_16 
REMARK    7  A    between atoms: C_7  and  O_17 
REMARK    8  A    between atoms: C_8  and  O_18 
REMARK    9  A    between atoms: C_9  and  O_19 
REMARK   10  A    between atoms: C_10  and  S_23 
REMARK   11  A    between atoms: C_11  and  O_20 
REMARK   12  A    between atoms: C_12  and  S_23 
ROOT
HETATM    1  S   UNK N   1      34.084  14.593  10.506  0.00  0.00    -0.124 SA
ENDROOT
BRANCH   1   2
HETATM    2  C   UNK N   1      33.735  16.001   9.363  0.00  0.00     0.112 C 
HETATM    3  C   UNK N   1      33.089  15.684   7.994  0.00  0.00     0.164 C 
HETATM    4  O   UNK N   1      32.589  16.870   7.382  0.00  0.00    -0.350 OA
HETATM    5  C   UNK N   1      33.584  17.889   7.215  0.00  0.00     0.288 C 
HETATM    6  C   UNK N   1      34.284  18.249   8.537  0.00  0.00     0.203 C 
HETATM    7  C   UNK N   1      34.886  17.001   9.195  0.00  0.00     0.168 C 
BRANCH   3   8
HETATM    8  C   UNK N   1      34.002  14.923   7.030  0.00  0.00     0.197 C 
BRANCH   8   9
HETATM    9  O   UNK N   1      33.240  14.242   6.079  0.00  0.00    -0.398 OA
HETATM   10  H   UNK N   1      33.624  14.026   5.214  0.00  0.00     0.209 HD
ENDBRANCH   8   9
ENDBRANCH   3   8
BRANCH   5  11
HETATM   11  O   UNK N   1      34.506  17.525   6.232  0.00  0.00    -0.369 OA
HETATM   12  H   UNK N   1      35.300  17.485   5.676  0.00  0.00     0.212 HD
ENDBRANCH   5  11
BRANCH   6  13
HETATM   13  O   UNK N   1      35.274  19.215   8.313  0.00  0.00    -0.388 OA
HETATM   14  H   UNK N   1      35.969  19.581   8.882  0.00  0.00     0.210 HD
ENDBRANCH   6  13
BRANCH   7  15
HETATM   15  O   UNK N   1      35.421  17.343  10.439  0.00  0.00    -0.392 OA
HETATM   16  H   UNK N   1      35.002  17.042  11.261  0.00  0.00     0.210 HD
ENDBRANCH   7  15
ENDBRANCH   1   2
BRANCH   1  17
HETATM   17  C   UNK N   1      35.721  13.866  10.047  0.00  0.00     0.215 C 
HETATM   18  C   UNK N   1      36.705  14.002  11.236  0.00  0.00     0.188 C 
HETATM   19  C   UNK N   1      36.229  13.118  12.403  0.00  0.00     0.181 C 
HETATM   20  C   UNK N   1      36.099  11.673  11.909  0.00  0.00     0.180 C 
HETATM   21  C   UNK N   1      35.168  11.651  10.676  0.00  0.00     0.178 C 
HETATM   22  O   UNK N   1      35.644  12.503   9.643  0.00  0.00    -0.363 OA
BRANCH  18  23
HETATM   23  O   UNK N   1      36.800  15.336  11.645  0.00  0.00    -0.389 OA
HETATM   24  H   UNK N   1      37.287  15.562  12.453  0.00  0.00     0.210 HD
ENDBRANCH  18  23
BRANCH  19  25
HETATM   25  O   UNK N   1      37.127  13.186  13.471  0.00  0.00    -0.390 OA
HETATM   26  H   UNK N   1      37.041  13.886  14.138  0.00  0.00     0.210 HD
ENDBRANCH  19  25
BRANCH  20  27
HETATM   27  O   UNK N   1      37.364  11.174  11.579  0.00  0.00    -0.390 OA
HETATM   28  H   UNK N   1      38.320  11.336  11.630  0.00  0.00     0.210 HD
ENDBRANCH  20  27
BRANCH  21  29
HETATM   29  C   UNK N   1      35.004  10.237  10.119  0.00  0.00     0.198 C 
BRANCH  29  30
HETATM   30  O   UNK N   1      36.100   9.869   9.334  0.00  0.00    -0.398 OA
HETATM   31  H   UNK N   1      36.688  10.047   8.583  0.00  0.00     0.209 HD
ENDBRANCH  29  30
ENDBRANCH  21  29
ENDBRANCH   1  17
TORSDOF 12
ENDMDL
MODEL 8
REMARK VINA RESULT:      -5.6      1.403      2.246
REMARK  12 active torsions:
REMARK  status: ('A' for Active; 'I' for Inactive)
REMARK    1  A    between atoms: C_3  and  C_1 
REMARK    2  A    between atoms: O_13  and  C_1 
REMARK    3  A    between atoms: C_4  and  C_2 
REMARK    4  A    between atoms: O_14  and  C_2 
REMARK    5  A    between atoms: C_5  and  O_15 
REMARK    6  A    between atoms: C_6  and  O_16 
REMARK    7  A    between atoms: C_7  and  O_17 
REMARK    8  A    between atoms: C_8  and  O_18 
REMARK    9  A    between atoms: C_9  and  O_19 
REMARK   10  A    between atoms: C_10  and  S_23 
REMARK   11  A    between atoms: C_11  and  O_20 
REMARK   12  A    between atoms: C_12  and  S_23 
ROOT
HETATM    1  S   UNK N   1      33.945  14.300   8.367  0.00  0.00    -0.124 SA
ENDROOT
BRANCH   1   2
HETATM    2  C   UNK N   1      32.944  15.437   7.311  0.00  0.00     0.112 C 
HETATM    3  C   UNK N   1      31.624  14.900   6.710  0.00  0.00     0.164 C 
HETATM    4  O   UNK N   1      30.823  15.967   6.210  0.00  0.00    -0.350 OA
HETATM    5  C   UNK N   1      31.494  16.778   5.236  0.00  0.00     0.288 C 
HETATM    6  C   UNK N   1      32.828  17.338   5.758  0.00  0.00     0.203 C 
HETATM    7  C   UNK N   1      33.741  16.209   6.251  0.00  0.00     0.168 C 
BRANCH   3   8
HETATM    8  C   UNK N   1      31.815  13.821   5.641  0.00  0.00     0.197 C 
BRANCH   8   9
HETATM    9  O   UNK N   1      30.597  13.196   5.363  0.00  0.00    -0.398 OA
HETATM   10  H   UNK N   1      30.199  13.280   4.482  0.00  0.00     0.209 HD
ENDBRANCH   8   9
ENDBRANCH   3   8
BRANCH   5  11
HETATM   11  O   UNK N   1      31.668  16.076   4.042  0.00  0.00    -0.369 OA
HETATM   12  H   UNK N   1      31.575  15.427   3.326  0.00  0.00     0.212 HD
ENDBRANCH   5  11
BRANCH   6  13
HETATM   13  O   UNK N   1      33.464  18.085   4.757  0.00  0.00    -0.388 OA
HETATM   14  H   UNK N   1      33.992  18.898   4.786  0.00  0.00     0.210 HD
ENDBRANCH   6  13
BRANCH   7  15
HETATM   15  O   UNK N   1      34.897  16.757   6.813  0.00  0.00    -0.392 OA
HETATM   16  H   UNK N   1      34.884  17.639   7.216  0.00  0.00     0.210 HD
ENDBRANCH   7  15
ENDBRANCH   1   2
BRANCH   1  17
HETATM   17  C   UNK N   1      34.826  15.315   9.638  0.00  0.00     0.215 C 
HETATM   18  C   UNK N   1      34.337  14.917  11.053  0.00  0.00     0.188 C 
HETATM   19  C   UNK N   1      34.781  13.476  11.366  0.00  0.00     0.181 C 
HETATM   20  C   UNK N   1      36.305  13.384  11.222  0.00  0.00     0.180 C 
HETATM   21  C   UNK N   1      36.701  13.878   9.812  0.00  0.00     0.178 C 
HETATM   22  O   UNK N   1      36.243  15.202   9.571  0.00  0.00    -0.363 OA
BRANCH  18  23
HETATM   23  O   UNK N   1      32.946  15.025  11.142  0.00  0.00    -0.389 OA
HETATM   24  H   UNK N   1      32.531  15.899  11.215  0.00  0.00     0.210 HD
ENDBRANCH  18  23
BRANCH  19  25
HETATM   25  O   UNK N   1      34.395  13.110  12.657  0.00  0.00    -0.390 OA
HETATM   26  H   UNK N   1      34.148  13.790  13.304  0.00  0.00     0.210 HD
ENDBRANCH  19  25
BRANCH  20  27
HETATM   27  O   UNK N   1      36.917  14.167  12.207  0.00  0.00    -0.390 OA
HETATM   28  H   UNK N   1      37.642  14.784  12.395  0.00  0.00     0.210 HD
ENDBRANCH  20  27
BRANCH  21  29
HETATM   29  C   UNK N   1      38.215  13.829   9.602  0.00  0.00     0.198 C 
BRANCH  29  30
HETATM   30  O   UNK N   1      38.818  15.037   9.961  0.00  0.00    -0.398 OA
HETATM   31  H   UNK N   1      38.772  16.003  10.043  0.00  0.00     0.209 HD
ENDBRANCH  29  30
ENDBRANCH  21  29
ENDBRANCH   1  17
TORSDOF 12
ENDMDL
MODEL 9
REMARK VINA RESULT:      -5.5      1.975      2.630
REMARK  12 active torsions:
REMARK  status: ('A' for Active; 'I' for Inactive)
REMARK    1  A    between atoms: C_3  and  C_1 
REMARK    2  A    between atoms: O_13  and  C_1 
REMARK    3  A    between atoms: C_4  and  C_2 
REMARK    4  A    between atoms: O_14  and  C_2 
REMARK    5  A    between atoms: C_5  and  O_15 
REMARK    6  A    between atoms: C_6  and  O_16 
REMARK    7  A    between atoms: C_7  and  O_17 
REMARK    8  A    between atoms: C_8  and  O_18 
REMARK    9  A    between atoms: C_9  and  O_19 
REMARK   10  A    between atoms: C_10  and  S_23 
REMARK   11  A    between atoms: C_11  and  O_20 
REMARK   12  A    between atoms: C_12  and  S_23 
ROOT
HETATM    1  S   UNK N   1      34.256  14.719  10.000  0.00  0.00    -0.124 SA
ENDROOT
BRANCH   1   2
HETATM    2  C   UNK N   1      34.119  15.209   8.225  0.00  0.00     0.112 C 
HETATM    3  C   UNK N   1      34.840  16.500   7.769  0.00  0.00     0.164 C 
HETATM    4  O   UNK N   1      34.916  16.562   6.347  0.00  0.00    -0.350 OA
HETATM    5  C   UNK N   1      33.638  16.475   5.702  0.00  0.00     0.288 C 
HETATM    6  C   UNK N   1      32.853  15.221   6.119  0.00  0.00     0.203 C 
HETATM    7  C   UNK N   1      32.701  15.152   7.644  0.00  0.00     0.168 C 
BRANCH   3   8
HETATM    8  C   UNK N   1      34.237  17.788   8.333  0.00  0.00     0.197 C 
BRANCH   8   9
HETATM    9  O   UNK N   1      34.981  18.893   7.915  0.00  0.00    -0.398 OA
HETATM   10  H   UNK N   1      34.529  19.716   7.667  0.00  0.00     0.209 HD
ENDBRANCH   8   9
ENDBRANCH   3   8
BRANCH   5  11
HETATM   11  O   UNK N   1      32.895  17.637   5.917  0.00  0.00    -0.369 OA
HETATM   12  H   UNK N   1      32.639  18.544   6.150  0.00  0.00     0.212 HD
ENDBRANCH   5  11
BRANCH   6  13
HETATM   13  O   UNK N   1      31.598  15.205   5.496  0.00  0.00    -0.388 OA
HETATM   14  H   UNK N   1      31.037  15.912   5.140  0.00  0.00     0.210 HD
ENDBRANCH   6  13
BRANCH   7  15
HETATM   15  O   UNK N   1      32.077  13.952   7.996  0.00  0.00    -0.392 OA
HETATM   16  H   UNK N   1      32.076  13.196   7.389  0.00  0.00     0.210 HD
ENDBRANCH   7  15
ENDBRANCH   1   2
BRANCH   1  17
HETATM   17  C   UNK N   1      35.901  13.912  10.253  0.00  0.00     0.215 C 
HETATM   18  C   UNK N   1      36.716  14.706  11.304  0.00  0.00     0.188 C 
HETATM   19  C   UNK N   1      36.036  14.587  12.681  0.00  0.00     0.181 C 
HETATM   20  C   UNK N   1      35.901  13.102  13.040  0.00  0.00     0.180 C 
HETATM   21  C   UNK N   1      35.150  12.382  11.898  0.00  0.00     0.178 C 
HETATM   22  O   UNK N   1      35.809  12.548  10.649  0.00  0.00    -0.363 OA
BRANCH  18  23
HETATM   23  O   UNK N   1      36.823  16.050  10.932  0.00  0.00    -0.389 OA
HETATM   24  H   UNK N   1      37.608  16.561  11.181  0.00  0.00     0.210 HD
ENDBRANCH  18  23
BRANCH  19  25
HETATM   25  O   UNK N   1      36.779  15.255  13.657  0.00  0.00    -0.390 OA
HETATM   26  H   UNK N   1      36.606  15.093  14.598  0.00  0.00     0.210 HD
ENDBRANCH  19  25
BRANCH  20  27
HETATM   27  O   UNK N   1      37.172  12.546  13.222  0.00  0.00    -0.390 OA
HETATM   28  H   UNK N   1      37.836  11.944  12.850  0.00  0.00     0.210 HD
ENDBRANCH  20  27
BRANCH  21  29
HETATM   29  C   UNK N   1      34.991  10.888  12.182  0.00  0.00     0.198 C 
BRANCH  29  30
HETATM   30  O   UNK N   1      36.144  10.178  11.833  0.00  0.00    -0.398 OA
HETATM   31  H   UNK N   1      36.563   9.346  11.562  0.00  0.00     0.209 HD
ENDBRANCH  29  30
ENDBRANCH  21  29
ENDBRANCH   1  17
TORSDOF 12
ENDMDL
