REMARK  10 active torsions:
REMARK  status: ('A' for Active; 'I' for Inactive)
REMARK    1  A    between atoms: C_1  and  N_2 
REMARK    2  A    between atoms: C_7  and  C_12 
REMARK    3  A    between atoms: C_8  and  O_13 
REMARK    4  A    between atoms: C_12  and  O_16 
REMARK    5  A    between atoms: O_16  and  P_18 
REMARK    6  A    between atoms: P_18  and  O_19 
REMARK    7  A    between atoms: P_18  and  O_20 
REMARK    8  A    between atoms: O_19  and  P_22 
REMARK    9  A    between atoms: P_22  and  O_23 
REMARK   10  A    between atoms: P_22  and  O_24 
ROOT
HETATM    1  C   UNK N   1       1.836  -0.429  -0.473  0.00  0.00     0.235 C 
HETATM    2  O   UNK N   1       0.891  -0.167   0.528  0.00  0.00    -0.356 OA
HETATM    3  C   UNK N   1       1.879  -1.929  -0.641  0.00  0.00     0.088 C 
HETATM    4  C   UNK N   1      -0.158  -1.048   0.216  0.00  0.00     0.177 C 
HETATM    5  C   UNK N   1       0.443  -2.301  -0.398  0.00  0.00     0.153 C 
ENDROOT
BRANCH   4   6
HETATM    6  C   UNK N   1      -1.120  -0.376  -0.754  0.00  0.00     0.215 C 
BRANCH   6   7
HETATM    7  O   UNK N   1      -2.038   0.381  -0.018  0.00  0.00    -0.294 OA
BRANCH   7   8
HETATM    8  P   UNK N   1      -3.606  -0.099  -0.603  0.00  0.00     0.401 P 
HETATM    9  O   UNK N   1      -3.866   1.356  -0.125  0.00  0.00    -0.631 OA
BRANCH   8  10
HETATM   10  O   UNK N   1      -4.962  -0.299   0.468  0.00  0.00    -0.195 OA
BRANCH  10  11
HETATM   11  P   UNK N   1      -6.324  -0.611  -0.570  0.00  0.00     0.399 P 
HETATM   12  O   UNK N   1      -6.852   0.497   0.380  0.00  0.00    -0.631 OA
BRANCH  11  13
HETATM   13  O   UNK N   1      -5.954  -2.052   0.328  0.00  0.00    -0.307 OA
HETATM   14  H   UNK N   1      -6.547  -2.633   0.829  0.00  0.00     0.222 HD
ENDBRANCH  11  13
BRANCH  11  15
HETATM   15  O   UNK N   1      -7.767  -1.312   0.091  0.00  0.00    -0.307 OA
HETATM   16  H   UNK N   1      -8.510  -0.810   0.461  0.00  0.00     0.222 HD
ENDBRANCH  11  15
ENDBRANCH  10  11
ENDBRANCH   8  10
BRANCH   8  17
HETATM   17  O   UNK N   1      -3.229  -1.090   0.779  0.00  0.00    -0.307 OA
HETATM   18  H   UNK N   1      -3.602  -1.548   1.548  0.00  0.00     0.222 HD
ENDBRANCH   8  17
ENDBRANCH   7   8
ENDBRANCH   6   7
ENDBRANCH   4   6
BRANCH   5  19
HETATM   19  O   UNK N   1       0.394  -3.341   0.529  0.00  0.00    -0.393 OA
HETATM   20  H   UNK N   1      -0.250  -3.673   1.175  0.00  0.00     0.210 HD
ENDBRANCH   5  19
BRANCH   1  21
HETATM   21  N   UNK N   1       3.106   0.273  -0.215  0.00  0.00    -0.282 N 
HETATM   22  C   UNK N   1       4.335  -0.346  -0.022  0.00  0.00     0.331 A 
HETATM   23  N   UNK N   1       5.459   0.411   0.175  0.00  0.00    -0.275 N 
HETATM   24  O   UNK N   1       4.437  -1.560  -0.027  0.00  0.00    -0.246 OA
HETATM   25  C   UNK N   1       5.399   1.777   0.186  0.00  0.00     0.256 A 
HETATM   26  H   UNK N   1       6.326  -0.036   0.311  0.00  0.00     0.173 HD
HETATM   27  O   UNK N   1       6.416   2.426   0.356  0.00  0.00    -0.267 OA
HETATM   28  C   UNK N   1       4.172   2.413   0.001  0.00  0.00     0.022 A 
HETATM   29  C   UNK N   1       3.038   1.634  -0.199  0.00  0.00     0.110 A 
HETATM   30  C   UNK N   1       4.052   3.899   0.006  0.00  0.00     0.056 C 
ENDBRANCH   1  21
TORSDOF 10
