MODEL 1
REMARK VINA RESULT:      -6.3      0.000      0.000
REMARK  17 active torsions:
REMARK  status: ('A' for Active; 'I' for Inactive)
REMARK    1  A    between atoms: C_4  and  C_3 
REMARK    2  A    between atoms: C_5  and  C_3 
REMARK    3  A    between atoms: C_6  and  C_4 
REMARK    4  A    between atoms: C_7  and  C_5 
REMARK    5  A    between atoms: C_15  and  C_6 
REMARK    6  A    between atoms: C_16  and  C_7 
REMARK    7  A    between atoms: C_14  and  C_9 
REMARK    8  A    between atoms: N_20  and  C_9 
REMARK    9  A    between atoms: C_13  and  C_10 
REMARK   10  A    between atoms: O_28  and  C_10 
REMARK   11  A    between atoms: C_15  and  C_11 
REMARK   12  A    between atoms: N_20  and  C_11 
REMARK   13  A    between atoms: O_23  and  C_16 
REMARK   14  A    between atoms: O_24  and  C_17 
REMARK   15  A    between atoms: P_29  and  O_25 
REMARK   16  A    between atoms: P_29  and  O_26 
REMARK   17  A    between atoms: P_29  and  O_28 
ROOT
HETATM    1  C   UNK N   1      27.843  18.248   4.217  0.00  0.00     0.071 C 
HETATM    2  C   UNK N   1      24.553  19.853   3.514  0.00  0.00     0.098 A 
HETATM    3  C   UNK N   1      26.369  18.451   4.122  0.00  0.00     0.039 A 
HETATM    4  C   UNK N   1      23.633  18.893   3.935  0.00  0.00    -0.008 A 
HETATM    5  C   UNK N   1      24.100  17.672   4.454  0.00  0.00     0.004 A 
HETATM    6  C   UNK N   1      25.485  17.450   4.548  0.00  0.00     0.096 A 
HETATM    7  N   UNK N   1      25.888  19.616   3.616  0.00  0.00    -0.367 N 
ATOM      8  HN  UNK N   1      26.545  20.330   3.302  1.00  0.00     0.165 HD
ENDROOT
BRANCH   5   9
HETATM    9  C   UNK N   1      23.136  16.606   4.878  0.00  0.00     0.157 C 
BRANCH   9  10
HETATM   10  N   UNK N   1      22.963  16.606   6.330  0.00  0.00    -0.407 N 
HETATM   11  H   UNK N   1      23.726  16.559   7.004  0.00  0.00     0.154 HD
BRANCH  10  12
HETATM   12  C   UNK N   1      21.541  16.682   6.680  0.00  0.00     0.142 C 
HETATM   13  C   UNK N   1      20.659  16.473   5.446  0.00  0.00     0.040 C 
BRANCH  12  14
HETATM   14  C   UNK N   1      21.208  15.740   7.819  0.00  0.00     0.148 C 
HETATM   15  O   UNK N   1      20.180  15.909   8.457  0.00  0.00    -0.296 OA
BRANCH  14  16
HETATM   16  C   UNK N   1      22.102  14.586   8.161  0.00  0.00     0.080 C 
BRANCH  16  17
HETATM   17  C   UNK N   1      21.694  13.946   9.478  0.00  0.00     0.007 C 
BRANCH  17  18
HETATM   18  C   UNK N   1      21.627  12.432   9.330  0.00  0.00     0.001 C 
BRANCH  18  19
HETATM   19  C   UNK N   1      22.700  11.775  10.185  0.00  0.00     0.010 C 
BRANCH  19  20
HETATM   20  C   UNK N   1      22.403  11.965  11.665  0.00  0.00     0.110 C 
BRANCH  20  21
HETATM   21  C   UNK N   1      23.662  12.113  12.457  0.00  0.00     0.139 C 
HETATM   22  O   UNK N   1      23.611  12.144  13.675  0.00  0.00    -0.650 OA
BRANCH  21  23
HETATM   23  O   UNK N   1      24.851  12.199  11.832  0.00  0.00    -0.776 OA
HETATM   24  H   UNK N   1      25.253  11.454  11.430  0.00  0.00     0.167 HD
ENDBRANCH  21  23
ENDBRANCH  20  21
ENDBRANCH  19  20
ENDBRANCH  18  19
ENDBRANCH  17  18
ENDBRANCH  16  17
ENDBRANCH  14  16
ENDBRANCH  12  14
ENDBRANCH  10  12
ENDBRANCH   9  10
ENDBRANCH   5   9
BRANCH   4  25
HETATM   25  C   UNK N   1      22.175  19.208   3.839  0.00  0.00     0.221 C 
BRANCH  25  26
HETATM   26  O   UNK N   1      21.688  18.743   2.615  0.00  0.00    -0.292 OA
BRANCH  26  27
HETATM   27  P   UNK N   1      20.724  20.028   1.945  0.00  0.00     0.391 P 
HETATM   28  O   UNK N   1      19.274  19.821   2.455  0.00  0.00    -0.632 OA
BRANCH  27  29
HETATM   29  O   UNK N   1      21.248  21.573   2.537  0.00  0.00    -0.307 OA
HETATM   30  H   UNK N   1      21.932  22.065   3.018  0.00  0.00     0.222 HD
ENDBRANCH  27  29
BRANCH  27  31
HETATM   31  O   UNK N   1      20.666  20.020   0.208  0.00  0.00    -0.307 OA
HETATM   32  H   UNK N   1      20.388  19.538  -0.587  0.00  0.00     0.222 HD
ENDBRANCH  27  31
ENDBRANCH  26  27
ENDBRANCH  25  26
ENDBRANCH   4  25
BRANCH   6  33
HETATM   33  O   UNK N   1      25.960  16.293   5.041  0.00  0.00    -0.358 OA
HETATM   34  H   UNK N   1      26.689  16.298   5.629  0.00  0.00     0.217 HD
ENDBRANCH   6  33
TORSDOF 17
ENDMDL
MODEL 2
REMARK VINA RESULT:      -6.2      3.448      4.479
REMARK  17 active torsions:
REMARK  status: ('A' for Active; 'I' for Inactive)
REMARK    1  A    between atoms: C_4  and  C_3 
REMARK    2  A    between atoms: C_5  and  C_3 
REMARK    3  A    between atoms: C_6  and  C_4 
REMARK    4  A    between atoms: C_7  and  C_5 
REMARK    5  A    between atoms: C_15  and  C_6 
REMARK    6  A    between atoms: C_16  and  C_7 
REMARK    7  A    between atoms: C_14  and  C_9 
REMARK    8  A    between atoms: N_20  and  C_9 
REMARK    9  A    between atoms: C_13  and  C_10 
REMARK   10  A    between atoms: O_28  and  C_10 
REMARK   11  A    between atoms: C_15  and  C_11 
REMARK   12  A    between atoms: N_20  and  C_11 
REMARK   13  A    between atoms: O_23  and  C_16 
REMARK   14  A    between atoms: O_24  and  C_17 
REMARK   15  A    between atoms: P_29  and  O_25 
REMARK   16  A    between atoms: P_29  and  O_26 
REMARK   17  A    between atoms: P_29  and  O_28 
ROOT
HETATM    1  C   UNK N   1      20.706  20.756   1.981  0.00  0.00     0.071 C 
HETATM    2  C   UNK N   1      20.173  17.199   1.004  0.00  0.00     0.098 A 
HETATM    3  C   UNK N   1      20.629  19.270   2.070  0.00  0.00     0.039 A 
HETATM    4  C   UNK N   1      20.454  16.499   2.177  0.00  0.00    -0.008 A 
HETATM    5  C   UNK N   1      20.845  17.210   3.327  0.00  0.00     0.004 A 
HETATM    6  C   UNK N   1      20.933  18.613   3.270  0.00  0.00     0.096 A 
HETATM    7  N   UNK N   1      20.265  18.555   0.974  0.00  0.00    -0.367 N 
ATOM      8  HN  UNK N   1      20.056  19.048   0.106  1.00  0.00     0.165 HD
ENDROOT
BRANCH   5   9
HETATM    9  C   UNK N   1      21.191  16.485   4.591  0.00  0.00     0.157 C 
BRANCH   9  10
HETATM   10  N   UNK N   1      20.301  16.882   5.681  0.00  0.00    -0.407 N 
HETATM   11  H   UNK N   1      19.955  17.829   5.831  0.00  0.00     0.154 HD
BRANCH  10  12
HETATM   12  C   UNK N   1      19.975  15.729   6.527  0.00  0.00     0.142 C 
HETATM   13  C   UNK N   1      19.968  14.433   5.712  0.00  0.00     0.040 C 
BRANCH  12  14
HETATM   14  C   UNK N   1      20.883  15.668   7.739  0.00  0.00     0.148 C 
HETATM   15  O   UNK N   1      20.831  16.559   8.573  0.00  0.00    -0.296 OA
BRANCH  14  16
HETATM   16  C   UNK N   1      21.823  14.520   7.950  0.00  0.00     0.080 C 
BRANCH  16  17
HETATM   17  C   UNK N   1      21.980  14.202   9.429  0.00  0.00     0.007 C 
BRANCH  17  18
HETATM   18  C   UNK N   1      20.778  13.411   9.928  0.00  0.00     0.001 C 
BRANCH  18  19
HETATM   19  C   UNK N   1      21.212  12.420  10.998  0.00  0.00     0.010 C 
BRANCH  19  20
HETATM   20  C   UNK N   1      22.612  11.896  10.713  0.00  0.00     0.110 C 
BRANCH  20  21
HETATM   21  C   UNK N   1      23.487  12.002  11.920  0.00  0.00     0.139 C 
HETATM   22  O   UNK N   1      23.026  11.769  13.025  0.00  0.00    -0.650 OA
BRANCH  21  23
HETATM   23  O   UNK N   1      24.784  12.339  11.790  0.00  0.00    -0.776 OA
HETATM   24  H   UNK N   1      25.064  13.007  11.195  0.00  0.00     0.167 HD
ENDBRANCH  21  23
ENDBRANCH  20  21
ENDBRANCH  19  20
ENDBRANCH  18  19
ENDBRANCH  17  18
ENDBRANCH  16  17
ENDBRANCH  14  16
ENDBRANCH  12  14
ENDBRANCH  10  12
ENDBRANCH   9  10
ENDBRANCH   5   9
BRANCH   4  25
HETATM   25  C   UNK N   1      20.306  15.013   2.178  0.00  0.00     0.221 C 
BRANCH  25  26
HETATM   26  O   UNK N   1      20.142  14.571   0.863  0.00  0.00    -0.292 OA
BRANCH  26  27
HETATM   27  P   UNK N   1      18.709  13.582   0.847  0.00  0.00     0.391 P 
HETATM   28  O   UNK N   1      18.350  13.279   2.325  0.00  0.00    -0.632 OA
BRANCH  27  29
HETATM   29  O   UNK N   1      17.365  14.447   0.171  0.00  0.00    -0.307 OA
HETATM   30  H   UNK N   1      16.887  15.290   0.123  0.00  0.00     0.222 HD
ENDBRANCH  27  29
BRANCH  27  31
HETATM   31  O   UNK N   1      18.927  12.056   0.045  0.00  0.00    -0.307 OA
HETATM   32  H   UNK N   1      19.295  11.596  -0.726  0.00  0.00     0.222 HD
ENDBRANCH  27  31
ENDBRANCH  26  27
ENDBRANCH  25  26
ENDBRANCH   4  25
BRANCH   6  33
HETATM   33  O   UNK N   1      21.303  19.318   4.353  0.00  0.00    -0.358 OA
HETATM   34  H   UNK N   1      21.117  18.992   5.211  0.00  0.00     0.217 HD
ENDBRANCH   6  33
TORSDOF 17
ENDMDL
MODEL 3
REMARK VINA RESULT:      -6.1      3.493      7.142
REMARK  17 active torsions:
REMARK  status: ('A' for Active; 'I' for Inactive)
REMARK    1  A    between atoms: C_4  and  C_3 
REMARK    2  A    between atoms: C_5  and  C_3 
REMARK    3  A    between atoms: C_6  and  C_4 
REMARK    4  A    between atoms: C_7  and  C_5 
REMARK    5  A    between atoms: C_15  and  C_6 
REMARK    6  A    between atoms: C_16  and  C_7 
REMARK    7  A    between atoms: C_14  and  C_9 
REMARK    8  A    between atoms: N_20  and  C_9 
REMARK    9  A    between atoms: C_13  and  C_10 
REMARK   10  A    between atoms: O_28  and  C_10 
REMARK   11  A    between atoms: C_15  and  C_11 
REMARK   12  A    between atoms: N_20  and  C_11 
REMARK   13  A    between atoms: O_23  and  C_16 
REMARK   14  A    between atoms: O_24  and  C_17 
REMARK   15  A    between atoms: P_29  and  O_25 
REMARK   16  A    between atoms: P_29  and  O_26 
REMARK   17  A    between atoms: P_29  and  O_28 
ROOT
HETATM    1  C   UNK N   1      23.001  14.555   6.972  0.00  0.00     0.071 C 
HETATM    2  C   UNK N   1      21.549  17.343   4.969  0.00  0.00     0.098 A 
HETATM    3  C   UNK N   1      22.908  15.784   6.133  0.00  0.00     0.039 A 
HETATM    4  C   UNK N   1      22.671  18.060   4.558  0.00  0.00    -0.008 A 
HETATM    5  C   UNK N   1      23.949  17.629   4.959  0.00  0.00     0.004 A 
HETATM    6  C   UNK N   1      24.067  16.477   5.756  0.00  0.00     0.096 A 
HETATM    7  N   UNK N   1      21.688  16.231   5.739  0.00  0.00    -0.367 N 
ATOM      8  HN  UNK N   1      20.854  15.720   6.030  1.00  0.00     0.165 HD
ENDROOT
BRANCH   5   9
HETATM    9  C   UNK N   1      25.172  18.401   4.566  0.00  0.00     0.157 C 
BRANCH   9  10
HETATM   10  N   UNK N   1      25.737  19.105   5.716  0.00  0.00    -0.407 N 
HETATM   11  H   UNK N   1      25.199  19.427   6.520  0.00  0.00     0.154 HD
BRANCH  10  12
HETATM   12  C   UNK N   1      27.184  19.284   5.552  0.00  0.00     0.142 C 
HETATM   13  C   UNK N   1      27.611  20.700   5.947  0.00  0.00     0.040 C 
BRANCH  12  14
HETATM   14  C   UNK N   1      27.953  18.202   6.283  0.00  0.00     0.148 C 
HETATM   15  O   UNK N   1      28.137  17.124   5.738  0.00  0.00    -0.296 OA
BRANCH  14  16
HETATM   16  C   UNK N   1      28.517  18.437   7.652  0.00  0.00     0.080 C 
BRANCH  16  17
HETATM   17  C   UNK N   1      29.745  17.574   7.896  0.00  0.00     0.007 C 
BRANCH  17  18
HETATM   18  C   UNK N   1      30.723  18.296   8.813  0.00  0.00     0.001 C 
BRANCH  18  19
HETATM   19  C   UNK N   1      32.154  17.962   8.419  0.00  0.00     0.010 C 
BRANCH  19  20
HETATM   20  C   UNK N   1      32.197  17.304   7.048  0.00  0.00     0.110 C 
BRANCH  20  21
HETATM   21  C   UNK N   1      33.459  17.644   6.322  0.00  0.00     0.139 C 
HETATM   22  O   UNK N   1      33.424  17.878   5.125  0.00  0.00    -0.650 OA
BRANCH  21  23
HETATM   23  O   UNK N   1      34.629  17.705   6.986  0.00  0.00    -0.776 OA
HETATM   24  H   UNK N   1      34.775  18.326   7.672  0.00  0.00     0.167 HD
ENDBRANCH  21  23
ENDBRANCH  20  21
ENDBRANCH  19  20
ENDBRANCH  18  19
ENDBRANCH  17  18
ENDBRANCH  16  17
ENDBRANCH  14  16
ENDBRANCH  12  14
ENDBRANCH  10  12
ENDBRANCH   9  10
ENDBRANCH   5   9
BRANCH   4  25
HETATM   25  C   UNK N   1      22.477  19.255   3.683  0.00  0.00     0.221 C 
BRANCH  25  26
HETATM   26  O   UNK N   1      21.928  18.843   2.465  0.00  0.00    -0.292 OA
BRANCH  26  27
HETATM   27  P   UNK N   1      20.835  20.101   1.964  0.00  0.00     0.391 P 
HETATM   28  O   UNK N   1      19.462  19.798   2.619  0.00  0.00    -0.632 OA
BRANCH  27  29
HETATM   29  O   UNK N   1      21.348  21.647   2.564  0.00  0.00    -0.307 OA
HETATM   30  H   UNK N   1      21.082  22.482   2.980  0.00  0.00     0.222 HD
ENDBRANCH  27  29
BRANCH  27  31
HETATM   31  O   UNK N   1      20.585  20.160   0.245  0.00  0.00    -0.307 OA
HETATM   32  H   UNK N   1      19.950  20.054  -0.481  0.00  0.00     0.222 HD
ENDBRANCH  27  31
ENDBRANCH  26  27
ENDBRANCH  25  26
ENDBRANCH   4  25
BRANCH   6  33
HETATM   33  O   UNK N   1      25.275  16.041   6.154  0.00  0.00    -0.358 OA
HETATM   34  H   UNK N   1      25.828  16.597   6.667  0.00  0.00     0.217 HD
ENDBRANCH   6  33
TORSDOF 17
ENDMDL
MODEL 4
REMARK VINA RESULT:      -6.1      4.279      7.621
REMARK  17 active torsions:
REMARK  status: ('A' for Active; 'I' for Inactive)
REMARK    1  A    between atoms: C_4  and  C_3 
REMARK    2  A    between atoms: C_5  and  C_3 
REMARK    3  A    between atoms: C_6  and  C_4 
REMARK    4  A    between atoms: C_7  and  C_5 
REMARK    5  A    between atoms: C_15  and  C_6 
REMARK    6  A    between atoms: C_16  and  C_7 
REMARK    7  A    between atoms: C_14  and  C_9 
REMARK    8  A    between atoms: N_20  and  C_9 
REMARK    9  A    between atoms: C_13  and  C_10 
REMARK   10  A    between atoms: O_28  and  C_10 
REMARK   11  A    between atoms: C_15  and  C_11 
REMARK   12  A    between atoms: N_20  and  C_11 
REMARK   13  A    between atoms: O_23  and  C_16 
REMARK   14  A    between atoms: O_24  and  C_17 
REMARK   15  A    between atoms: P_29  and  O_25 
REMARK   16  A    between atoms: P_29  and  O_26 
REMARK   17  A    between atoms: P_29  and  O_28 
ROOT
HETATM    1  C   UNK N   1      20.615  20.729   1.256  0.00  0.00     0.071 C 
HETATM    2  C   UNK N   1      20.972  18.909   4.489  0.00  0.00     0.098 A 
HETATM    3  C   UNK N   1      20.649  19.615   2.247  0.00  0.00     0.039 A 
HETATM    4  C   UNK N   1      20.741  17.580   4.136  0.00  0.00    -0.008 A 
HETATM    5  C   UNK N   1      20.444  17.265   2.798  0.00  0.00     0.004 A 
HETATM    6  C   UNK N   1      20.398  18.296   1.843  0.00  0.00     0.096 A 
HETATM    7  N   UNK N   1      20.923  19.889   3.548  0.00  0.00    -0.367 N 
ATOM      8  HN  UNK N   1      21.095  20.855   3.827  1.00  0.00     0.165 HD
ENDROOT
BRANCH   5   9
HETATM    9  C   UNK N   1      20.153  15.852   2.394  0.00  0.00     0.157 C 
BRANCH   9  10
HETATM   10  N   UNK N   1      21.095  15.395   1.373  0.00  0.00    -0.407 N 
HETATM   11  H   UNK N   1      21.179  15.797   0.441  0.00  0.00     0.154 HD
BRANCH  10  12
HETATM   12  C   UNK N   1      21.903  14.280   1.879  0.00  0.00     0.142 C 
HETATM   13  C   UNK N   1      21.757  13.046   0.984  0.00  0.00     0.040 C 
BRANCH  12  14
HETATM   14  C   UNK N   1      23.344  14.701   2.087  0.00  0.00     0.148 C 
HETATM   15  O   UNK N   1      24.121  14.665   1.145  0.00  0.00    -0.296 OA
BRANCH  14  16
HETATM   16  C   UNK N   1      23.827  15.188   3.420  0.00  0.00     0.080 C 
BRANCH  16  17
HETATM   17  C   UNK N   1      24.086  16.686   3.396  0.00  0.00     0.007 C 
BRANCH  17  18
HETATM   18  C   UNK N   1      25.583  16.962   3.338  0.00  0.00     0.001 C 
BRANCH  18  19
HETATM   19  C   UNK N   1      25.854  18.437   3.594  0.00  0.00     0.010 C 
BRANCH  19  20
HETATM   20  C   UNK N   1      24.552  19.204   3.762  0.00  0.00     0.110 C 
BRANCH  20  21
HETATM   21  C   UNK N   1      24.565  20.475   2.976  0.00  0.00     0.139 C 
HETATM   22  O   UNK N   1      23.587  21.205   2.989  0.00  0.00    -0.650 OA
BRANCH  21  23
HETATM   23  O   UNK N   1      25.655  20.824   2.267  0.00  0.00    -0.776 OA
HETATM   24  H   UNK N   1      25.652  21.561   1.687  0.00  0.00     0.167 HD
ENDBRANCH  21  23
ENDBRANCH  20  21
ENDBRANCH  19  20
ENDBRANCH  18  19
ENDBRANCH  17  18
ENDBRANCH  16  17
ENDBRANCH  14  16
ENDBRANCH  12  14
ENDBRANCH  10  12
ENDBRANCH   9  10
ENDBRANCH   5   9
BRANCH   4  25
HETATM   25  C   UNK N   1      20.841  16.530   5.194  0.00  0.00     0.221 C 
BRANCH  25  26
HETATM   26  O   UNK N   1      21.422  17.087   6.336  0.00  0.00    -0.292 OA
BRANCH  26  27
HETATM   27  P   UNK N   1      20.349  16.735   7.660  0.00  0.00     0.391 P 
HETATM   28  O   UNK N   1      20.094  18.071   8.407  0.00  0.00    -0.632 OA
BRANCH  27  29
HETATM   29  O   UNK N   1      18.809  16.181   7.083  0.00  0.00    -0.307 OA
HETATM   30  H   UNK N   1      18.285  15.424   6.775  0.00  0.00     0.222 HD
ENDBRANCH  27  29
BRANCH  27  31
HETATM   31  O   UNK N   1      21.013  15.618   8.814  0.00  0.00    -0.307 OA
HETATM   32  H   UNK N   1      21.685  15.470   9.499  0.00  0.00     0.222 HD
ENDBRANCH  27  31
ENDBRANCH  26  27
ENDBRANCH  25  26
ENDBRANCH   4  25
BRANCH   6  33
HETATM   33  O   UNK N   1      20.118  18.025   0.556  0.00  0.00    -0.358 OA
HETATM   34  H   UNK N   1      19.281  17.674   0.323  0.00  0.00     0.217 HD
ENDBRANCH   6  33
TORSDOF 17
ENDMDL
MODEL 5
REMARK VINA RESULT:      -6.1      2.336      4.306
REMARK  17 active torsions:
REMARK  status: ('A' for Active; 'I' for Inactive)
REMARK    1  A    between atoms: C_4  and  C_3 
REMARK    2  A    between atoms: C_5  and  C_3 
REMARK    3  A    between atoms: C_6  and  C_4 
REMARK    4  A    between atoms: C_7  and  C_5 
REMARK    5  A    between atoms: C_15  and  C_6 
REMARK    6  A    between atoms: C_16  and  C_7 
REMARK    7  A    between atoms: C_14  and  C_9 
REMARK    8  A    between atoms: N_20  and  C_9 
REMARK    9  A    between atoms: C_13  and  C_10 
REMARK   10  A    between atoms: O_28  and  C_10 
REMARK   11  A    between atoms: C_15  and  C_11 
REMARK   12  A    between atoms: N_20  and  C_11 
REMARK   13  A    between atoms: O_23  and  C_16 
REMARK   14  A    between atoms: O_24  and  C_17 
REMARK   15  A    between atoms: P_29  and  O_25 
REMARK   16  A    between atoms: P_29  and  O_26 
REMARK   17  A    between atoms: P_29  and  O_28 
ROOT
HETATM    1  C   UNK N   1      20.978  20.924   2.068  0.00  0.00     0.071 C 
HETATM    2  C   UNK N   1      24.282  19.901   3.456  0.00  0.00     0.098 A 
HETATM    3  C   UNK N   1      22.009  20.160   2.827  0.00  0.00     0.039 A 
HETATM    4  C   UNK N   1      23.976  18.768   4.210  0.00  0.00    -0.008 A 
HETATM    5  C   UNK N   1      22.642  18.328   4.281  0.00  0.00     0.004 A 
HETATM    6  C   UNK N   1      21.647  19.034   3.580  0.00  0.00     0.096 A 
HETATM    7  N   UNK N   1      23.304  20.566   2.787  0.00  0.00    -0.367 N 
ATOM      8  HN  UNK N   1      23.548  21.392   2.241  1.00  0.00     0.165 HD
ENDROOT
BRANCH   5   9
HETATM    9  C   UNK N   1      22.275  17.138   5.114  0.00  0.00     0.157 C 
BRANCH   9  10
HETATM   10  N   UNK N   1      21.586  17.548   6.336  0.00  0.00    -0.407 N 
HETATM   11  H   UNK N   1      21.848  18.351   6.907  0.00  0.00     0.154 HD
BRANCH  10  12
HETATM   12  C   UNK N   1      20.468  16.645   6.627  0.00  0.00     0.142 C 
HETATM   13  C   UNK N   1      20.423  15.486   5.627  0.00  0.00     0.040 C 
BRANCH  12  14
HETATM   14  C   UNK N   1      20.498  16.187   8.071  0.00  0.00     0.148 C 
HETATM   15  O   UNK N   1      20.623  17.015   8.961  0.00  0.00    -0.296 OA
BRANCH  14  16
HETATM   16  C   UNK N   1      20.348  14.739   8.432  0.00  0.00     0.080 C 
BRANCH  16  17
HETATM   17  C   UNK N   1      21.402  14.312   9.441  0.00  0.00     0.007 C 
BRANCH  17  18
HETATM   18  C   UNK N   1      21.149  12.881   9.895  0.00  0.00     0.001 C 
BRANCH  18  19
HETATM   19  C   UNK N   1      22.157  12.484  10.962  0.00  0.00     0.010 C 
BRANCH  19  20
HETATM   20  C   UNK N   1      23.296  11.677  10.356  0.00  0.00     0.110 C 
BRANCH  20  21
HETATM   21  C   UNK N   1      24.549  12.488  10.268  0.00  0.00     0.139 C 
HETATM   22  O   UNK N   1      24.918  12.917   9.188  0.00  0.00    -0.650 OA
BRANCH  21  23
HETATM   23  O   UNK N   1      25.262  12.757  11.378  0.00  0.00    -0.776 OA
HETATM   24  H   UNK N   1      25.347  13.629  11.711  0.00  0.00     0.167 HD
ENDBRANCH  21  23
ENDBRANCH  20  21
ENDBRANCH  19  20
ENDBRANCH  18  19
ENDBRANCH  17  18
ENDBRANCH  16  17
ENDBRANCH  14  16
ENDBRANCH  12  14
ENDBRANCH  10  12
ENDBRANCH   9  10
ENDBRANCH   5   9
BRANCH   4  25
HETATM   25  C   UNK N   1      25.086  18.045   4.900  0.00  0.00     0.221 C 
BRANCH  25  26
HETATM   26  O   UNK N   1      26.254  18.175   4.144  0.00  0.00    -0.292 OA
BRANCH  26  27
HETATM   27  P   UNK N   1      27.436  18.921   5.182  0.00  0.00     0.391 P 
HETATM   28  O   UNK N   1      28.327  17.783   5.746  0.00  0.00    -0.632 OA
BRANCH  27  29
HETATM   29  O   UNK N   1      28.479  19.975   4.280  0.00  0.00    -0.307 OA
HETATM   30  H   UNK N   1      29.250  20.564   4.303  0.00  0.00     0.222 HD
ENDBRANCH  27  29
BRANCH  27  31
HETATM   31  O   UNK N   1      26.742  19.754   6.540  0.00  0.00    -0.307 OA
HETATM   32  H   UNK N   1      26.124  20.442   6.833  0.00  0.00     0.222 HD
ENDBRANCH  27  31
ENDBRANCH  26  27
ENDBRANCH  25  26
ENDBRANCH   4  25
BRANCH   6  33
HETATM   33  O   UNK N   1      20.364  18.636   3.629  0.00  0.00    -0.358 OA
HETATM   34  H   UNK N   1      19.768  18.893   2.954  0.00  0.00     0.217 HD
ENDBRANCH   6  33
TORSDOF 17
ENDMDL
MODEL 6
REMARK VINA RESULT:      -6.0      9.495     12.834
REMARK  17 active torsions:
REMARK  status: ('A' for Active; 'I' for Inactive)
REMARK    1  A    between atoms: C_4  and  C_3 
REMARK    2  A    between atoms: C_5  and  C_3 
REMARK    3  A    between atoms: C_6  and  C_4 
REMARK    4  A    between atoms: C_7  and  C_5 
REMARK    5  A    between atoms: C_15  and  C_6 
REMARK    6  A    between atoms: C_16  and  C_7 
REMARK    7  A    between atoms: C_14  and  C_9 
REMARK    8  A    between atoms: N_20  and  C_9 
REMARK    9  A    between atoms: C_13  and  C_10 
REMARK   10  A    between atoms: O_28  and  C_10 
REMARK   11  A    between atoms: C_15  and  C_11 
REMARK   12  A    between atoms: N_20  and  C_11 
REMARK   13  A    between atoms: O_23  and  C_16 
REMARK   14  A    between atoms: O_24  and  C_17 
REMARK   15  A    between atoms: P_29  and  O_25 
REMARK   16  A    between atoms: P_29  and  O_26 
REMARK   17  A    between atoms: P_29  and  O_28 
ROOT
HETATM    1  C   UNK N   1      37.007  12.533  13.361  0.00  0.00     0.071 C 
HETATM    2  C   UNK N   1      35.708  15.721  11.934  0.00  0.00     0.098 A 
HETATM    3  C   UNK N   1      36.294  13.483  12.460  0.00  0.00     0.039 A 
HETATM    4  C   UNK N   1      34.974  15.301  10.825  0.00  0.00    -0.008 A 
HETATM    5  C   UNK N   1      34.911  13.928  10.522  0.00  0.00     0.004 A 
HETATM    6  C   UNK N   1      35.580  13.010  11.350  0.00  0.00     0.096 A 
HETATM    7  N   UNK N   1      36.345  14.815  12.721  0.00  0.00    -0.367 N 
ATOM      8  HN  UNK N   1      36.877  15.143  13.527  1.00  0.00     0.165 HD
ENDROOT
BRANCH   5   9
HETATM    9  C   UNK N   1      34.163  13.448   9.315  0.00  0.00     0.157 C 
BRANCH   9  10
HETATM   10  N   UNK N   1      35.050  13.343   8.158  0.00  0.00    -0.407 N 
HETATM   11  H   UNK N   1      36.060  13.478   8.188  0.00  0.00     0.154 HD
BRANCH  10  12
HETATM   12  C   UNK N   1      34.286  13.017   6.950  0.00  0.00     0.142 C 
HETATM   13  C   UNK N   1      33.322  11.856   7.206  0.00  0.00     0.040 C 
BRANCH  12  14
HETATM   14  C   UNK N   1      33.605  14.247   6.387  0.00  0.00     0.148 C 
HETATM   15  O   UNK N   1      34.284  15.154   5.929  0.00  0.00    -0.296 OA
BRANCH  14  16
HETATM   16  C   UNK N   1      32.110  14.363   6.354  0.00  0.00     0.080 C 
BRANCH  16  17
HETATM   17  C   UNK N   1      31.619  15.422   7.328  0.00  0.00     0.007 C 
BRANCH  17  18
HETATM   18  C   UNK N   1      30.820  16.488   6.589  0.00  0.00     0.001 C 
BRANCH  18  19
HETATM   19  C   UNK N   1      29.521  16.774   7.326  0.00  0.00     0.010 C 
BRANCH  19  20
HETATM   20  C   UNK N   1      29.423  18.246   7.696  0.00  0.00     0.110 C 
BRANCH  20  21
HETATM   21  C   UNK N   1      28.929  18.423   9.096  0.00  0.00     0.139 C 
HETATM   22  O   UNK N   1      29.694  18.814   9.962  0.00  0.00    -0.650 OA
BRANCH  21  23
HETATM   23  O   UNK N   1      27.644  18.164   9.401  0.00  0.00    -0.776 OA
HETATM   24  H   UNK N   1      27.361  17.312   9.668  0.00  0.00     0.167 HD
ENDBRANCH  21  23
ENDBRANCH  20  21
ENDBRANCH  19  20
ENDBRANCH  18  19
ENDBRANCH  17  18
ENDBRANCH  16  17
ENDBRANCH  14  16
ENDBRANCH  12  14
ENDBRANCH  10  12
ENDBRANCH   9  10
ENDBRANCH   5   9
BRANCH   4  25
HETATM   25  C   UNK N   1      34.258  16.326  10.008  0.00  0.00     0.221 C 
BRANCH  25  26
HETATM   26  O   UNK N   1      35.035  16.640   8.889  0.00  0.00    -0.292 OA
BRANCH  26  27
HETATM   27  P   UNK N   1      34.331  18.065   8.181  0.00  0.00     0.391 P 
HETATM   28  O   UNK N   1      35.264  19.254   8.530  0.00  0.00    -0.632 OA
BRANCH  27  29
HETATM   29  O   UNK N   1      34.295  17.947   6.450  0.00  0.00    -0.307 OA
HETATM   30  H   UNK N   1      34.796  17.752   5.642  0.00  0.00     0.222 HD
ENDBRANCH  27  29
BRANCH  27  31
HETATM   31  O   UNK N   1      32.754  18.446   8.806  0.00  0.00    -0.307 OA
HETATM   32  H   UNK N   1      31.832  18.655   8.592  0.00  0.00     0.222 HD
ENDBRANCH  27  31
ENDBRANCH  26  27
ENDBRANCH  25  26
ENDBRANCH   4  25
BRANCH   6  33
HETATM   33  O   UNK N   1      35.536  11.693  11.085  0.00  0.00    -0.358 OA
HETATM   34  H   UNK N   1      35.591  11.390  10.200  0.00  0.00     0.217 HD
ENDBRANCH   6  33
TORSDOF 17
ENDMDL
MODEL 7
REMARK VINA RESULT:      -6.0     12.916     14.971
REMARK  17 active torsions:
REMARK  status: ('A' for Active; 'I' for Inactive)
REMARK    1  A    between atoms: C_4  and  C_3 
REMARK    2  A    between atoms: C_5  and  C_3 
REMARK    3  A    between atoms: C_6  and  C_4 
REMARK    4  A    between atoms: C_7  and  C_5 
REMARK    5  A    between atoms: C_15  and  C_6 
REMARK    6  A    between atoms: C_16  and  C_7 
REMARK    7  A    between atoms: C_14  and  C_9 
REMARK    8  A    between atoms: N_20  and  C_9 
REMARK    9  A    between atoms: C_13  and  C_10 
REMARK   10  A    between atoms: O_28  and  C_10 
REMARK   11  A    between atoms: C_15  and  C_11 
REMARK   12  A    between atoms: N_20  and  C_11 
REMARK   13  A    between atoms: O_23  and  C_16 
REMARK   14  A    between atoms: O_24  and  C_17 
REMARK   15  A    between atoms: P_29  and  O_25 
REMARK   16  A    between atoms: P_29  and  O_26 
REMARK   17  A    between atoms: P_29  and  O_28 
ROOT
HETATM    1  C   UNK N   1      38.773  11.786   9.481  0.00  0.00     0.071 C 
HETATM    2  C   UNK N   1      36.144  14.337   8.795  0.00  0.00     0.098 A 
HETATM    3  C   UNK N   1      37.738  12.835   9.708  0.00  0.00     0.039 A 
HETATM    4  C   UNK N   1      35.811  14.804  10.066  0.00  0.00    -0.008 A 
HETATM    5  C   UNK N   1      36.456  14.258  11.191  0.00  0.00     0.004 A 
HETATM    6  C   UNK N   1      37.432  13.262  11.008  0.00  0.00     0.096 A 
HETATM    7  N   UNK N   1      37.091  13.373   8.643  0.00  0.00    -0.367 N 
ATOM      8  HN  UNK N   1      37.320  13.045   7.704  1.00  0.00     0.165 HD
ENDROOT
BRANCH   5   9
HETATM    9  C   UNK N   1      36.093  14.711  12.572  0.00  0.00     0.157 C 
BRANCH   9  10
HETATM   10  N   UNK N   1      35.439  13.637  13.319  0.00  0.00    -0.407 N 
HETATM   11  H   UNK N   1      34.601  13.145  13.012  0.00  0.00     0.154 HD
BRANCH  10  12
HETATM   12  C   UNK N   1      36.157  13.366  14.569  0.00  0.00     0.142 C 
HETATM   13  C   UNK N   1      36.824  14.635  15.106  0.00  0.00     0.040 C 
BRANCH  12  14
HETATM   14  C   UNK N   1      35.254  12.692  15.581  0.00  0.00     0.148 C 
HETATM   15  O   UNK N   1      34.129  13.132  15.769  0.00  0.00    -0.296 OA
BRANCH  14  16
HETATM   16  C   UNK N   1      35.702  11.476  16.336  0.00  0.00     0.080 C 
BRANCH  16  17
HETATM   17  C   UNK N   1      34.672  10.361  16.243  0.00  0.00     0.007 C 
BRANCH  17  18
HETATM   18  C   UNK N   1      35.366   9.006  16.191  0.00  0.00     0.001 C 
BRANCH  18  19
HETATM   19  C   UNK N   1      36.561   9.066  15.252  0.00  0.00     0.010 C 
BRANCH  19  20
HETATM   20  C   UNK N   1      36.149   8.716  13.830  0.00  0.00     0.110 C 
BRANCH  20  21
HETATM   21  C   UNK N   1      36.544   9.792  12.870  0.00  0.00     0.139 C 
HETATM   22  O   UNK N   1      35.741  10.659  12.569  0.00  0.00    -0.650 OA
BRANCH  21  23
HETATM   23  O   UNK N   1      37.785   9.814  12.348  0.00  0.00    -0.776 OA
HETATM   24  H   UNK N   1      38.530   9.511  12.830  0.00  0.00     0.167 HD
ENDBRANCH  21  23
ENDBRANCH  20  21
ENDBRANCH  19  20
ENDBRANCH  18  19
ENDBRANCH  17  18
ENDBRANCH  16  17
ENDBRANCH  14  16
ENDBRANCH  12  14
ENDBRANCH  10  12
ENDBRANCH   9  10
ENDBRANCH   5   9
BRANCH   4  25
HETATM   25  C   UNK N   1      34.792  15.889  10.187  0.00  0.00     0.221 C 
BRANCH  25  26
HETATM   26  O   UNK N   1      35.381  17.108   9.840  0.00  0.00    -0.292 OA
BRANCH  26  27
HETATM   27  P   UNK N   1      34.422  17.772   8.549  0.00  0.00     0.391 P 
HETATM   28  O   UNK N   1      34.865  19.248   8.368  0.00  0.00    -0.632 OA
BRANCH  27  29
HETATM   29  O   UNK N   1      34.751  16.962   7.049  0.00  0.00    -0.307 OA
HETATM   30  H   UNK N   1      34.634  16.964   6.086  0.00  0.00     0.222 HD
ENDBRANCH  27  29
BRANCH  27  31
HETATM   31  O   UNK N   1      32.717  17.783   8.884  0.00  0.00    -0.307 OA
HETATM   32  H   UNK N   1      31.960  18.303   9.195  0.00  0.00     0.222 HD
ENDBRANCH  27  31
ENDBRANCH  26  27
ENDBRANCH  25  26
ENDBRANCH   4  25
BRANCH   6  33
HETATM   33  O   UNK N   1      38.065  12.723  12.064  0.00  0.00    -0.358 OA
HETATM   34  H   UNK N   1      38.932  12.382  11.966  0.00  0.00     0.217 HD
ENDBRANCH   6  33
TORSDOF 17
ENDMDL
MODEL 8
REMARK VINA RESULT:      -5.9      4.246      8.411
REMARK  17 active torsions:
REMARK  status: ('A' for Active; 'I' for Inactive)
REMARK    1  A    between atoms: C_4  and  C_3 
REMARK    2  A    between atoms: C_5  and  C_3 
REMARK    3  A    between atoms: C_6  and  C_4 
REMARK    4  A    between atoms: C_7  and  C_5 
REMARK    5  A    between atoms: C_15  and  C_6 
REMARK    6  A    between atoms: C_16  and  C_7 
REMARK    7  A    between atoms: C_14  and  C_9 
REMARK    8  A    between atoms: N_20  and  C_9 
REMARK    9  A    between atoms: C_13  and  C_10 
REMARK   10  A    between atoms: O_28  and  C_10 
REMARK   11  A    between atoms: C_15  and  C_11 
REMARK   12  A    between atoms: N_20  and  C_11 
REMARK   13  A    between atoms: O_23  and  C_16 
REMARK   14  A    between atoms: O_24  and  C_17 
REMARK   15  A    between atoms: P_29  and  O_25 
REMARK   16  A    between atoms: P_29  and  O_26 
REMARK   17  A    between atoms: P_29  and  O_28 
ROOT
HETATM    1  C   UNK N   1      23.338  11.911  13.459  0.00  0.00     0.071 C 
HETATM    2  C   UNK N   1      21.197  12.364  10.442  0.00  0.00     0.098 A 
HETATM    3  C   UNK N   1      22.935  12.094  12.036  0.00  0.00     0.039 A 
HETATM    4  C   UNK N   1      22.121  12.423   9.400  0.00  0.00    -0.008 A 
HETATM    5  C   UNK N   1      23.494  12.326   9.690  0.00  0.00     0.004 A 
HETATM    6  C   UNK N   1      23.904  12.159  11.025  0.00  0.00     0.096 A 
HETATM    7  N   UNK N   1      21.618  12.202  11.725  0.00  0.00    -0.367 N 
ATOM      8  HN  UNK N   1      20.926  12.161  12.473  1.00  0.00     0.165 HD
ENDROOT
BRANCH   5   9
HETATM    9  C   UNK N   1      24.514  12.425   8.596  0.00  0.00     0.157 C 
BRANCH   9  10
HETATM   10  N   UNK N   1      24.817  13.822   8.289  0.00  0.00    -0.407 N 
HETATM   11  H   UNK N   1      24.525  14.616   8.857  0.00  0.00     0.154 HD
BRANCH  10  12
HETATM   12  C   UNK N   1      25.598  13.921   7.052  0.00  0.00     0.142 C 
HETATM   13  C   UNK N   1      25.025  13.008   5.965  0.00  0.00     0.040 C 
BRANCH  12  14
HETATM   14  C   UNK N   1      25.738  15.363   6.610  0.00  0.00     0.148 C 
HETATM   15  O   UNK N   1      24.787  15.926   6.090  0.00  0.00    -0.296 OA
BRANCH  14  16
HETATM   16  C   UNK N   1      27.014  16.122   6.822  0.00  0.00     0.080 C 
BRANCH  16  17
HETATM   17  C   UNK N   1      27.508  16.741   5.524  0.00  0.00     0.007 C 
BRANCH  17  18
HETATM   18  C   UNK N   1      28.873  17.383   5.732  0.00  0.00     0.001 C 
BRANCH  18  19
HETATM   19  C   UNK N   1      29.184  17.482   7.218  0.00  0.00     0.010 C 
BRANCH  19  20
HETATM   20  C   UNK N   1      30.599  17.006   7.506  0.00  0.00     0.110 C 
BRANCH  20  21
HETATM   21  C   UNK N   1      31.246  17.836   8.568  0.00  0.00     0.139 C 
HETATM   22  O   UNK N   1      30.620  18.743   9.093  0.00  0.00    -0.650 OA
BRANCH  21  23
HETATM   23  O   UNK N   1      32.509  17.578   8.957  0.00  0.00    -0.776 OA
HETATM   24  H   UNK N   1      33.235  17.669   8.370  0.00  0.00     0.167 HD
ENDBRANCH  21  23
ENDBRANCH  20  21
ENDBRANCH  19  20
ENDBRANCH  18  19
ENDBRANCH  17  18
ENDBRANCH  16  17
ENDBRANCH  14  16
ENDBRANCH  12  14
ENDBRANCH  10  12
ENDBRANCH   9  10
ENDBRANCH   5   9
BRANCH   4  25
HETATM   25  C   UNK N   1      21.616  12.566   8.001  0.00  0.00     0.221 C 
BRANCH  25  26
HETATM   26  O   UNK N   1      20.375  13.207   8.029  0.00  0.00    -0.292 OA
BRANCH  26  27
HETATM   27  P   UNK N   1      20.671  14.877   7.635  0.00  0.00     0.391 P 
HETATM   28  O   UNK N   1      20.607  15.674   8.964  0.00  0.00    -0.632 OA
BRANCH  27  29
HETATM   29  O   UNK N   1      22.271  15.091   6.997  0.00  0.00    -0.307 OA
HETATM   30  H   UNK N   1      22.895  14.870   6.288  0.00  0.00     0.222 HD
ENDBRANCH  27  29
BRANCH  27  31
HETATM   31  O   UNK N   1      19.483  15.560   6.566  0.00  0.00    -0.307 OA
HETATM   32  H   UNK N   1      18.609  15.974   6.492  0.00  0.00     0.222 HD
ENDBRANCH  27  31
ENDBRANCH  26  27
ENDBRANCH  25  26
ENDBRANCH   4  25
BRANCH   6  33
HETATM   33  O   UNK N   1      25.210  12.062  11.332  0.00  0.00    -0.358 OA
HETATM   34  H   UNK N   1      25.475  11.960  12.224  0.00  0.00     0.217 HD
ENDBRANCH   6  33
TORSDOF 17
ENDMDL
MODEL 9
REMARK VINA RESULT:      -5.9      3.985      6.592
REMARK  17 active torsions:
REMARK  status: ('A' for Active; 'I' for Inactive)
REMARK    1  A    between atoms: C_4  and  C_3 
REMARK    2  A    between atoms: C_5  and  C_3 
REMARK    3  A    between atoms: C_6  and  C_4 
REMARK    4  A    between atoms: C_7  and  C_5 
REMARK    5  A    between atoms: C_15  and  C_6 
REMARK    6  A    between atoms: C_16  and  C_7 
REMARK    7  A    between atoms: C_14  and  C_9 
REMARK    8  A    between atoms: N_20  and  C_9 
REMARK    9  A    between atoms: C_13  and  C_10 
REMARK   10  A    between atoms: O_28  and  C_10 
REMARK   11  A    between atoms: C_15  and  C_11 
REMARK   12  A    between atoms: N_20  and  C_11 
REMARK   13  A    between atoms: O_23  and  C_16 
REMARK   14  A    between atoms: O_24  and  C_17 
REMARK   15  A    between atoms: P_29  and  O_25 
REMARK   16  A    between atoms: P_29  and  O_26 
REMARK   17  A    between atoms: P_29  and  O_28 
ROOT
HETATM    1  C   UNK N   1      19.768  13.562   0.798  0.00  0.00     0.071 C 
HETATM    2  C   UNK N   1      19.934  17.100   1.956  0.00  0.00     0.098 A 
HETATM    3  C   UNK N   1      20.111  14.758   1.618  0.00  0.00     0.039 A 
HETATM    4  C   UNK N   1      20.730  17.026   3.099  0.00  0.00    -0.008 A 
HETATM    5  C   UNK N   1      21.220  15.775   3.517  0.00  0.00     0.004 A 
HETATM    6  C   UNK N   1      20.906  14.629   2.766  0.00  0.00     0.096 A 
HETATM    7  N   UNK N   1      19.644  15.977   1.246  0.00  0.00    -0.367 N 
ATOM      8  HN  UNK N   1      19.060  16.053   0.414  1.00  0.00     0.165 HD
ENDROOT
BRANCH   5   9
HETATM    9  C   UNK N   1      22.046  15.657   4.762  0.00  0.00     0.157 C 
BRANCH   9  10
HETATM   10  N   UNK N   1      23.452  15.425   4.436  0.00  0.00    -0.407 N 
HETATM   11  H   UNK N   1      23.780  14.843   3.666  0.00  0.00     0.154 HD
BRANCH  10  12
HETATM   12  C   UNK N   1      24.324  16.146   5.369  0.00  0.00     0.142 C 
HETATM   13  C   UNK N   1      24.757  15.243   6.526  0.00  0.00     0.040 C 
BRANCH  12  14
HETATM   14  C   UNK N   1      25.489  16.787   4.642  0.00  0.00     0.148 C 
HETATM   15  O   UNK N   1      26.622  16.378   4.846  0.00  0.00    -0.296 OA
BRANCH  14  16
HETATM   16  C   UNK N   1      25.276  17.895   3.655  0.00  0.00     0.080 C 
BRANCH  16  17
HETATM   17  C   UNK N   1      25.467  19.256   4.306  0.00  0.00     0.007 C 
BRANCH  17  18
HETATM   18  C   UNK N   1      26.673  19.964   3.703  0.00  0.00     0.001 C 
BRANCH  18  19
HETATM   19  C   UNK N   1      27.812  20.008   4.710  0.00  0.00     0.010 C 
BRANCH  19  20
HETATM   20  C   UNK N   1      27.278  20.213   6.120  0.00  0.00     0.110 C 
BRANCH  20  21
HETATM   21  C   UNK N   1      27.837  19.199   7.065  0.00  0.00     0.139 C 
HETATM   22  O   UNK N   1      28.593  18.336   6.649  0.00  0.00    -0.650 OA
BRANCH  21  23
HETATM   23  O   UNK N   1      27.521  19.243   8.373  0.00  0.00    -0.776 OA
HETATM   24  H   UNK N   1      26.823  19.779   8.695  0.00  0.00     0.167 HD
ENDBRANCH  21  23
ENDBRANCH  20  21
ENDBRANCH  19  20
ENDBRANCH  18  19
ENDBRANCH  17  18
ENDBRANCH  16  17
ENDBRANCH  14  16
ENDBRANCH  12  14
ENDBRANCH  10  12
ENDBRANCH   9  10
ENDBRANCH   5   9
BRANCH   4  25
HETATM   25  C   UNK N   1      21.054  18.288   3.829  0.00  0.00     0.221 C 
BRANCH  25  26
HETATM   26  O   UNK N   1      21.980  19.021   3.083  0.00  0.00    -0.292 OA
BRANCH  26  27
HETATM   27  P   UNK N   1      21.219  20.539   2.701  0.00  0.00     0.391 P 
HETATM   28  O   UNK N   1      20.132  20.786   3.780  0.00  0.00    -0.632 OA
BRANCH  27  29
HETATM   29  O   UNK N   1      22.351  21.850   2.819  0.00  0.00    -0.307 OA
HETATM   30  H   UNK N   1      22.514  22.794   2.667  0.00  0.00     0.222 HD
ENDBRANCH  27  29
BRANCH  27  31
HETATM   31  O   UNK N   1      20.424  20.548   1.155  0.00  0.00    -0.307 OA
HETATM   32  H   UNK N   1      19.610  20.349   0.667  0.00  0.00     0.222 HD
ENDBRANCH  27  31
ENDBRANCH  26  27
ENDBRANCH  25  26
ENDBRANCH   4  25
BRANCH   6  33
HETATM   33  O   UNK N   1      21.362  13.421   3.141  0.00  0.00    -0.358 OA
HETATM   34  H   UNK N   1      21.196  12.670   2.605  0.00  0.00     0.217 HD
ENDBRANCH   6  33
TORSDOF 17
ENDMDL
