REMARK  7 active torsions:
REMARK  status: ('A' for Active; 'I' for Inactive)
REMARK    1  A    between atoms: C_2  and  N_4 
REMARK    2  A    between atoms: N_4  and  C_5 
REMARK    3  A    between atoms: C_5  and  C_6 
REMARK    4  A    between atoms: C_6  and  O_7 
REMARK    5  A    between atoms: C_6  and  C_8 
REMARK    6  A    between atoms: C_8  and  O_9 
REMARK    7  A    between atoms: O_9  and  C_10 
ROOT
HETATM    1  O   UNK N   1      -2.068  -0.269   0.124  0.00  0.00    -0.348 OA
ENDROOT
BRANCH   1   2
HETATM    2  C   UNK N   1      -2.343   1.026  -0.264  0.00  0.00     0.209 C 
BRANCH   2   3
HETATM    3  C   UNK N   1      -3.718   1.491   0.163  0.00  0.00     0.159 C 
BRANCH   3   4
HETATM    4  C   UNK N   1      -4.795   0.777  -0.627  0.00  0.00     0.147 C 
BRANCH   4   5
HETATM    5  N   UNK N   1      -5.129  -0.480   0.024  0.00  0.00    -0.415 N 
HETATM    6  H   UNK N   1      -4.518  -1.019   0.638  0.00  0.00     0.153 HD
BRANCH   5   7
HETATM    7  C   UNK N   1      -6.490  -0.833  -0.355  0.00  0.00     0.068 C 
HETATM    8  C   UNK N   1      -7.492   0.107   0.301  0.00  0.00     0.031 C 
HETATM    9  C   UNK N   1      -6.781  -2.245   0.106  0.00  0.00     0.031 C 
ENDBRANCH   5   7
ENDBRANCH   4   5
ENDBRANCH   3   4
BRANCH   3  10
HETATM   10  O   UNK N   1      -3.808   2.858  -0.091  0.00  0.00    -0.392 OA
HETATM   11  H   UNK N   1      -3.015   3.388  -0.267  0.00  0.00     0.210 HD
ENDBRANCH   3  10
ENDBRANCH   2   3
ENDBRANCH   1   2
BRANCH   1  12
HETATM   12  C   UNK N   1      -0.819  -0.808   0.120  0.00  0.00     0.080 A 
HETATM   13  C   UNK N   1      -0.713  -2.207   0.163  0.00  0.00     0.037 A 
HETATM   14  C   UNK N   1       0.532  -2.837   0.134  0.00  0.00     0.004 A 
HETATM   15  C   UNK N   1       1.702  -2.083   0.066  0.00  0.00     0.012 A 
HETATM   16  C   UNK N   1       1.636  -0.688   0.039  0.00  0.00    -0.023 A 
HETATM   17  C   UNK N   1       0.381  -0.036   0.070  0.00  0.00     0.007 A 
HETATM   18  C   UNK N   1       2.819   0.055  -0.016  0.00  0.00     0.012 A 
HETATM   19  C   UNK N   1       0.361   1.373   0.060  0.00  0.00     0.015 A 
HETATM   20  C   UNK N   1       1.544   2.109   0.011  0.00  0.00     0.001 A 
HETATM   21  C   UNK N   1       2.772   1.452  -0.032  0.00  0.00     0.001 A 
ENDBRANCH   1  12
TORSDOF 7
