MODEL 1
REMARK VINA RESULT:      -7.8      0.000      0.000
REMARK  5 active torsions:
REMARK  status: ('A' for Active; 'I' for Inactive)
REMARK    1  A    between atoms: C_10  and  C_4 
REMARK    2  A    between atoms: C_11  and  C_4 
REMARK    3  A    between atoms: C_10  and  C_8 
REMARK    4  A    between atoms: C_12  and  C_11 
REMARK    5  A    between atoms: O_23  and  C_11 
ROOT
HETATM    1  C   UNK N   1      19.910  16.631   8.190  0.00  0.00     0.096 C 
ENDROOT
BRANCH   1   2
HETATM    2  C   UNK N   1      20.297  15.401   7.455  0.00  0.00     0.187 C 
HETATM    3  O   UNK N   1      19.640  15.018   6.497  0.00  0.00    -0.287 OA
BRANCH   2   4
HETATM    4  C   UNK N   1      21.514  14.639   7.871  0.00  0.00     0.042 A 
HETATM    5  C   UNK N   1      22.758  14.691   7.244  0.00  0.00     0.104 A 
HETATM    6  N   UNK N   1      23.637  13.885   7.896  0.00  0.00    -0.364 N 
HETATM    7  C   UNK N   1      22.959  13.336   8.921  0.00  0.00     0.043 A 
HETATM    8  H   UNK N   1      24.581  13.734   7.665  0.00  0.00     0.165 HD
HETATM    9  C   UNK N   1      23.454  12.443   9.872  0.00  0.00     0.032 A 
HETATM   10  C   UNK N   1      21.667  13.768   8.942  0.00  0.00     0.008 A 
HETATM   11  C   UNK N   1      22.572  11.988  10.875  0.00  0.00     0.026 A 
HETATM   12  C   UNK N   1      21.235  12.436  10.900  0.00  0.00     0.035 A 
HETATM   13  C   UNK N   1      20.784  13.332   9.928  0.00  0.00     0.038 A 
HETATM   14 Cl   UNK N   1      20.125  11.882  12.136  0.00  0.00    -0.084 Cl
ENDBRANCH   2   4
ENDBRANCH   1   2
BRANCH   1  15
HETATM   15  C   UNK N   1      18.677  17.013   8.557  0.00  0.00     0.116 C 
BRANCH  15  16
HETATM   16  C   UNK N   1      18.555  18.125   9.531  0.00  0.00     0.171 A 
HETATM   17  N   UNK N   1      19.496  19.048   9.787  0.00  0.00    -0.266 N 
HETATM   18  N   UNK N   1      18.985  19.821  10.734  0.00  0.00    -0.227 N 
ATOM     19  HN  UNK N   1      20.411  19.135   9.346  1.00  0.00     0.190 HD
HETATM   20  N   UNK N   1      17.773  19.389  11.054  0.00  0.00    -0.227 N 
HETATM   21  H   UNK N   1      19.436  20.598  11.137  0.00  0.00     0.210 HD
HETATM   22  N   UNK N   1      17.481  18.333  10.320  0.00  0.00    -0.266 N 
ATOM     23  HN  UNK N   1      17.164  19.808  11.756  1.00  0.00     0.210 HD
ATOM     24  HN  UNK N   1      16.620  17.786  10.344  1.00  0.00     0.190 HD
ENDBRANCH  15  16
BRANCH  15  25
HETATM   25  O   UNK N   1      17.576  16.429   8.044  0.00  0.00    -0.357 OA
HETATM   26  H   UNK N   1      17.131  16.815   7.316  0.00  0.00     0.218 HD
ENDBRANCH  15  25
ENDBRANCH   1  15
TORSDOF 5
ENDMDL
MODEL 2
REMARK VINA RESULT:      -7.2     17.378     18.847
REMARK  5 active torsions:
REMARK  status: ('A' for Active; 'I' for Inactive)
REMARK    1  A    between atoms: C_10  and  C_4 
REMARK    2  A    between atoms: C_11  and  C_4 
REMARK    3  A    between atoms: C_10  and  C_8 
REMARK    4  A    between atoms: C_12  and  C_11 
REMARK    5  A    between atoms: O_23  and  C_11 
ROOT
HETATM    1  C   UNK N   1      29.199  23.353  -3.422  0.00  0.00     0.096 C 
ENDROOT
BRANCH   1   2
HETATM    2  C   UNK N   1      27.803  23.717  -3.073  0.00  0.00     0.187 C 
HETATM    3  O   UNK N   1      27.398  23.598  -1.925  0.00  0.00    -0.287 OA
BRANCH   2   4
HETATM    4  C   UNK N   1      26.892  24.258  -4.128  0.00  0.00     0.042 A 
HETATM    5  C   UNK N   1      26.281  23.511  -5.134  0.00  0.00     0.104 A 
HETATM    6  N   UNK N   1      25.508  24.321  -5.905  0.00  0.00    -0.364 N 
HETATM    7  C   UNK N   1      25.626  25.559  -5.392  0.00  0.00     0.043 A 
HETATM    8  H   UNK N   1      24.970  24.055  -6.685  0.00  0.00     0.165 HD
HETATM    9  C   UNK N   1      25.006  26.722  -5.850  0.00  0.00     0.032 A 
HETATM   10  C   UNK N   1      26.457  25.564  -4.311  0.00  0.00     0.008 A 
HETATM   11  C   UNK N   1      25.260  27.925  -5.160  0.00  0.00     0.026 A 
HETATM   12  C   UNK N   1      26.117  27.932  -4.040  0.00  0.00     0.035 A 
HETATM   13  C   UNK N   1      26.715  26.744  -3.614  0.00  0.00     0.038 A 
HETATM   14 Cl   UNK N   1      26.447  29.417  -3.171  0.00  0.00    -0.084 Cl
ENDBRANCH   2   4
ENDBRANCH   1   2
BRANCH   1  15
HETATM   15  C   UNK N   1      30.114  22.767  -2.634  0.00  0.00     0.116 C 
BRANCH  15  16
HETATM   16  C   UNK N   1      30.923  21.665  -3.209  0.00  0.00     0.171 A 
HETATM   17  N   UNK N   1      30.528  20.832  -4.186  0.00  0.00    -0.266 N 
HETATM   18  N   UNK N   1      31.539  19.994  -4.365  0.00  0.00    -0.227 N 
ATOM     19  HN  UNK N   1      29.638  20.842  -4.683  1.00  0.00     0.190 HD
HETATM   20  N   UNK N   1      32.521  20.297  -3.529  0.00  0.00    -0.227 N 
HETATM   21  H   UNK N   1      31.557  19.260  -5.021  0.00  0.00     0.210 HD
HETATM   22  N   UNK N   1      32.163  21.335  -2.796  0.00  0.00    -0.266 N 
ATOM     23  HN  UNK N   1      33.412  19.806  -3.462  1.00  0.00     0.210 HD
ATOM     24  HN  UNK N   1      32.712  21.792  -2.068  1.00  0.00     0.190 HD
ENDBRANCH  15  16
BRANCH  15  25
HETATM   25  O   UNK N   1      30.319  23.177  -1.366  0.00  0.00    -0.357 OA
HETATM   26  H   UNK N   1      29.632  23.118  -0.733  0.00  0.00     0.218 HD
ENDBRANCH  15  25
ENDBRANCH   1  15
TORSDOF 5
ENDMDL
MODEL 3
REMARK VINA RESULT:      -7.2      3.629      5.066
REMARK  5 active torsions:
REMARK  status: ('A' for Active; 'I' for Inactive)
REMARK    1  A    between atoms: C_10  and  C_4 
REMARK    2  A    between atoms: C_11  and  C_4 
REMARK    3  A    between atoms: C_10  and  C_8 
REMARK    4  A    between atoms: C_12  and  C_11 
REMARK    5  A    between atoms: O_23  and  C_11 
ROOT
HETATM    1  C   UNK N   1      19.975  16.528   8.431  0.00  0.00     0.096 C 
ENDROOT
BRANCH   1   2
HETATM    2  C   UNK N   1      20.487  15.723   7.293  0.00  0.00     0.187 C 
HETATM    3  O   UNK N   1      19.868  14.745   6.896  0.00  0.00    -0.287 OA
BRANCH   2   4
HETATM    4  C   UNK N   1      21.754  16.126   6.610  0.00  0.00     0.042 A 
HETATM    5  C   UNK N   1      22.994  15.511   6.772  0.00  0.00     0.104 A 
HETATM    6  N   UNK N   1      23.920  16.124   5.988  0.00  0.00    -0.364 N 
HETATM    7  C   UNK N   1      23.273  17.109   5.339  0.00  0.00     0.043 A 
HETATM    8  H   UNK N   1      24.873  15.894   5.910  0.00  0.00     0.165 HD
HETATM    9  C   UNK N   1      23.815  18.005   4.416  0.00  0.00     0.032 A 
HETATM   10  C   UNK N   1      21.956  17.145   5.687  0.00  0.00     0.008 A 
HETATM   11  C   UNK N   1      22.957  18.966   3.841  0.00  0.00     0.026 A 
HETATM   12  C   UNK N   1      21.593  19.002   4.199  0.00  0.00     0.035 A 
HETATM   13  C   UNK N   1      21.093  18.084   5.125  0.00  0.00     0.038 A 
HETATM   14 Cl   UNK N   1      20.512  20.187   3.498  0.00  0.00    -0.084 Cl
ENDBRANCH   2   4
ENDBRANCH   1   2
BRANCH   1  15
HETATM   15  C   UNK N   1      18.725  16.982   8.617  0.00  0.00     0.116 C 
BRANCH  15  16
HETATM   16  C   UNK N   1      18.526  18.093   9.579  0.00  0.00     0.171 A 
HETATM   17  N   UNK N   1      17.398  18.343  10.263  0.00  0.00    -0.266 N 
HETATM   18  N   UNK N   1      17.649  19.433  10.972  0.00  0.00    -0.227 N 
ATOM     19  HN  UNK N   1      16.531  17.806  10.241  1.00  0.00     0.190 HD
HETATM   20  N   UNK N   1      18.886  19.845  10.732  0.00  0.00    -0.227 N 
HETATM   21  H   UNK N   1      17.013  19.870  11.585  0.00  0.00     0.210 HD
HETATM   22  N   UNK N   1      19.455  19.027   9.867  0.00  0.00    -0.266 N 
ATOM     23  HN  UNK N   1      19.327  20.663  11.150  1.00  0.00     0.210 HD
ATOM     24  HN  UNK N   1      20.402  19.090   9.492  1.00  0.00     0.190 HD
ENDBRANCH  15  16
BRANCH  15  25
HETATM   25  O   UNK N   1      17.680  16.468   7.938  0.00  0.00    -0.357 OA
HETATM   26  H   UNK N   1      16.811  16.777   8.101  0.00  0.00     0.218 HD
ENDBRANCH  15  25
ENDBRANCH   1  15
TORSDOF 5
ENDMDL
MODEL 4
REMARK VINA RESULT:      -6.9      7.884      8.306
REMARK  5 active torsions:
REMARK  status: ('A' for Active; 'I' for Inactive)
REMARK    1  A    between atoms: C_10  and  C_4 
REMARK    2  A    between atoms: C_11  and  C_4 
REMARK    3  A    between atoms: C_10  and  C_8 
REMARK    4  A    between atoms: C_12  and  C_11 
REMARK    5  A    between atoms: O_23  and  C_11 
ROOT
HETATM    1  C   UNK N   1      22.910  19.681   3.403  0.00  0.00     0.096 C 
ENDROOT
BRANCH   1   2
HETATM    2  C   UNK N   1      24.276  20.187   3.116  0.00  0.00     0.187 C 
HETATM    3  O   UNK N   1      24.466  20.976   2.201  0.00  0.00    -0.287 OA
BRANCH   2   4
HETATM    4  C   UNK N   1      25.424  19.751   3.968  0.00  0.00     0.042 A 
HETATM    5  C   UNK N   1      26.021  20.507   4.975  0.00  0.00     0.104 A 
HETATM    6  N   UNK N   1      27.024  19.795   5.554  0.00  0.00    -0.364 N 
HETATM    7  C   UNK N   1      27.056  18.606   4.926  0.00  0.00     0.043 A 
HETATM    8  H   UNK N   1      27.609  20.090   6.288  0.00  0.00     0.165 HD
HETATM    9  C   UNK N   1      27.920  17.541   5.185  0.00  0.00     0.032 A 
HETATM   10  C   UNK N   1      26.100  18.538   3.956  0.00  0.00     0.008 A 
HETATM   11  C   UNK N   1      27.782  16.371   4.410  0.00  0.00     0.026 A 
HETATM   12  C   UNK N   1      26.792  16.298   3.408  0.00  0.00     0.035 A 
HETATM   13  C   UNK N   1      25.947  17.387   3.184  0.00  0.00     0.038 A 
HETATM   14 Cl   UNK N   1      26.606  14.854   2.434  0.00  0.00    -0.084 Cl
ENDBRANCH   2   4
ENDBRANCH   1   2
BRANCH   1  15
HETATM   15  C   UNK N   1      21.742  20.192   2.986  0.00  0.00     0.116 C 
BRANCH  15  16
HETATM   16  C   UNK N   1      20.586  19.272   2.859  0.00  0.00     0.171 A 
HETATM   17  N   UNK N   1      19.467  19.513   2.156  0.00  0.00    -0.266 N 
HETATM   18  N   UNK N   1      18.699  18.450   2.340  0.00  0.00    -0.227 N 
ATOM     19  HN  UNK N   1      19.254  20.340   1.600  1.00  0.00     0.190 HD
HETATM   20  N   UNK N   1      19.319  17.585   3.130  0.00  0.00    -0.227 N 
HETATM   21  H   UNK N   1      17.804  18.322   1.949  0.00  0.00     0.210 HD
HETATM   22  N   UNK N   1      20.497  18.072   3.468  0.00  0.00    -0.266 N 
ATOM     23  HN  UNK N   1      18.944  16.685   3.429  1.00  0.00     0.210 HD
ATOM     24  HN  UNK N   1      21.196  17.633   4.067  1.00  0.00     0.190 HD
ENDBRANCH  15  16
BRANCH  15  25
HETATM   25  O   UNK N   1      21.604  21.506   2.712  0.00  0.00    -0.357 OA
HETATM   26  H   UNK N   1      21.431  22.117   3.400  0.00  0.00     0.218 HD
ENDBRANCH  15  25
ENDBRANCH   1  15
TORSDOF 5
ENDMDL
MODEL 5
REMARK VINA RESULT:      -6.8     12.071     14.329
REMARK  5 active torsions:
REMARK  status: ('A' for Active; 'I' for Inactive)
REMARK    1  A    between atoms: C_10  and  C_4 
REMARK    2  A    between atoms: C_11  and  C_4 
REMARK    3  A    between atoms: C_10  and  C_8 
REMARK    4  A    between atoms: C_12  and  C_11 
REMARK    5  A    between atoms: O_23  and  C_11 
ROOT
HETATM    1  C   UNK N   1      34.541  16.212  10.114  0.00  0.00     0.096 C 
ENDROOT
BRANCH   1   2
HETATM    2  C   UNK N   1      34.561  17.287   9.091  0.00  0.00     0.187 C 
HETATM    3  O   UNK N   1      35.275  18.269   9.236  0.00  0.00    -0.287 OA
BRANCH   2   4
HETATM    4  C   UNK N   1      33.722  17.156   7.861  0.00  0.00     0.042 A 
HETATM    5  C   UNK N   1      34.187  16.805   6.595  0.00  0.00     0.104 A 
HETATM    6  N   UNK N   1      33.150  16.765   5.716  0.00  0.00    -0.364 N 
HETATM    7  C   UNK N   1      32.047  17.083   6.418  0.00  0.00     0.043 A 
HETATM    8  H   UNK N   1      33.197  16.548   4.758  0.00  0.00     0.165 HD
HETATM    9  C   UNK N   1      30.739  17.164   5.937  0.00  0.00     0.032 A 
HETATM   10  C   UNK N   1      32.350  17.327   7.724  0.00  0.00     0.008 A 
HETATM   11  C   UNK N   1      29.718  17.509   6.848  0.00  0.00     0.026 A 
HETATM   12  C   UNK N   1      30.030  17.759   8.200  0.00  0.00     0.035 A 
HETATM   13  C   UNK N   1      31.353  17.664   8.638  0.00  0.00     0.038 A 
HETATM   14 Cl   UNK N   1      28.777  18.191   9.345  0.00  0.00    -0.084 Cl
ENDBRANCH   2   4
ENDBRANCH   1   2
BRANCH   1  15
HETATM   15  C   UNK N   1      35.572  15.752  10.840  0.00  0.00     0.116 C 
BRANCH  15  16
HETATM   16  C   UNK N   1      35.336  14.581  11.719  0.00  0.00     0.171 A 
HETATM   17  N   UNK N   1      35.964  14.335  12.880  0.00  0.00    -0.266 N 
HETATM   18  N   UNK N   1      35.473  13.182  13.310  0.00  0.00    -0.227 N 
ATOM     19  HN  UNK N   1      36.670  14.914  13.334  1.00  0.00     0.190 HD
HETATM   20  N   UNK N   1      34.577  12.731  12.445  0.00  0.00    -0.227 N 
HETATM   21  H   UNK N   1      35.734  12.731  14.146  0.00  0.00     0.210 HD
HETATM   22  N   UNK N   1      34.472  13.583  11.443  0.00  0.00    -0.266 N 
ATOM     23  HN  UNK N   1      34.051  11.862  12.539  1.00  0.00     0.210 HD
ATOM     24  HN  UNK N   1      33.864  13.503  10.628  1.00  0.00     0.190 HD
ENDBRANCH  15  16
BRANCH  15  25
HETATM   25  O   UNK N   1      36.796  16.313  10.760  0.00  0.00    -0.357 OA
HETATM   26  H   UNK N   1      37.119  16.844  11.460  0.00  0.00     0.218 HD
ENDBRANCH  15  25
ENDBRANCH   1  15
TORSDOF 5
ENDMDL
MODEL 6
REMARK VINA RESULT:      -6.8     11.773     14.503
REMARK  5 active torsions:
REMARK  status: ('A' for Active; 'I' for Inactive)
REMARK    1  A    between atoms: C_10  and  C_4 
REMARK    2  A    between atoms: C_11  and  C_4 
REMARK    3  A    between atoms: C_10  and  C_8 
REMARK    4  A    between atoms: C_12  and  C_11 
REMARK    5  A    between atoms: O_23  and  C_11 
ROOT
HETATM    1  C   UNK N   1      34.868  17.297   9.774  0.00  0.00     0.096 C 
ENDROOT
BRANCH   1   2
HETATM    2  C   UNK N   1      34.640  18.109   8.553  0.00  0.00     0.187 C 
HETATM    3  O   UNK N   1      35.248  19.157   8.381  0.00  0.00    -0.287 OA
BRANCH   2   4
HETATM    4  C   UNK N   1      33.679  17.631   7.512  0.00  0.00     0.042 A 
HETATM    5  C   UNK N   1      34.025  17.106   6.268  0.00  0.00     0.104 A 
HETATM    6  N   UNK N   1      32.903  16.758   5.585  0.00  0.00    -0.364 N 
HETATM    7  C   UNK N   1      31.864  17.056   6.387  0.00  0.00     0.043 A 
HETATM    8  H   UNK N   1      32.858  16.366   4.684  0.00  0.00     0.165 HD
HETATM    9  C   UNK N   1      30.509  16.867   6.112  0.00  0.00     0.032 A 
HETATM   10  C   UNK N   1      32.292  17.588   7.567  0.00  0.00     0.008 A 
HETATM   11  C   UNK N   1      29.574  17.244   7.099  0.00  0.00     0.026 A 
HETATM   12  C   UNK N   1      30.015  17.791   8.321  0.00  0.00     0.035 A 
HETATM   13  C   UNK N   1      31.382  17.961   8.554  0.00  0.00     0.038 A 
HETATM   14 Cl   UNK N   1      28.869  18.267   9.558  0.00  0.00    -0.084 Cl
ENDBRANCH   2   4
ENDBRANCH   1   2
BRANCH   1  15
HETATM   15  C   UNK N   1      34.739  15.969   9.911  0.00  0.00     0.116 C 
BRANCH  15  16
HETATM   16  C   UNK N   1      35.964  15.138   9.821  0.00  0.00     0.171 A 
HETATM   17  N   UNK N   1      36.205  14.197   8.893  0.00  0.00    -0.266 N 
HETATM   18  N   UNK N   1      37.388  13.690   9.204  0.00  0.00    -0.227 N 
ATOM     19  HN  UNK N   1      35.603  13.930   8.115  1.00  0.00     0.190 HD
HETATM   20  N   UNK N   1      37.860  14.293  10.286  0.00  0.00    -0.227 N 
HETATM   21  H   UNK N   1      37.847  12.975   8.706  0.00  0.00     0.210 HD
HETATM   22  N   UNK N   1      36.992  15.200  10.691  0.00  0.00    -0.266 N 
ATOM     23  HN  UNK N   1      38.753  14.088  10.733  1.00  0.00     0.210 HD
ATOM     24  HN  UNK N   1      37.081  15.819  11.496  1.00  0.00     0.190 HD
ENDBRANCH  15  16
BRANCH  15  25
HETATM   25  O   UNK N   1      33.541  15.398  10.150  0.00  0.00    -0.357 OA
HETATM   26  H   UNK N   1      32.799  15.927  10.365  0.00  0.00     0.218 HD
ENDBRANCH  15  25
ENDBRANCH   1  15
TORSDOF 5
ENDMDL
MODEL 7
REMARK VINA RESULT:      -6.8      9.946     12.002
REMARK  5 active torsions:
REMARK  status: ('A' for Active; 'I' for Inactive)
REMARK    1  A    between atoms: C_10  and  C_4 
REMARK    2  A    between atoms: C_11  and  C_4 
REMARK    3  A    between atoms: C_10  and  C_8 
REMARK    4  A    between atoms: C_12  and  C_11 
REMARK    5  A    between atoms: O_23  and  C_11 
ROOT
HETATM    1  C   UNK N   1      31.108  16.771   7.551  0.00  0.00     0.096 C 
ENDROOT
BRANCH   1   2
HETATM    2  C   UNK N   1      29.679  17.153   7.421  0.00  0.00     0.187 C 
HETATM    3  O   UNK N   1      28.918  17.044   8.373  0.00  0.00    -0.287 OA
BRANCH   2   4
HETATM    4  C   UNK N   1      29.172  17.701   6.126  0.00  0.00     0.042 A 
HETATM    5  C   UNK N   1      29.457  17.189   4.861  0.00  0.00     0.104 A 
HETATM    6  N   UNK N   1      28.817  17.922   3.912  0.00  0.00    -0.364 N 
HETATM    7  C   UNK N   1      28.136  18.879   4.567  0.00  0.00     0.043 A 
HETATM    8  H   UNK N   1      28.846  17.780   2.938  0.00  0.00     0.165 HD
HETATM    9  C   UNK N   1      27.325  19.867   4.007  0.00  0.00     0.032 A 
HETATM   10  C   UNK N   1      28.324  18.781   5.913  0.00  0.00     0.008 A 
HETATM   11  C   UNK N   1      26.692  20.778   4.879  0.00  0.00     0.026 A 
HETATM   12  C   UNK N   1      26.883  20.675   6.272  0.00  0.00     0.035 A 
HETATM   13  C   UNK N   1      27.702  19.669   6.789  0.00  0.00     0.038 A 
HETATM   14 Cl   UNK N   1      26.107  21.797   7.370  0.00  0.00    -0.084 Cl
ENDBRANCH   2   4
ENDBRANCH   1   2
BRANCH   1  15
HETATM   15  C   UNK N   1      31.816  16.616   8.680  0.00  0.00     0.116 C 
BRANCH  15  16
HETATM   16  C   UNK N   1      33.129  17.298   8.777  0.00  0.00     0.171 A 
HETATM   17  N   UNK N   1      34.081  17.037   9.687  0.00  0.00    -0.266 N 
HETATM   18  N   UNK N   1      35.061  17.890   9.427  0.00  0.00    -0.227 N 
ATOM     19  HN  UNK N   1      34.055  16.332  10.423  1.00  0.00     0.190 HD
HETATM   20  N   UNK N   1      34.725  18.653   8.396  0.00  0.00    -0.227 N 
HETATM   21  H   UNK N   1      35.909  17.948   9.924  0.00  0.00     0.210 HD
HETATM   22  N   UNK N   1      33.525  18.305   7.972  0.00  0.00    -0.266 N 
ATOM     23  HN  UNK N   1      35.302  19.391   7.995  1.00  0.00     0.210 HD
ATOM     24  HN  UNK N   1      33.005  18.714   7.196  1.00  0.00     0.190 HD
ENDBRANCH  15  16
BRANCH  15  25
HETATM   25  O   UNK N   1      31.346  15.886   9.712  0.00  0.00    -0.357 OA
HETATM   26  H   UNK N   1      30.717  16.250  10.302  0.00  0.00     0.218 HD
ENDBRANCH  15  25
ENDBRANCH   1  15
TORSDOF 5
ENDMDL
MODEL 8
REMARK VINA RESULT:      -6.7      3.690      4.882
REMARK  5 active torsions:
REMARK  status: ('A' for Active; 'I' for Inactive)
REMARK    1  A    between atoms: C_10  and  C_4 
REMARK    2  A    between atoms: C_11  and  C_4 
REMARK    3  A    between atoms: C_10  and  C_8 
REMARK    4  A    between atoms: C_12  and  C_11 
REMARK    5  A    between atoms: O_23  and  C_11 
ROOT
HETATM    1  C   UNK N   1      19.257  16.926   7.683  0.00  0.00     0.096 C 
ENDROOT
BRANCH   1   2
HETATM    2  C   UNK N   1      20.567  17.521   7.320  0.00  0.00     0.187 C 
HETATM    3  O   UNK N   1      20.771  18.717   7.476  0.00  0.00    -0.287 OA
BRANCH   2   4
HETATM    4  C   UNK N   1      21.656  16.647   6.786  0.00  0.00     0.042 A 
HETATM    5  C   UNK N   1      21.863  15.310   7.121  0.00  0.00     0.104 A 
HETATM    6  N   UNK N   1      22.931  14.823   6.437  0.00  0.00    -0.364 N 
HETATM    7  C   UNK N   1      23.390  15.835   5.679  0.00  0.00     0.043 A 
HETATM    8  H   UNK N   1      23.297  13.910   6.485  0.00  0.00     0.165 HD
HETATM    9  C   UNK N   1      24.474  15.804   4.800  0.00  0.00     0.032 A 
HETATM   10  C   UNK N   1      22.644  16.961   5.860  0.00  0.00     0.008 A 
HETATM   11  C   UNK N   1      24.787  16.982   4.091  0.00  0.00     0.026 A 
HETATM   12  C   UNK N   1      24.015  18.147   4.276  0.00  0.00     0.035 A 
HETATM   13  C   UNK N   1      22.937  18.133   5.164  0.00  0.00     0.038 A 
HETATM   14 Cl   UNK N   1      24.389  19.620   3.406  0.00  0.00    -0.084 Cl
ENDBRANCH   2   4
ENDBRANCH   1   2
BRANCH   1  15
HETATM   15  C   UNK N   1      18.757  16.730   8.913  0.00  0.00     0.116 C 
BRANCH  15  16
HETATM   16  C   UNK N   1      18.376  17.922   9.707  0.00  0.00     0.171 A 
HETATM   17  N   UNK N   1      19.197  18.928  10.052  0.00  0.00    -0.266 N 
HETATM   18  N   UNK N   1      18.457  19.756  10.774  0.00  0.00    -0.227 N 
ATOM     19  HN  UNK N   1      20.182  19.031   9.809  1.00  0.00     0.190 HD
HETATM   20  N   UNK N   1      17.225  19.278  10.875  0.00  0.00    -0.227 N 
HETATM   21  H   UNK N   1      18.775  20.598  11.174  0.00  0.00     0.210 HD
HETATM   22  N   UNK N   1      17.147  18.136  10.219  0.00  0.00    -0.266 N 
ATOM     23  HN  UNK N   1      16.459  19.723  11.379  1.00  0.00     0.210 HD
ATOM     24  HN  UNK N   1      16.327  17.538  10.120  1.00  0.00     0.190 HD
ENDBRANCH  15  16
BRANCH  15  25
HETATM   25  O   UNK N   1      18.579  15.490   9.411  0.00  0.00    -0.357 OA
HETATM   26  H   UNK N   1      18.783  15.305  10.307  0.00  0.00     0.218 HD
ENDBRANCH  15  25
ENDBRANCH   1  15
TORSDOF 5
ENDMDL
MODEL 9
REMARK VINA RESULT:      -6.6     11.671     14.302
REMARK  5 active torsions:
REMARK  status: ('A' for Active; 'I' for Inactive)
REMARK    1  A    between atoms: C_10  and  C_4 
REMARK    2  A    between atoms: C_11  and  C_4 
REMARK    3  A    between atoms: C_10  and  C_8 
REMARK    4  A    between atoms: C_12  and  C_11 
REMARK    5  A    between atoms: O_23  and  C_11 
ROOT
HETATM    1  C   UNK N   1      34.258  16.502   9.302  0.00  0.00     0.096 C 
ENDROOT
BRANCH   1   2
HETATM    2  C   UNK N   1      33.695  17.639   8.530  0.00  0.00     0.187 C 
HETATM    3  O   UNK N   1      34.343  18.664   8.374  0.00  0.00    -0.287 OA
BRANCH   2   4
HETATM    4  C   UNK N   1      32.338  17.519   7.917  0.00  0.00     0.042 A 
HETATM    5  C   UNK N   1      31.127  17.679   8.588  0.00  0.00     0.104 A 
HETATM    6  N   UNK N   1      30.093  17.517   7.720  0.00  0.00    -0.364 N 
HETATM    7  C   UNK N   1      30.643  17.263   6.519  0.00  0.00     0.043 A 
HETATM    8  H   UNK N   1      29.133  17.575   7.929  0.00  0.00     0.165 HD
HETATM    9  C   UNK N   1      29.970  17.035   5.318  0.00  0.00     0.032 A 
HETATM   10  C   UNK N   1      32.004  17.256   6.594  0.00  0.00     0.008 A 
HETATM   11  C   UNK N   1      30.741  16.792   4.162  0.00  0.00     0.026 A 
HETATM   12  C   UNK N   1      32.149  16.786   4.238  0.00  0.00     0.035 A 
HETATM   13  C   UNK N   1      32.781  17.022   5.461  0.00  0.00     0.038 A 
HETATM   14 Cl   UNK N   1      33.124  16.486   2.814  0.00  0.00    -0.084 Cl
ENDBRANCH   2   4
ENDBRANCH   1   2
BRANCH   1  15
HETATM   15  C   UNK N   1      35.125  16.556  10.325  0.00  0.00     0.116 C 
BRANCH  15  16
HETATM   16  C   UNK N   1      35.175  15.402  11.255  0.00  0.00     0.171 A 
HETATM   17  N   UNK N   1      36.113  15.193  12.193  0.00  0.00    -0.266 N 
HETATM   18  N   UNK N   1      35.790  14.042  12.765  0.00  0.00    -0.227 N 
ATOM     19  HN  UNK N   1      36.907  15.793  12.416  1.00  0.00     0.190 HD
HETATM   20  N   UNK N   1      34.694  13.557  12.200  0.00  0.00    -0.227 N 
HETATM   21  H   UNK N   1      36.288  13.615  13.500  0.00  0.00     0.210 HD
HETATM   22  N   UNK N   1      34.290  14.384  11.255  0.00  0.00    -0.266 N 
ATOM     23  HN  UNK N   1      34.236  12.683  12.455  1.00  0.00     0.210 HD
ATOM     24  HN  UNK N   1      33.477  14.276  10.649  1.00  0.00     0.190 HD
ENDBRANCH  15  16
BRANCH  15  25
HETATM   25  O   UNK N   1      35.949  17.609  10.496  0.00  0.00    -0.357 OA
HETATM   26  H   UNK N   1      35.599  18.468  10.626  0.00  0.00     0.218 HD
ENDBRANCH  15  25
ENDBRANCH   1  15
TORSDOF 5
ENDMDL
