MODEL 1
REMARK VINA RESULT:      -5.0      0.000      0.000
REMARK  3 active torsions:
REMARK  status: ('A' for Active; 'I' for Inactive)
REMARK    1  A    between atoms: C_6  and  C_7 
REMARK    2  A    between atoms: C_7  and  C_8 
REMARK    3  A    between atoms: C_10  and  O_11 
ROOT
HETATM    1  C   UNK N   1      23.111  11.767  13.018  0.00  0.00     0.051 C 
HETATM    2  C   UNK N   1      22.940  12.171  11.594  0.00  0.00    -0.028 A 
HETATM    3  C   UNK N   1      21.657  12.222  11.050  0.00  0.00     0.009 A 
HETATM    4  C   UNK N   1      21.472  12.598   9.721  0.00  0.00     0.001 A 
HETATM    5  C   UNK N   1      22.570  12.924   8.928  0.00  0.00     0.010 A 
HETATM    6  C   UNK N   1      23.869  12.882   9.448  0.00  0.00    -0.021 A 
HETATM    7  C   UNK N   1      24.056  12.499  10.805  0.00  0.00     0.078 A 
ENDROOT
BRANCH   6   8
HETATM    8  C   UNK N   1      24.980  13.257   8.498  0.00  0.00     0.067 C 
BRANCH   8   9
HETATM    9  C   UNK N   1      24.592  14.083   7.319  0.00  0.00    -0.032 C 
HETATM   10  C   UNK N   1      25.366  15.086   6.925  0.00  0.00     0.007 C 
ENDBRANCH   8   9
ENDBRANCH   6   8
BRANCH   7  11
HETATM   11  O   UNK N   1      25.284  12.442  11.354  0.00  0.00    -0.360 OA
HETATM   12  H   UNK N   1      25.382  12.476  12.285  0.00  0.00     0.217 HD
ENDBRANCH   7  11
TORSDOF 3
ENDMDL
MODEL 2
REMARK VINA RESULT:      -5.0     12.915     14.080
REMARK  3 active torsions:
REMARK  status: ('A' for Active; 'I' for Inactive)
REMARK    1  A    between atoms: C_6  and  C_7 
REMARK    2  A    between atoms: C_7  and  C_8 
REMARK    3  A    between atoms: C_10  and  O_11 
ROOT
HETATM    1  C   UNK N   1      37.553  15.990  16.015  0.00  0.00     0.051 C 
HETATM    2  C   UNK N   1      36.690  14.878  16.502  0.00  0.00    -0.028 A 
HETATM    3  C   UNK N   1      36.065  14.995  17.743  0.00  0.00     0.009 A 
HETATM    4  C   UNK N   1      35.252  13.968  18.220  0.00  0.00     0.001 A 
HETATM    5  C   UNK N   1      35.061  12.818  17.457  0.00  0.00     0.010 A 
HETATM    6  C   UNK N   1      35.676  12.674  16.209  0.00  0.00    -0.021 A 
HETATM    7  C   UNK N   1      36.504  13.723  15.723  0.00  0.00     0.078 A 
ENDROOT
BRANCH   6   8
HETATM    8  C   UNK N   1      35.396  11.386  15.472  0.00  0.00     0.067 C 
BRANCH   8   9
HETATM    9  C   UNK N   1      34.013  11.213  14.944  0.00  0.00    -0.032 C 
HETATM   10  C   UNK N   1      33.811  10.570  13.802  0.00  0.00     0.007 C 
ENDBRANCH   8   9
ENDBRANCH   6   8
BRANCH   7  11
HETATM   11  O   UNK N   1      37.119  13.635  14.529  0.00  0.00    -0.360 OA
HETATM   12  H   UNK N   1      37.498  12.823  14.256  0.00  0.00     0.217 HD
ENDBRANCH   7  11
TORSDOF 3
ENDMDL
MODEL 3
REMARK VINA RESULT:      -4.7      1.937      3.022
REMARK  3 active torsions:
REMARK  status: ('A' for Active; 'I' for Inactive)
REMARK    1  A    between atoms: C_6  and  C_7 
REMARK    2  A    between atoms: C_7  and  C_8 
REMARK    3  A    between atoms: C_10  and  O_11 
ROOT
HETATM    1  C   UNK N   1      23.085  11.767  13.026  0.00  0.00     0.051 C 
HETATM    2  C   UNK N   1      23.249  12.111  11.586  0.00  0.00    -0.028 A 
HETATM    3  C   UNK N   1      24.534  12.200  11.050  0.00  0.00     0.009 A 
HETATM    4  C   UNK N   1      24.713  12.521   9.705  0.00  0.00     0.001 A 
HETATM    5  C   UNK N   1      23.607  12.755   8.890  0.00  0.00     0.010 A 
HETATM    6  C   UNK N   1      22.308  12.673   9.402  0.00  0.00    -0.021 A 
HETATM    7  C   UNK N   1      22.127  12.346  10.774  0.00  0.00     0.078 A 
ENDROOT
BRANCH   6   8
HETATM    8  C   UNK N   1      21.188  12.947   8.427  0.00  0.00     0.067 C 
BRANCH   8   9
HETATM    9  C   UNK N   1      20.953  14.376   8.074  0.00  0.00    -0.032 C 
HETATM   10  C   UNK N   1      20.661  15.257   9.022  0.00  0.00     0.007 C 
ENDBRANCH   8   9
ENDBRANCH   6   8
BRANCH   7  11
HETATM   11  O   UNK N   1      20.898  12.254  11.316  0.00  0.00    -0.360 OA
HETATM   12  H   UNK N   1      20.684  11.530  11.872  0.00  0.00     0.217 HD
ENDBRANCH   7  11
TORSDOF 3
ENDMDL
MODEL 4
REMARK VINA RESULT:      -4.7     13.671     14.798
REMARK  3 active torsions:
REMARK  status: ('A' for Active; 'I' for Inactive)
REMARK    1  A    between atoms: C_6  and  C_7 
REMARK    2  A    between atoms: C_7  and  C_8 
REMARK    3  A    between atoms: C_10  and  O_11 
ROOT
HETATM    1  C   UNK N   1      35.303  15.042  18.428  0.00  0.00     0.051 C 
HETATM    2  C   UNK N   1      35.281  13.612  18.009  0.00  0.00    -0.028 A 
HETATM    3  C   UNK N   1      35.282  13.302  16.649  0.00  0.00     0.009 A 
HETATM    4  C   UNK N   1      35.261  11.972  16.232  0.00  0.00     0.001 A 
HETATM    5  C   UNK N   1      35.239  10.945  17.174  0.00  0.00     0.010 A 
HETATM    6  C   UNK N   1      35.237  11.228  18.544  0.00  0.00    -0.021 A 
HETATM    7  C   UNK N   1      35.258  12.585  18.968  0.00  0.00     0.078 A 
ENDROOT
BRANCH   6   8
HETATM    8  C   UNK N   1      35.212  10.037  19.471  0.00  0.00     0.067 C 
BRANCH   8   9
HETATM    9  C   UNK N   1      34.320   8.909  19.076  0.00  0.00    -0.032 C 
HETATM   10  C   UNK N   1      33.106   8.805  19.599  0.00  0.00     0.007 C 
ENDBRANCH   8   9
ENDBRANCH   6   8
BRANCH   7  11
HETATM   11  O   UNK N   1      35.258  12.912  20.274  0.00  0.00    -0.360 OA
HETATM   12  H   UNK N   1      34.609  12.552  20.846  0.00  0.00     0.217 HD
ENDBRANCH   7  11
TORSDOF 3
ENDMDL
MODEL 5
REMARK VINA RESULT:      -4.7     19.063     21.833
REMARK  3 active torsions:
REMARK  status: ('A' for Active; 'I' for Inactive)
REMARK    1  A    between atoms: C_6  and  C_7 
REMARK    2  A    between atoms: C_7  and  C_8 
REMARK    3  A    between atoms: C_10  and  O_11 
ROOT
HETATM    1  C   UNK N   1      28.625  29.649  -6.757  0.00  0.00     0.051 C 
HETATM    2  C   UNK N   1      27.567  29.109  -5.857  0.00  0.00    -0.028 A 
HETATM    3  C   UNK N   1      27.285  29.774  -4.664  0.00  0.00     0.009 A 
HETATM    4  C   UNK N   1      26.300  29.289  -3.806  0.00  0.00     0.001 A 
HETATM    5  C   UNK N   1      25.592  28.135  -4.137  0.00  0.00     0.010 A 
HETATM    6  C   UNK N   1      25.854  27.448  -5.327  0.00  0.00    -0.021 A 
HETATM    7  C   UNK N   1      26.860  27.945  -6.202  0.00  0.00     0.078 A 
ENDROOT
BRANCH   6   8
HETATM    8  C   UNK N   1      25.026  26.212  -5.581  0.00  0.00     0.067 C 
BRANCH   8   9
HETATM    9  C   UNK N   1      25.727  24.905  -5.434  0.00  0.00    -0.032 C 
HETATM   10  C   UNK N   1      26.168  24.515  -4.246  0.00  0.00     0.007 C 
ENDBRANCH   8   9
ENDBRANCH   6   8
BRANCH   7  11
HETATM   11  O   UNK N   1      27.152  27.322  -7.359  0.00  0.00    -0.360 OA
HETATM   12  H   UNK N   1      26.576  27.405  -8.094  0.00  0.00     0.217 HD
ENDBRANCH   7  11
TORSDOF 3
ENDMDL
MODEL 6
REMARK VINA RESULT:      -4.6     12.686     13.840
REMARK  3 active torsions:
REMARK  status: ('A' for Active; 'I' for Inactive)
REMARK    1  A    between atoms: C_6  and  C_7 
REMARK    2  A    between atoms: C_7  and  C_8 
REMARK    3  A    between atoms: C_10  and  O_11 
ROOT
HETATM    1  C   UNK N   1      35.469  10.689  20.347  0.00  0.00     0.051 C 
HETATM    2  C   UNK N   1      35.354  11.524  19.118  0.00  0.00    -0.028 A 
HETATM    3  C   UNK N   1      35.245  12.909  19.244  0.00  0.00     0.009 A 
HETATM    4  C   UNK N   1      35.137  13.711  18.110  0.00  0.00     0.001 A 
HETATM    5  C   UNK N   1      35.136  13.131  16.842  0.00  0.00     0.010 A 
HETATM    6  C   UNK N   1      35.244  11.745  16.687  0.00  0.00    -0.021 A 
HETATM    7  C   UNK N   1      35.355  10.928  17.846  0.00  0.00     0.078 A 
ENDROOT
BRANCH   6   8
HETATM    8  C   UNK N   1      35.233  11.230  15.268  0.00  0.00     0.067 C 
BRANCH   8   9
HETATM    9  C   UNK N   1      33.902  10.857  14.710  0.00  0.00    -0.032 C 
HETATM   10  C   UNK N   1      33.792  10.480  13.444  0.00  0.00     0.007 C 
ENDBRANCH   8   9
ENDBRANCH   6   8
BRANCH   7  11
HETATM   11  O   UNK N   1      35.462   9.589  17.752  0.00  0.00    -0.360 OA
HETATM   12  H   UNK N   1      35.729   9.088  18.497  0.00  0.00     0.217 HD
ENDBRANCH   7  11
TORSDOF 3
ENDMDL
MODEL 7
REMARK VINA RESULT:      -4.6      7.713      8.818
REMARK  3 active torsions:
REMARK  status: ('A' for Active; 'I' for Inactive)
REMARK    1  A    between atoms: C_6  and  C_7 
REMARK    2  A    between atoms: C_7  and  C_8 
REMARK    3  A    between atoms: C_10  and  O_11 
ROOT
HETATM    1  C   UNK N   1      28.481  18.168   9.195  0.00  0.00     0.051 C 
HETATM    2  C   UNK N   1      28.511  18.357   7.717  0.00  0.00    -0.028 A 
HETATM    3  C   UNK N   1      29.333  17.539   6.943  0.00  0.00     0.009 A 
HETATM    4  C   UNK N   1      29.378  17.697   5.559  0.00  0.00     0.001 A 
HETATM    5  C   UNK N   1      28.600  18.675   4.942  0.00  0.00     0.010 A 
HETATM    6  C   UNK N   1      27.766  19.509   5.695  0.00  0.00    -0.021 A 
HETATM    7  C   UNK N   1      27.721  19.347   7.107  0.00  0.00     0.078 A 
ENDROOT
BRANCH   6   8
HETATM    8  C   UNK N   1      26.970  20.531   4.920  0.00  0.00     0.067 C 
BRANCH   8   9
HETATM    9  C   UNK N   1      26.733  20.231   3.479  0.00  0.00    -0.032 C 
HETATM   10  C   UNK N   1      25.517  20.355   2.963  0.00  0.00     0.007 C 
ENDBRANCH   8   9
ENDBRANCH   6   8
BRANCH   7  11
HETATM   11  O   UNK N   1      26.936  20.123   7.877  0.00  0.00    -0.360 OA
HETATM   12  H   UNK N   1      27.302  20.858   8.329  0.00  0.00     0.217 HD
ENDBRANCH   7  11
TORSDOF 3
ENDMDL
MODEL 8
REMARK VINA RESULT:      -4.6     13.352     14.415
REMARK  3 active torsions:
REMARK  status: ('A' for Active; 'I' for Inactive)
REMARK    1  A    between atoms: C_6  and  C_7 
REMARK    2  A    between atoms: C_7  and  C_8 
REMARK    3  A    between atoms: C_10  and  O_11 
ROOT
HETATM    1  C   UNK N   1      36.186   9.461  18.871  0.00  0.00     0.051 C 
HETATM    2  C   UNK N   1      35.792  10.864  18.558  0.00  0.00    -0.028 A 
HETATM    3  C   UNK N   1      35.494  11.736  19.604  0.00  0.00     0.009 A 
HETATM    4  C   UNK N   1      35.123  13.053  19.337  0.00  0.00     0.001 A 
HETATM    5  C   UNK N   1      35.050  13.504  18.020  0.00  0.00     0.010 A 
HETATM    6  C   UNK N   1      35.343  12.650  16.951  0.00  0.00    -0.021 A 
HETATM    7  C   UNK N   1      35.721  11.307  17.226  0.00  0.00     0.078 A 
ENDROOT
BRANCH   6   8
HETATM    8  C   UNK N   1      35.230  13.247  15.570  0.00  0.00     0.067 C 
BRANCH   8   9
HETATM    9  C   UNK N   1      36.494  13.751  14.961  0.00  0.00    -0.032 C 
HETATM   10  C   UNK N   1      37.133  14.777  15.505  0.00  0.00     0.007 C 
ENDBRANCH   8   9
ENDBRANCH   6   8
BRANCH   7  11
HETATM   11  O   UNK N   1      36.015  10.444  16.235  0.00  0.00    -0.360 OA
HETATM   12  H   UNK N   1      35.324  10.022  15.762  0.00  0.00     0.217 HD
ENDBRANCH   7  11
TORSDOF 3
ENDMDL
MODEL 9
REMARK VINA RESULT:      -4.6     11.979     13.105
REMARK  3 active torsions:
REMARK  status: ('A' for Active; 'I' for Inactive)
REMARK    1  A    between atoms: C_6  and  C_7 
REMARK    2  A    between atoms: C_7  and  C_8 
REMARK    3  A    between atoms: C_10  and  O_11 
ROOT
HETATM    1  C   UNK N   1      35.407  13.871  17.637  0.00  0.00     0.051 C 
HETATM    2  C   UNK N   1      35.135  12.481  17.171  0.00  0.00    -0.028 A 
HETATM    3  C   UNK N   1      35.360  11.416  18.042  0.00  0.00     0.009 A 
HETATM    4  C   UNK N   1      35.113  10.108  17.630  0.00  0.00     0.001 A 
HETATM    5  C   UNK N   1      34.638   9.859  16.343  0.00  0.00     0.010 A 
HETATM    6  C   UNK N   1      34.404  10.909  15.449  0.00  0.00    -0.021 A 
HETATM    7  C   UNK N   1      34.657  12.244  15.872  0.00  0.00     0.078 A 
ENDROOT
BRANCH   6   8
HETATM    8  C   UNK N   1      33.890  10.521  14.084  0.00  0.00     0.067 C 
BRANCH   8   9
HETATM    9  C   UNK N   1      34.918  10.125  13.079  0.00  0.00    -0.032 C 
HETATM   10  C   UNK N   1      35.139   8.842  12.822  0.00  0.00     0.007 C 
ENDBRANCH   8   9
ENDBRANCH   6   8
BRANCH   7  11
HETATM   11  O   UNK N   1      34.447  13.291  15.051  0.00  0.00    -0.360 OA
HETATM   12  H   UNK N   1      34.435  13.163  14.123  0.00  0.00     0.217 HD
ENDBRANCH   7  11
TORSDOF 3
ENDMDL
