MODEL 1
REMARK VINA RESULT:      -4.5      0.000      0.000
REMARK  1 active torsions:
REMARK  status: ('A' for Active; 'I' for Inactive)
REMARK    1  A    between atoms: O_1  and  C_2 
ROOT
HETATM    1  C   UNK N   1      24.164  12.449  10.783  0.00  0.00     0.087 A 
HETATM    2  C   UNK N   1      24.050  12.738   9.419  0.00  0.00     0.038 A 
HETATM    3  C   UNK N   1      22.792  12.764   8.810  0.00  0.00     0.003 A 
HETATM    4  C   UNK N   1      21.644  12.502   9.564  0.00  0.00     0.002 A 
HETATM    5  C   UNK N   1      21.755  12.212  10.927  0.00  0.00     0.026 A 
HETATM    6  C   UNK N   1      23.012  12.185  11.538  0.00  0.00     0.067 A 
HETATM    7 Cl   UNK N   1      23.135  11.820  13.248  0.00  0.00    -0.081 Cl
ENDROOT
BRANCH   1   8
HETATM    8  O   UNK N   1      25.377  12.425  11.361  0.00  0.00    -0.359 OA
HETATM    9  H   UNK N   1      26.127  12.167  10.864  0.00  0.00     0.217 HD
ENDBRANCH   1   8
TORSDOF 1
ENDMDL
MODEL 2
REMARK VINA RESULT:      -4.3      1.753      2.287
REMARK  1 active torsions:
REMARK  status: ('A' for Active; 'I' for Inactive)
REMARK    1  A    between atoms: O_1  and  C_2 
ROOT
HETATM    1  C   UNK N   1      22.995  11.880  11.928  0.00  0.00     0.087 A 
HETATM    2  C   UNK N   1      24.313  12.016  11.477  0.00  0.00     0.038 A 
HETATM    3  C   UNK N   1      24.569  12.572  10.220  0.00  0.00     0.003 A 
HETATM    4  C   UNK N   1      23.509  12.994   9.412  0.00  0.00     0.002 A 
HETATM    5  C   UNK N   1      22.192  12.859   9.860  0.00  0.00     0.026 A 
HETATM    6  C   UNK N   1      21.933  12.303  11.117  0.00  0.00     0.067 A 
HETATM    7 Cl   UNK N   1      20.277  12.140  11.665  0.00  0.00    -0.081 Cl
ENDROOT
BRANCH   1   8
HETATM    8  O   UNK N   1      22.756  11.344  13.137  0.00  0.00    -0.359 OA
HETATM    9  H   UNK N   1      23.009  10.460  13.316  0.00  0.00     0.217 HD
ENDBRANCH   1   8
TORSDOF 1
ENDMDL
MODEL 3
REMARK VINA RESULT:      -4.3      1.890      2.532
REMARK  1 active torsions:
REMARK  status: ('A' for Active; 'I' for Inactive)
REMARK    1  A    between atoms: O_1  and  C_2 
ROOT
HETATM    1  C   UNK N   1      23.959  12.270  11.053  0.00  0.00     0.087 A 
HETATM    2  C   UNK N   1      22.867  11.872  11.831  0.00  0.00     0.038 A 
HETATM    3  C   UNK N   1      21.566  12.192  11.429  0.00  0.00     0.003 A 
HETATM    4  C   UNK N   1      21.356  12.910  10.249  0.00  0.00     0.002 A 
HETATM    5  C   UNK N   1      22.445  13.310   9.470  0.00  0.00     0.026 A 
HETATM    6  C   UNK N   1      23.747  12.991   9.869  0.00  0.00     0.067 A 
HETATM    7 Cl   UNK N   1      25.103  13.498   8.882  0.00  0.00    -0.081 Cl
ENDROOT
BRANCH   1   8
HETATM    8  O   UNK N   1      25.206  11.959  11.446  0.00  0.00    -0.359 OA
HETATM    9  H   UNK N   1      25.532  11.089  11.325  0.00  0.00     0.217 HD
ENDBRANCH   1   8
TORSDOF 1
ENDMDL
MODEL 4
REMARK VINA RESULT:      -4.3      1.652      2.379
REMARK  1 active torsions:
REMARK  status: ('A' for Active; 'I' for Inactive)
REMARK    1  A    between atoms: O_1  and  C_2 
ROOT
HETATM    1  C   UNK N   1      22.032  12.083  11.011  0.00  0.00     0.087 A 
HETATM    2  C   UNK N   1      21.995  12.215   9.618  0.00  0.00     0.038 A 
HETATM    3  C   UNK N   1      23.185  12.339   8.895  0.00  0.00     0.003 A 
HETATM    4  C   UNK N   1      24.414  12.330   9.561  0.00  0.00     0.002 A 
HETATM    5  C   UNK N   1      24.453  12.198  10.952  0.00  0.00     0.026 A 
HETATM    6  C   UNK N   1      23.265  12.075  11.678  0.00  0.00     0.067 A 
HETATM    7 Cl   UNK N   1      23.330  11.910  13.422  0.00  0.00    -0.081 Cl
ENDROOT
BRANCH   1   8
HETATM    8  O   UNK N   1      20.885  11.965  11.700  0.00  0.00    -0.359 OA
HETATM    9  H   UNK N   1      20.117  11.632  11.278  0.00  0.00     0.217 HD
ENDBRANCH   1   8
TORSDOF 1
ENDMDL
MODEL 5
REMARK VINA RESULT:      -4.2      2.179      2.760
REMARK  1 active torsions:
REMARK  status: ('A' for Active; 'I' for Inactive)
REMARK    1  A    between atoms: O_1  and  C_2 
ROOT
HETATM    1  C   UNK N   1      22.034  12.473   9.657  0.00  0.00     0.087 A 
HETATM    2  C   UNK N   1      23.318  12.548   9.105  0.00  0.00     0.038 A 
HETATM    3  C   UNK N   1      24.441  12.339   9.912  0.00  0.00     0.003 A 
HETATM    4  C   UNK N   1      24.283  12.054  11.271  0.00  0.00     0.002 A 
HETATM    5  C   UNK N   1      23.002  11.978  11.825  0.00  0.00     0.026 A 
HETATM    6  C   UNK N   1      21.877  12.187  11.021  0.00  0.00     0.067 A 
HETATM    7 Cl   UNK N   1      20.277  12.088  11.729  0.00  0.00    -0.081 Cl
ENDROOT
BRANCH   1   8
HETATM    8  O   UNK N   1      20.960  12.675   8.876  0.00  0.00    -0.359 OA
HETATM    9  H   UNK N   1      20.276  12.036   8.846  0.00  0.00     0.217 HD
ENDBRANCH   1   8
TORSDOF 1
ENDMDL
MODEL 6
REMARK VINA RESULT:      -4.1     19.751     20.619
REMARK  1 active torsions:
REMARK  status: ('A' for Active; 'I' for Inactive)
REMARK    1  A    between atoms: O_1  and  C_2 
ROOT
HETATM    1  C   UNK N   1      26.323  25.523  -3.730  0.00  0.00     0.087 A 
HETATM    2  C   UNK N   1      26.247  26.831  -3.239  0.00  0.00     0.038 A 
HETATM    3  C   UNK N   1      25.639  27.832  -4.004  0.00  0.00     0.003 A 
HETATM    4  C   UNK N   1      25.107  27.527  -5.260  0.00  0.00     0.002 A 
HETATM    5  C   UNK N   1      25.182  26.221  -5.752  0.00  0.00     0.026 A 
HETATM    6  C   UNK N   1      25.789  25.218  -4.990  0.00  0.00     0.067 A 
HETATM    7 Cl   UNK N   1      25.876  23.586  -5.620  0.00  0.00    -0.081 Cl
ENDROOT
BRANCH   1   8
HETATM    8  O   UNK N   1      26.909  24.566  -2.990  0.00  0.00    -0.359 OA
HETATM    9  H   UNK N   1      26.383  23.936  -2.538  0.00  0.00     0.217 HD
ENDBRANCH   1   8
TORSDOF 1
ENDMDL
MODEL 7
REMARK VINA RESULT:      -4.1     19.970     20.784
REMARK  1 active torsions:
REMARK  status: ('A' for Active; 'I' for Inactive)
REMARK    1  A    between atoms: O_1  and  C_2 
ROOT
HETATM    1  C   UNK N   1      25.548  25.486  -5.236  0.00  0.00     0.087 A 
HETATM    2  C   UNK N   1      24.969  26.661  -5.726  0.00  0.00     0.038 A 
HETATM    3  C   UNK N   1      25.096  27.856  -5.010  0.00  0.00     0.003 A 
HETATM    4  C   UNK N   1      25.801  27.877  -3.804  0.00  0.00     0.002 A 
HETATM    5  C   UNK N   1      26.381  26.704  -3.312  0.00  0.00     0.026 A 
HETATM    6  C   UNK N   1      26.256  25.508  -4.026  0.00  0.00     0.067 A 
HETATM    7 Cl   UNK N   1      26.988  24.046  -3.398  0.00  0.00    -0.081 Cl
ENDROOT
BRANCH   1   8
HETATM    8  O   UNK N   1      25.423  24.341  -5.930  0.00  0.00    -0.359 OA
HETATM    9  H   UNK N   1      24.730  23.745  -5.727  0.00  0.00     0.217 HD
ENDBRANCH   1   8
TORSDOF 1
ENDMDL
MODEL 8
REMARK VINA RESULT:      -4.0     14.100     14.492
REMARK  1 active torsions:
REMARK  status: ('A' for Active; 'I' for Inactive)
REMARK    1  A    between atoms: O_1  and  C_2 
ROOT
HETATM    1  C   UNK N   1      35.139  12.918  19.161  0.00  0.00     0.087 A 
HETATM    2  C   UNK N   1      35.162  13.787  18.065  0.00  0.00     0.038 A 
HETATM    3  C   UNK N   1      35.409  13.291  16.782  0.00  0.00     0.003 A 
HETATM    4  C   UNK N   1      35.634  11.925  16.591  0.00  0.00     0.002 A 
HETATM    5  C   UNK N   1      35.612  11.054  17.684  0.00  0.00     0.026 A 
HETATM    6  C   UNK N   1      35.364  11.547  18.969  0.00  0.00     0.067 A 
HETATM    7 Cl   UNK N   1      35.339  10.443  20.329  0.00  0.00    -0.081 Cl
ENDROOT
BRANCH   1   8
HETATM    8  O   UNK N   1      34.900  13.402  20.392  0.00  0.00    -0.359 OA
HETATM    9  H   UNK N   1      34.487  12.861  21.035  0.00  0.00     0.217 HD
ENDBRANCH   1   8
TORSDOF 1
ENDMDL
MODEL 9
REMARK VINA RESULT:      -3.9      7.942      8.882
REMARK  1 active torsions:
REMARK  status: ('A' for Active; 'I' for Inactive)
REMARK    1  A    between atoms: O_1  and  C_2 
ROOT
HETATM    1  C   UNK N   1      28.588  17.987   8.812  0.00  0.00     0.087 A 
HETATM    2  C   UNK N   1      29.752  18.500   9.395  0.00  0.00     0.038 A 
HETATM    3  C   UNK N   1      31.000  18.223   8.829  0.00  0.00     0.003 A 
HETATM    4  C   UNK N   1      31.087  17.433   7.679  0.00  0.00     0.002 A 
HETATM    5  C   UNK N   1      29.926  16.920   7.094  0.00  0.00     0.026 A 
HETATM    6  C   UNK N   1      28.676  17.195   7.658  0.00  0.00     0.067 A 
HETATM    7 Cl   UNK N   1      27.229  16.545   6.914  0.00  0.00    -0.081 Cl
ENDROOT
BRANCH   1   8
HETATM    8  O   UNK N   1      27.392  18.258   9.361  0.00  0.00    -0.359 OA
HETATM    9  H   UNK N   1      26.737  18.702   8.861  0.00  0.00     0.217 HD
ENDBRANCH   1   8
TORSDOF 1
ENDMDL
