MODEL 1
REMARK VINA RESULT:      -5.4      0.000      0.000
REMARK  7 active torsions:
REMARK  status: ('A' for Active; 'I' for Inactive)
REMARK    1  A    between atoms: C_2  and  O_1 
REMARK    2  A    between atoms: C_2  and  C_3 
REMARK    3  A    between atoms: C_2  and  C_9 
REMARK    4  A    between atoms: C_3  and  C_4 
REMARK    5  A    between atoms: C_4  and  C_6 
REMARK    6  A    between atoms: C_9  and  O_10 
REMARK    7  A    between atoms: C_9  and  C_11 
ROOT
HETATM    1  C   UNK N   1      34.506  15.840  10.786  0.00  0.00     0.165 C 
ENDROOT
BRANCH   1   2
HETATM    2  O   UNK N   1      33.373  15.076  11.076  0.00  0.00    -0.392 OA
HETATM    3  H   UNK N   1      33.214  14.763  11.980  0.00  0.00     0.210 HD
ENDBRANCH   1   2
BRANCH   1   4
HETATM    4  C   UNK N   1      34.622  16.001   9.273  0.00  0.00     0.125 C 
BRANCH   4   5
HETATM    5  C   UNK N   1      33.808  17.127   8.708  0.00  0.00     0.227 C 
HETATM    6  O   UNK N   1      32.600  17.161   8.891  0.00  0.00    -0.286 OA
BRANCH   5   7
HETATM    7  C   UNK N   1      34.452  18.159   7.873  0.00  0.00     0.246 C 
HETATM    8  O   UNK N   1      34.422  18.058   6.531  0.00  0.00    -0.642 OA
HETATM    9  O   UNK N   1      35.033  19.099   8.395  0.00  0.00    -0.642 OA
ENDBRANCH   5   7
ENDBRANCH   4   5
ENDBRANCH   1   4
BRANCH   1  10
HETATM   10  C   UNK N   1      35.776  15.125  11.264  0.00  0.00     0.247 C 
BRANCH  10  11
HETATM   11  O   UNK N   1      36.865  15.994  11.148  0.00  0.00    -0.382 OA
HETATM   12  H   UNK N   1      37.717  15.685  10.802  0.00  0.00     0.210 HD
ENDBRANCH  10  11
BRANCH  10  13
HETATM   13  C   UNK N   1      35.695  14.579  12.666  0.00  0.00     0.205 C 
HETATM   14  O   UNK N   1      36.525  15.037  13.625  0.00  0.00    -0.646 OA
HETATM   15  O   UNK N   1      34.919  13.673  12.925  0.00  0.00    -0.646 OA
ENDBRANCH  10  13
ENDBRANCH   1  10
TORSDOF 7
ENDMDL
MODEL 2
REMARK VINA RESULT:      -5.4      1.048      1.809
REMARK  7 active torsions:
REMARK  status: ('A' for Active; 'I' for Inactive)
REMARK    1  A    between atoms: C_2  and  O_1 
REMARK    2  A    between atoms: C_2  and  C_3 
REMARK    3  A    between atoms: C_2  and  C_9 
REMARK    4  A    between atoms: C_3  and  C_4 
REMARK    5  A    between atoms: C_4  and  C_6 
REMARK    6  A    between atoms: C_9  and  O_10 
REMARK    7  A    between atoms: C_9  and  C_11 
ROOT
HETATM    1  C   UNK N   1      35.714  15.650  10.558  0.00  0.00     0.165 C 
ENDROOT
BRANCH   1   2
HETATM    2  O   UNK N   1      37.035  15.840  10.969  0.00  0.00    -0.392 OA
HETATM    3  H   UNK N   1      37.274  15.741  11.904  0.00  0.00     0.210 HD
ENDBRANCH   1   2
BRANCH   1   4
HETATM    4  C   UNK N   1      35.106  17.003  10.198  0.00  0.00     0.125 C 
BRANCH   4   5
HETATM    5  C   UNK N   1      34.420  17.036   8.865  0.00  0.00     0.227 C 
HETATM    6  O   UNK N   1      33.749  16.082   8.498  0.00  0.00    -0.286 OA
BRANCH   5   7
HETATM    7  C   UNK N   1      34.609  18.189   7.965  0.00  0.00     0.246 C 
HETATM    8  O   UNK N   1      34.306  18.084   6.658  0.00  0.00    -0.642 OA
HETATM    9  O   UNK N   1      35.061  19.239   8.397  0.00  0.00    -0.642 OA
ENDBRANCH   5   7
ENDBRANCH   4   5
ENDBRANCH   1   4
BRANCH   1  10
HETATM   10  C   UNK N   1      34.873  15.066  11.701  0.00  0.00     0.247 C 
BRANCH  10  11
HETATM   11  O   UNK N   1      33.554  14.904  11.265  0.00  0.00    -0.382 OA
HETATM   12  H   UNK N   1      33.340  14.872  10.319  0.00  0.00     0.210 HD
ENDBRANCH  10  11
BRANCH  10  13
HETATM   13  C   UNK N   1      35.396  13.770  12.262  0.00  0.00     0.205 C 
HETATM   14  O   UNK N   1      36.433  13.140  11.673  0.00  0.00    -0.646 OA
HETATM   15  O   UNK N   1      34.842  13.250  13.218  0.00  0.00    -0.646 OA
ENDBRANCH  10  13
ENDBRANCH   1  10
TORSDOF 7
ENDMDL
MODEL 3
REMARK VINA RESULT:      -5.4     15.618     17.120
REMARK  7 active torsions:
REMARK  status: ('A' for Active; 'I' for Inactive)
REMARK    1  A    between atoms: C_2  and  O_1 
REMARK    2  A    between atoms: C_2  and  C_3 
REMARK    3  A    between atoms: C_2  and  C_9 
REMARK    4  A    between atoms: C_3  and  C_4 
REMARK    5  A    between atoms: C_4  and  C_6 
REMARK    6  A    between atoms: C_9  and  O_10 
REMARK    7  A    between atoms: C_9  and  C_11 
ROOT
HETATM    1  C   UNK N   1      19.664  17.742   2.854  0.00  0.00     0.165 C 
ENDROOT
BRANCH   1   2
HETATM    2  O   UNK N   1      18.923  18.671   2.120  0.00  0.00    -0.392 OA
HETATM    3  H   UNK N   1      19.317  19.108   1.348  0.00  0.00     0.210 HD
ENDBRANCH   1   2
BRANCH   1   4
HETATM    4  C   UNK N   1      20.950  18.406   3.339  0.00  0.00     0.125 C 
BRANCH   4   5
HETATM    5  C   UNK N   1      20.932  19.904   3.278  0.00  0.00     0.227 C 
HETATM    6  O   UNK N   1      20.191  20.538   4.015  0.00  0.00    -0.286 OA
BRANCH   5   7
HETATM    7  C   UNK N   1      21.756  20.613   2.281  0.00  0.00     0.246 C 
HETATM    8  O   UNK N   1      21.460  20.522   0.971  0.00  0.00    -0.642 OA
HETATM    9  O   UNK N   1      22.724  21.269   2.637  0.00  0.00    -0.642 OA
ENDBRANCH   5   7
ENDBRANCH   4   5
ENDBRANCH   1   4
BRANCH   1  10
HETATM   10  C   UNK N   1      20.072  16.557   1.969  0.00  0.00     0.247 C 
BRANCH  10  11
HETATM   11  O   UNK N   1      19.461  15.394   2.447  0.00  0.00    -0.382 OA
HETATM   12  H   UNK N   1      19.988  14.666   2.812  0.00  0.00     0.210 HD
ENDBRANCH  10  11
BRANCH  10  13
HETATM   13  C   UNK N   1      19.768  16.737   0.505  0.00  0.00     0.205 C 
HETATM   14  O   UNK N   1      20.484  17.605  -0.239  0.00  0.00    -0.646 OA
HETATM   15  O   UNK N   1      18.830  16.143  -0.002  0.00  0.00    -0.646 OA
ENDBRANCH  10  13
ENDBRANCH   1  10
TORSDOF 7
ENDMDL
MODEL 4
REMARK VINA RESULT:      -5.1     15.965     17.009
REMARK  7 active torsions:
REMARK  status: ('A' for Active; 'I' for Inactive)
REMARK    1  A    between atoms: C_2  and  O_1 
REMARK    2  A    between atoms: C_2  and  C_3 
REMARK    3  A    between atoms: C_2  and  C_9 
REMARK    4  A    between atoms: C_3  and  C_4 
REMARK    5  A    between atoms: C_4  and  C_6 
REMARK    6  A    between atoms: C_9  and  O_10 
REMARK    7  A    between atoms: C_9  and  C_11 
ROOT
HETATM    1  C   UNK N   1      20.478  17.613   2.273  0.00  0.00     0.165 C 
ENDROOT
BRANCH   1   2
HETATM    2  O   UNK N   1      20.372  16.691   3.317  0.00  0.00    -0.392 OA
HETATM    3  H   UNK N   1      20.805  16.866   4.168  0.00  0.00     0.210 HD
ENDBRANCH   1   2
BRANCH   1   4
HETATM    4  C   UNK N   1      19.657  18.852   2.620  0.00  0.00     0.125 C 
BRANCH   4   5
HETATM    5  C   UNK N   1      20.476  20.082   2.878  0.00  0.00     0.227 C 
HETATM    6  O   UNK N   1      20.254  20.769   3.865  0.00  0.00    -0.286 OA
BRANCH   5   7
HETATM    7  C   UNK N   1      21.503  20.503   1.907  0.00  0.00     0.246 C 
HETATM    8  O   UNK N   1      21.205  20.579   0.597  0.00  0.00    -0.642 OA
HETATM    9  O   UNK N   1      22.636  20.767   2.284  0.00  0.00    -0.642 OA
ENDBRANCH   5   7
ENDBRANCH   4   5
ENDBRANCH   1   4
BRANCH   1  10
HETATM   10  C   UNK N   1      19.896  17.032   0.979  0.00  0.00     0.247 C 
BRANCH  10  11
HETATM   11  O   UNK N   1      20.333  17.797  -0.107  0.00  0.00    -0.382 OA
HETATM   12  H   UNK N   1      20.279  18.766  -0.091  0.00  0.00     0.210 HD
ENDBRANCH  10  11
BRANCH  10  13
HETATM   13  C   UNK N   1      20.213  15.577   0.749  0.00  0.00     0.205 C 
HETATM   14  O   UNK N   1      19.220  14.675   0.619  0.00  0.00    -0.646 OA
HETATM   15  O   UNK N   1      21.374  15.199   0.742  0.00  0.00    -0.646 OA
ENDBRANCH  10  13
ENDBRANCH   1  10
TORSDOF 7
ENDMDL
MODEL 5
REMARK VINA RESULT:      -4.8      1.176      5.169
REMARK  7 active torsions:
REMARK  status: ('A' for Active; 'I' for Inactive)
REMARK    1  A    between atoms: C_2  and  O_1 
REMARK    2  A    between atoms: C_2  and  C_3 
REMARK    3  A    between atoms: C_2  and  C_9 
REMARK    4  A    between atoms: C_3  and  C_4 
REMARK    5  A    between atoms: C_4  and  C_6 
REMARK    6  A    between atoms: C_9  and  O_10 
REMARK    7  A    between atoms: C_9  and  C_11 
ROOT
HETATM    1  C   UNK N   1      34.299  15.773   8.674  0.00  0.00     0.165 C 
ENDROOT
BRANCH   1   2
HETATM    2  O   UNK N   1      33.584  16.299   9.753  0.00  0.00    -0.392 OA
HETATM    3  H   UNK N   1      34.056  16.655  10.523  0.00  0.00     0.210 HD
ENDBRANCH   1   2
BRANCH   1   4
HETATM    4  C   UNK N   1      35.499  14.994   9.206  0.00  0.00     0.125 C 
BRANCH   4   5
HETATM    5  C   UNK N   1      35.926  15.387  10.589  0.00  0.00     0.227 C 
HETATM    6  O   UNK N   1      36.572  16.410  10.763  0.00  0.00    -0.286 OA
BRANCH   5   7
HETATM    7  C   UNK N   1      35.627  14.505  11.733  0.00  0.00     0.246 C 
HETATM    8  O   UNK N   1      36.629  13.928  12.422  0.00  0.00    -0.642 OA
HETATM    9  O   UNK N   1      34.468  14.278  12.049  0.00  0.00    -0.642 OA
ENDBRANCH   5   7
ENDBRANCH   4   5
ENDBRANCH   1   4
BRANCH   1  10
HETATM   10  C   UNK N   1      34.847  16.900   7.790  0.00  0.00     0.247 C 
BRANCH  10  11
HETATM   11  O   UNK N   1      34.508  16.645   6.457  0.00  0.00    -0.382 OA
HETATM   12  H   UNK N   1      33.593  16.441   6.204  0.00  0.00     0.210 HD
ENDBRANCH  10  11
BRANCH  10  13
HETATM   13  C   UNK N   1      34.393  18.281   8.185  0.00  0.00     0.205 C 
HETATM   14  O   UNK N   1      33.084  18.604   8.152  0.00  0.00    -0.646 OA
HETATM   15  O   UNK N   1      35.216  19.134   8.476  0.00  0.00    -0.646 OA
ENDBRANCH  10  13
ENDBRANCH   1  10
TORSDOF 7
ENDMDL
MODEL 6
REMARK VINA RESULT:      -4.8      1.726      5.696
REMARK  7 active torsions:
REMARK  status: ('A' for Active; 'I' for Inactive)
REMARK    1  A    between atoms: C_2  and  O_1 
REMARK    2  A    between atoms: C_2  and  C_3 
REMARK    3  A    between atoms: C_2  and  C_9 
REMARK    4  A    between atoms: C_3  and  C_4 
REMARK    5  A    between atoms: C_4  and  C_6 
REMARK    6  A    between atoms: C_9  and  O_10 
REMARK    7  A    between atoms: C_9  and  C_11 
ROOT
HETATM    1  C   UNK N   1      35.225  14.598  11.282  0.00  0.00     0.165 C 
ENDROOT
BRANCH   1   2
HETATM    2  O   UNK N   1      33.910  14.550  11.751  0.00  0.00    -0.392 OA
HETATM    3  H   UNK N   1      33.580  15.239  12.349  0.00  0.00     0.210 HD
ENDBRANCH   1   2
BRANCH   1   4
HETATM    4  C   UNK N   1      36.148  13.984  12.331  0.00  0.00     0.125 C 
BRANCH   4   5
HETATM    5  C   UNK N   1      35.485  12.981  13.226  0.00  0.00     0.227 C 
HETATM    6  O   UNK N   1      34.923  12.008  12.744  0.00  0.00    -0.286 OA
BRANCH   5   7
HETATM    7  C   UNK N   1      35.448  13.201  14.684  0.00  0.00     0.246 C 
HETATM    8  O   UNK N   1      34.283  13.118  15.352  0.00  0.00    -0.642 OA
HETATM    9  O   UNK N   1      36.473  13.480  15.290  0.00  0.00    -0.642 OA
ENDBRANCH   5   7
ENDBRANCH   4   5
ENDBRANCH   1   4
BRANCH   1  10
HETATM   10  C   UNK N   1      35.672  16.051  11.079  0.00  0.00     0.247 C 
BRANCH  10  11
HETATM   11  O   UNK N   1      37.058  16.085  10.898  0.00  0.00    -0.382 OA
HETATM   12  H   UNK N   1      37.623  15.367  11.225  0.00  0.00     0.210 HD
ENDBRANCH  10  11
BRANCH  10  13
HETATM   13  C   UNK N   1      34.984  16.764   9.944  0.00  0.00     0.205 C 
HETATM   14  O   UNK N   1      35.366  18.007   9.588  0.00  0.00    -0.646 OA
HETATM   15  O   UNK N   1      34.035  16.242   9.381  0.00  0.00    -0.646 OA
ENDBRANCH  10  13
ENDBRANCH   1  10
TORSDOF 7
ENDMDL
MODEL 7
REMARK VINA RESULT:      -4.7     13.487     16.125
REMARK  7 active torsions:
REMARK  status: ('A' for Active; 'I' for Inactive)
REMARK    1  A    between atoms: C_2  and  O_1 
REMARK    2  A    between atoms: C_2  and  C_3 
REMARK    3  A    between atoms: C_2  and  C_9 
REMARK    4  A    between atoms: C_3  and  C_4 
REMARK    5  A    between atoms: C_4  and  C_6 
REMARK    6  A    between atoms: C_9  and  O_10 
REMARK    7  A    between atoms: C_9  and  C_11 
ROOT
HETATM    1  C   UNK N   1      19.820  18.704   2.509  0.00  0.00     0.165 C 
ENDROOT
BRANCH   1   2
HETATM    2  O   UNK N   1      18.429  18.609   2.425  0.00  0.00    -0.392 OA
HETATM    3  H   UNK N   1      17.978  18.786   1.584  0.00  0.00     0.210 HD
ENDBRANCH   1   2
BRANCH   1   4
HETATM    4  C   UNK N   1      20.314  17.782   3.620  0.00  0.00     0.125 C 
BRANCH   4   5
HETATM    5  C   UNK N   1      21.592  17.064   3.304  0.00  0.00     0.227 C 
HETATM    6  O   UNK N   1      21.580  16.088   2.569  0.00  0.00    -0.286 OA
BRANCH   5   7
HETATM    7  C   UNK N   1      22.856  17.493   3.933  0.00  0.00     0.246 C 
HETATM    8  O   UNK N   1      23.989  16.802   3.713  0.00  0.00    -0.642 OA
HETATM    9  O   UNK N   1      22.875  18.466   4.673  0.00  0.00    -0.642 OA
ENDBRANCH   5   7
ENDBRANCH   4   5
ENDBRANCH   1   4
BRANCH   1  10
HETATM   10  C   UNK N   1      20.241  20.130   2.883  0.00  0.00     0.247 C 
BRANCH  10  11
HETATM   11  O   UNK N   1      20.531  20.181   4.250  0.00  0.00    -0.382 OA
HETATM   12  H   UNK N   1      19.845  20.402   4.900  0.00  0.00     0.210 HD
ENDBRANCH  10  11
BRANCH  10  13
HETATM   13  C   UNK N   1      21.402  20.668   2.088  0.00  0.00     0.205 C 
HETATM   14  O   UNK N   1      21.410  20.573   0.743  0.00  0.00    -0.646 OA
HETATM   15  O   UNK N   1      22.371  21.138   2.663  0.00  0.00    -0.646 OA
ENDBRANCH  10  13
ENDBRANCH   1  10
TORSDOF 7
ENDMDL
MODEL 8
REMARK VINA RESULT:      -4.7      3.133      4.940
REMARK  7 active torsions:
REMARK  status: ('A' for Active; 'I' for Inactive)
REMARK    1  A    between atoms: C_2  and  O_1 
REMARK    2  A    between atoms: C_2  and  C_3 
REMARK    3  A    between atoms: C_2  and  C_9 
REMARK    4  A    between atoms: C_3  and  C_4 
REMARK    5  A    between atoms: C_4  and  C_6 
REMARK    6  A    between atoms: C_9  and  O_10 
REMARK    7  A    between atoms: C_9  and  C_11 
ROOT
HETATM    1  C   UNK N   1      32.431  17.639   7.671  0.00  0.00     0.165 C 
ENDROOT
BRANCH   1   2
HETATM    2  O   UNK N   1      32.042  17.518   9.007  0.00  0.00    -0.392 OA
HETATM    3  H   UNK N   1      32.215  16.696   9.493  0.00  0.00     0.210 HD
ENDBRANCH   1   2
BRANCH   1   4
HETATM    4  C   UNK N   1      31.746  16.547   6.854  0.00  0.00     0.125 C 
BRANCH   4   5
HETATM    5  C   UNK N   1      30.953  17.055   5.687  0.00  0.00     0.227 C 
HETATM    6  O   UNK N   1      29.807  17.448   5.850  0.00  0.00    -0.286 OA
BRANCH   5   7
HETATM    7  C   UNK N   1      31.529  17.016   4.329  0.00  0.00     0.246 C 
HETATM    8  O   UNK N   1      32.485  17.895   3.976  0.00  0.00    -0.642 OA
HETATM    9  O   UNK N   1      31.127  16.200   3.513  0.00  0.00    -0.642 OA
ENDBRANCH   5   7
ENDBRANCH   4   5
ENDBRANCH   1   4
BRANCH   1  10
HETATM   10  C   UNK N   1      33.943  17.430   7.528  0.00  0.00     0.247 C 
BRANCH  10  11
HETATM   11  O   UNK N   1      34.357  17.901   6.279  0.00  0.00    -0.382 OA
HETATM   12  H   UNK N   1      33.951  18.688   5.881  0.00  0.00     0.210 HD
ENDBRANCH  10  11
BRANCH  10  13
HETATM   13  C   UNK N   1      34.767  18.063   8.619  0.00  0.00     0.205 C 
HETATM   14  O   UNK N   1      34.887  17.461   9.820  0.00  0.00    -0.646 OA
HETATM   15  O   UNK N   1      35.280  19.156   8.441  0.00  0.00    -0.646 OA
ENDBRANCH  10  13
ENDBRANCH   1  10
TORSDOF 7
ENDMDL
MODEL 9
REMARK VINA RESULT:      -4.7      2.497      4.235
REMARK  7 active torsions:
REMARK  status: ('A' for Active; 'I' for Inactive)
REMARK    1  A    between atoms: C_2  and  O_1 
REMARK    2  A    between atoms: C_2  and  C_3 
REMARK    3  A    between atoms: C_2  and  C_9 
REMARK    4  A    between atoms: C_3  and  C_4 
REMARK    5  A    between atoms: C_4  and  C_6 
REMARK    6  A    between atoms: C_9  and  O_10 
REMARK    7  A    between atoms: C_9  and  C_11 
ROOT
HETATM    1  C   UNK N   1      33.088  18.124   8.054  0.00  0.00     0.165 C 
ENDROOT
BRANCH   1   2
HETATM    2  O   UNK N   1      32.360  17.589   9.120  0.00  0.00    -0.392 OA
HETATM    3  H   UNK N   1      32.620  17.785  10.034  0.00  0.00     0.210 HD
ENDBRANCH   1   2
BRANCH   1   4
HETATM    4  C   UNK N   1      32.708  17.384   6.774  0.00  0.00     0.125 C 
BRANCH   4   5
HETATM    5  C   UNK N   1      31.690  16.299   6.968  0.00  0.00     0.227 C 
HETATM    6  O   UNK N   1      32.050  15.167   7.259  0.00  0.00    -0.286 OA
BRANCH   5   7
HETATM    7  C   UNK N   1      30.260  16.578   6.740  0.00  0.00     0.246 C 
HETATM    8  O   UNK N   1      29.627  16.043   5.679  0.00  0.00    -0.642 OA
HETATM    9  O   UNK N   1      29.647  17.312   7.501  0.00  0.00    -0.642 OA
ENDBRANCH   5   7
ENDBRANCH   4   5
ENDBRANCH   1   4
BRANCH   1  10
HETATM   10  C   UNK N   1      34.591  17.914   8.269  0.00  0.00     0.247 C 
BRANCH  10  11
HETATM   11  O   UNK N   1      35.207  19.155   8.455  0.00  0.00    -0.382 OA
HETATM   12  H   UNK N   1      35.494  19.691   7.698  0.00  0.00     0.210 HD
ENDBRANCH  10  11
BRANCH  10  13
HETATM   13  C   UNK N   1      34.937  16.989   9.406  0.00  0.00     0.205 C 
HETATM   14  O   UNK N   1      34.640  15.676   9.332  0.00  0.00    -0.646 OA
HETATM   15  O   UNK N   1      35.432  17.436  10.428  0.00  0.00    -0.646 OA
ENDBRANCH  10  13
ENDBRANCH   1  10
TORSDOF 7
ENDMDL
