MODEL 1
REMARK VINA RESULT:      -6.2      0.000      0.000
REMARK  8 active torsions:
REMARK  status: ('A' for Active; 'I' for Inactive)
REMARK    1  A    between atoms: C_3  and  C_2 
REMARK    2  A    between atoms: C_9  and  C_3 
REMARK    3  A    between atoms: C_15  and  C_9 
REMARK    4  A    between atoms: C_13  and  C_12 
REMARK    5  A    between atoms: C_14  and  C_12 
REMARK    6  A    between atoms: C_17  and  C_15 
REMARK    7  A    between atoms: C_15  and  N_19 
REMARK    8  A    between atoms: O_22  and  C_17 
ROOT
HETATM    1  C   UNK N   1      37.747  11.138  13.100  0.00  0.00     0.134 C 
HETATM    2  C   UNK N   1      37.718  12.160  11.982  0.00  0.00     0.146 C 
HETATM    3  C   UNK N   1      36.535  12.605  14.580  0.00  0.00     0.174 C 
HETATM    4  C   UNK N   1      35.932  13.190  13.304  0.00  0.00     0.243 C 
HETATM    5  N   UNK N   1      37.789  11.873  14.352  0.00  0.00    -0.407 N 
HETATM    6  N   UNK N   1      36.529  12.994  12.077  0.00  0.00    -0.334 N 
HETATM    7  O   UNK N   1      34.908  13.853  13.393  0.00  0.00    -0.271 OA
HETATM    8  H   UNK N   1      38.585  11.880  14.990  0.00  0.00     0.154 HD
ENDROOT
BRANCH   6   9
HETATM    9  C   UNK N   1      35.962  13.593  10.850  0.00  0.00     0.185 C 
BRANCH   9  10
HETATM   10  C   UNK N   1      35.612  12.497   9.820  0.00  0.00     0.036 C 
BRANCH  10  11
HETATM   11  C   UNK N   1      34.298  11.775  10.055  0.00  0.00     0.002 C 
BRANCH  11  12
HETATM   12  C   UNK N   1      34.611  10.393  10.596  0.00  0.00    -0.004 C 
HETATM   13  C   UNK N   1      34.065  10.249  12.000  0.00  0.00     0.005 C 
ENDBRANCH  11  12
ENDBRANCH  10  11
ENDBRANCH   9  10
BRANCH   9  14
HETATM   14  C   UNK N   1      36.914  14.593  10.209  0.00  0.00     0.163 C 
HETATM   15  O   UNK N   1      37.469  14.343   9.150  0.00  0.00    -0.648 OA
BRANCH  14  16
HETATM   16  O   UNK N   1      37.167  15.766  10.822  0.00  0.00    -0.775 OA
HETATM   17  H   UNK N   1      37.810  16.360  10.488  0.00  0.00     0.167 HD
ENDBRANCH  14  16
ENDBRANCH   9  14
ENDBRANCH   6   9
BRANCH   3  18
HETATM   18  C   UNK N   1      35.520  11.714  15.305  0.00  0.00     0.073 C 
BRANCH  18  19
HETATM   19  C   UNK N   1      35.447  12.049  16.764  0.00  0.00    -0.056 A 
HETATM   20  C   UNK N   1      35.225  13.370  17.169  0.00  0.00     0.007 A 
HETATM   21  C   UNK N   1      35.135  13.681  18.530  0.00  0.00     0.001 A 
HETATM   22  C   UNK N   1      35.268  12.671  19.488  0.00  0.00     0.000 A 
HETATM   23  C   UNK N   1      35.493  11.351  19.086  0.00  0.00     0.001 A 
HETATM   24  C   UNK N   1      35.584  11.039  17.725  0.00  0.00     0.007 A 
ENDBRANCH  18  19
ENDBRANCH   3  18
TORSDOF 8
ENDMDL
MODEL 2
REMARK VINA RESULT:      -6.1      1.350      1.806
REMARK  8 active torsions:
REMARK  status: ('A' for Active; 'I' for Inactive)
REMARK    1  A    between atoms: C_3  and  C_2 
REMARK    2  A    between atoms: C_9  and  C_3 
REMARK    3  A    between atoms: C_15  and  C_9 
REMARK    4  A    between atoms: C_13  and  C_12 
REMARK    5  A    between atoms: C_14  and  C_12 
REMARK    6  A    between atoms: C_17  and  C_15 
REMARK    7  A    between atoms: C_15  and  N_19 
REMARK    8  A    between atoms: O_22  and  C_17 
ROOT
HETATM    1  C   UNK N   1      37.743  11.352  12.697  0.00  0.00     0.134 C 
HETATM    2  C   UNK N   1      37.526  12.515  11.751  0.00  0.00     0.146 C 
HETATM    3  C   UNK N   1      36.689  12.532  14.517  0.00  0.00     0.174 C 
HETATM    4  C   UNK N   1      35.898  13.253  13.426  0.00  0.00     0.243 C 
HETATM    5  N   UNK N   1      37.927  11.909  14.027  0.00  0.00    -0.407 N 
HETATM    6  N   UNK N   1      36.330  13.261  12.117  0.00  0.00    -0.334 N 
HETATM    7  O   UNK N   1      34.872  13.839  13.741  0.00  0.00    -0.271 OA
HETATM    8  H   UNK N   1      38.801  11.872  14.551  0.00  0.00     0.154 HD
ENDROOT
BRANCH   6   9
HETATM    9  C   UNK N   1      35.582  13.991  11.072  0.00  0.00     0.185 C 
BRANCH   9  10
HETATM   10  C   UNK N   1      35.828  13.360   9.684  0.00  0.00     0.036 C 
BRANCH  10  11
HETATM   11  C   UNK N   1      34.926  13.858   8.570  0.00  0.00     0.002 C 
BRANCH  11  12
HETATM   12  C   UNK N   1      33.496  13.499   8.926  0.00  0.00    -0.004 C 
HETATM   13  C   UNK N   1      32.604  14.712   8.780  0.00  0.00     0.005 C 
ENDBRANCH  11  12
ENDBRANCH  10  11
ENDBRANCH   9  10
BRANCH   9  14
HETATM   14  C   UNK N   1      35.957  15.465  11.023  0.00  0.00     0.163 C 
HETATM   15  O   UNK N   1      35.124  16.333  11.230  0.00  0.00    -0.648 OA
BRANCH  14  16
HETATM   16  O   UNK N   1      37.222  15.825  10.731  0.00  0.00    -0.775 OA
HETATM   17  H   UNK N   1      37.783  15.267  10.229  0.00  0.00     0.167 HD
ENDBRANCH  14  16
ENDBRANCH   9  14
ENDBRANCH   6   9
BRANCH   3  18
HETATM   18  C   UNK N   1      35.815  11.495  15.231  0.00  0.00     0.073 C 
BRANCH  18  19
HETATM   19  C   UNK N   1      35.645  11.832  16.680  0.00  0.00    -0.056 A 
HETATM   20  C   UNK N   1      35.354  13.147  17.064  0.00  0.00     0.007 A 
HETATM   21  C   UNK N   1      35.174  13.460  18.416  0.00  0.00     0.001 A 
HETATM   22  C   UNK N   1      35.284  12.459  19.385  0.00  0.00     0.000 A 
HETATM   23  C   UNK N   1      35.577  11.146  19.005  0.00  0.00     0.001 A 
HETATM   24  C   UNK N   1      35.759  10.832  17.654  0.00  0.00     0.007 A 
ENDBRANCH  18  19
ENDBRANCH   3  18
TORSDOF 8
ENDMDL
MODEL 3
REMARK VINA RESULT:      -6.0      4.272      6.003
REMARK  8 active torsions:
REMARK  status: ('A' for Active; 'I' for Inactive)
REMARK    1  A    between atoms: C_3  and  C_2 
REMARK    2  A    between atoms: C_9  and  C_3 
REMARK    3  A    between atoms: C_15  and  C_9 
REMARK    4  A    between atoms: C_13  and  C_12 
REMARK    5  A    between atoms: C_14  and  C_12 
REMARK    6  A    between atoms: C_17  and  C_15 
REMARK    7  A    between atoms: C_15  and  N_19 
REMARK    8  A    between atoms: O_22  and  C_17 
ROOT
HETATM    1  C   UNK N   1      33.312  13.832   9.059  0.00  0.00     0.134 C 
HETATM    2  C   UNK N   1      33.384  15.121   8.266  0.00  0.00     0.146 C 
HETATM    3  C   UNK N   1      35.135  14.514  10.483  0.00  0.00     0.174 C 
HETATM    4  C   UNK N   1      34.672  15.939  10.181  0.00  0.00     0.243 C 
HETATM    5  N   UNK N   1      34.662  13.526   9.502  0.00  0.00    -0.407 N 
HETATM    6  N   UNK N   1      33.863  16.214   9.099  0.00  0.00    -0.334 N 
HETATM    7  O   UNK N   1      35.047  16.842  10.916  0.00  0.00    -0.271 OA
HETATM    8  H   UNK N   1      35.209  12.729   9.177  0.00  0.00     0.154 HD
ENDROOT
BRANCH   6   9
HETATM    9  C   UNK N   1      33.448  17.598   8.790  0.00  0.00     0.185 C 
BRANCH   9  10
HETATM   10  C   UNK N   1      32.078  17.611   8.078  0.00  0.00     0.036 C 
BRANCH  10  11
HETATM   11  C   UNK N   1      30.943  18.255   8.852  0.00  0.00     0.002 C 
BRANCH  11  12
HETATM   12  C   UNK N   1      29.638  17.868   8.184  0.00  0.00    -0.004 C 
HETATM   13  C   UNK N   1      28.476  18.165   9.106  0.00  0.00     0.005 C 
ENDBRANCH  11  12
ENDBRANCH  10  11
ENDBRANCH   9  10
BRANCH   9  14
HETATM   14  C   UNK N   1      34.468  18.321   7.922  0.00  0.00     0.163 C 
HETATM   15  O   UNK N   1      34.559  18.083   6.728  0.00  0.00    -0.648 OA
BRANCH  14  16
HETATM   16  O   UNK N   1      35.299  19.225   8.476  0.00  0.00    -0.775 OA
HETATM   17  H   UNK N   1      36.151  19.384   8.121  0.00  0.00     0.167 HD
ENDBRANCH  14  16
ENDBRANCH   9  14
ENDBRANCH   6   9
BRANCH   3  18
HETATM   18  C   UNK N   1      34.730  14.097  11.901  0.00  0.00     0.073 C 
BRANCH  18  19
HETATM   19  C   UNK N   1      35.777  13.233  12.533  0.00  0.00    -0.056 A 
HETATM   20  C   UNK N   1      36.533  12.357  11.745  0.00  0.00     0.007 A 
HETATM   21  C   UNK N   1      37.526  11.564  12.331  0.00  0.00     0.001 A 
HETATM   22  C   UNK N   1      37.766  11.647  13.705  0.00  0.00     0.000 A 
HETATM   23  C   UNK N   1      37.011  12.519  14.496  0.00  0.00     0.001 A 
HETATM   24  C   UNK N   1      36.016  13.311  13.911  0.00  0.00     0.007 A 
ENDBRANCH  18  19
ENDBRANCH   3  18
TORSDOF 8
ENDMDL
MODEL 4
REMARK VINA RESULT:      -5.9     20.822     24.070
REMARK  8 active torsions:
REMARK  status: ('A' for Active; 'I' for Inactive)
REMARK    1  A    between atoms: C_3  and  C_2 
REMARK    2  A    between atoms: C_9  and  C_3 
REMARK    3  A    between atoms: C_15  and  C_9 
REMARK    4  A    between atoms: C_13  and  C_12 
REMARK    5  A    between atoms: C_14  and  C_12 
REMARK    6  A    between atoms: C_17  and  C_15 
REMARK    7  A    between atoms: C_15  and  N_19 
REMARK    8  A    between atoms: O_22  and  C_17 
ROOT
HETATM    1  C   UNK N   1      29.232  26.538  -5.784  0.00  0.00     0.134 C 
HETATM    2  C   UNK N   1      28.485  27.544  -4.933  0.00  0.00     0.146 C 
HETATM    3  C   UNK N   1      28.851  24.778  -4.181  0.00  0.00     0.174 C 
HETATM    4  C   UNK N   1      27.591  25.559  -3.810  0.00  0.00     0.243 C 
HETATM    5  N   UNK N   1      29.859  25.591  -4.879  0.00  0.00    -0.407 N 
HETATM    6  N   UNK N   1      27.448  26.888  -4.150  0.00  0.00    -0.334 N 
HETATM    7  O   UNK N   1      26.709  24.982  -3.190  0.00  0.00    -0.271 OA
HETATM    8  H   UNK N   1      30.866  25.501  -4.745  0.00  0.00     0.154 HD
ENDROOT
BRANCH   6   9
HETATM    9  C   UNK N   1      26.243  27.649  -3.757  0.00  0.00     0.185 C 
BRANCH   9  10
HETATM   10  C   UNK N   1      25.353  27.932  -4.987  0.00  0.00     0.036 C 
BRANCH  10  11
HETATM   11  C   UNK N   1      24.788  26.707  -5.682  0.00  0.00     0.002 C 
BRANCH  11  12
HETATM   12  C   UNK N   1      25.526  26.529  -6.995  0.00  0.00    -0.004 C 
HETATM   13  C   UNK N   1      25.912  25.078  -7.181  0.00  0.00     0.005 C 
ENDBRANCH  11  12
ENDBRANCH  10  11
ENDBRANCH   9  10
BRANCH   9  14
HETATM   14  C   UNK N   1      26.593  28.966  -3.082  0.00  0.00     0.163 C 
HETATM   15  O   UNK N   1      27.318  28.996  -2.100  0.00  0.00    -0.648 OA
BRANCH  14  16
HETATM   16  O   UNK N   1      26.085  30.120  -3.558  0.00  0.00    -0.775 OA
HETATM   17  H   UNK N   1      25.616  30.711  -3.001  0.00  0.00     0.167 HD
ENDBRANCH  14  16
ENDBRANCH   9  14
ENDBRANCH   6   9
BRANCH   3  18
HETATM   18  C   UNK N   1      28.502  23.536  -5.006  0.00  0.00     0.073 C 
BRANCH  18  19
HETATM   19  C   UNK N   1      29.506  22.444  -4.797  0.00  0.00    -0.056 A 
HETATM   20  C   UNK N   1      29.867  21.611  -5.863  0.00  0.00     0.007 A 
HETATM   21  C   UNK N   1      30.819  20.604  -5.675  0.00  0.00     0.001 A 
HETATM   22  C   UNK N   1      31.413  20.428  -4.421  0.00  0.00     0.000 A 
HETATM   23  C   UNK N   1      31.052  21.257  -3.354  0.00  0.00     0.001 A 
HETATM   24  C   UNK N   1      30.098  22.263  -3.541  0.00  0.00     0.007 A 
ENDBRANCH  18  19
ENDBRANCH   3  18
TORSDOF 8
ENDMDL
MODEL 5
REMARK VINA RESULT:      -5.7      1.579      2.628
REMARK  8 active torsions:
REMARK  status: ('A' for Active; 'I' for Inactive)
REMARK    1  A    between atoms: C_3  and  C_2 
REMARK    2  A    between atoms: C_9  and  C_3 
REMARK    3  A    between atoms: C_15  and  C_9 
REMARK    4  A    between atoms: C_13  and  C_12 
REMARK    5  A    between atoms: C_14  and  C_12 
REMARK    6  A    between atoms: C_17  and  C_15 
REMARK    7  A    between atoms: C_15  and  N_19 
REMARK    8  A    between atoms: O_22  and  C_17 
ROOT
HETATM    1  C   UNK N   1      35.101  11.170  12.540  0.00  0.00     0.134 C 
HETATM    2  C   UNK N   1      36.070  11.923  11.652  0.00  0.00     0.146 C 
HETATM    3  C   UNK N   1      35.949  12.254  14.520  0.00  0.00     0.174 C 
HETATM    4  C   UNK N   1      36.300  13.410  13.585  0.00  0.00     0.243 C 
HETATM    5  N   UNK N   1      35.757  10.974  13.822  0.00  0.00    -0.407 N 
HETATM    6  N   UNK N   1      36.385  13.225  12.221  0.00  0.00    -0.334 N 
HETATM    7  O   UNK N   1      36.520  14.509  14.074  0.00  0.00    -0.271 OA
HETATM    8  H   UNK N   1      36.047  10.067  14.189  0.00  0.00     0.154 HD
ENDROOT
BRANCH   6   9
HETATM    9  C   UNK N   1      36.761  14.339  11.324  0.00  0.00     0.185 C 
BRANCH   9  10
HETATM   10  C   UNK N   1      35.513  14.922  10.627  0.00  0.00     0.036 C 
BRANCH  10  11
HETATM   11  C   UNK N   1      35.343  16.426  10.741  0.00  0.00     0.002 C 
BRANCH  11  12
HETATM   12  C   UNK N   1      34.677  16.921   9.472  0.00  0.00    -0.004 C 
HETATM   13  C   UNK N   1      34.641  15.816   8.439  0.00  0.00     0.005 C 
ENDBRANCH  11  12
ENDBRANCH  10  11
ENDBRANCH   9  10
BRANCH   9  14
HETATM   14  C   UNK N   1      37.767  13.906  10.267  0.00  0.00     0.163 C 
HETATM   15  O   UNK N   1      37.467  13.889   9.084  0.00  0.00    -0.648 OA
BRANCH  14  16
HETATM   16  O   UNK N   1      39.003  13.518  10.636  0.00  0.00    -0.775 OA
HETATM   17  H   UNK N   1      39.739  13.637  10.069  0.00  0.00     0.167 HD
ENDBRANCH  14  16
ENDBRANCH   9  14
ENDBRANCH   6   9
BRANCH   3  18
HETATM   18  C   UNK N   1      34.716  12.590  15.367  0.00  0.00     0.073 C 
BRANCH  18  19
HETATM   19  C   UNK N   1      34.999  12.426  16.828  0.00  0.00    -0.056 A 
HETATM   20  C   UNK N   1      34.983  13.541  17.674  0.00  0.00     0.007 A 
HETATM   21  C   UNK N   1      35.226  13.387  19.043  0.00  0.00     0.001 A 
HETATM   22  C   UNK N   1      35.485  12.117  19.569  0.00  0.00     0.000 A 
HETATM   23  C   UNK N   1      35.505  11.002  18.726  0.00  0.00     0.001 A 
HETATM   24  C   UNK N   1      35.263  11.155  17.356  0.00  0.00     0.007 A 
ENDBRANCH  18  19
ENDBRANCH   3  18
TORSDOF 8
ENDMDL
MODEL 6
REMARK VINA RESULT:      -5.4     17.662     20.722
REMARK  8 active torsions:
REMARK  status: ('A' for Active; 'I' for Inactive)
REMARK    1  A    between atoms: C_3  and  C_2 
REMARK    2  A    between atoms: C_9  and  C_3 
REMARK    3  A    between atoms: C_15  and  C_9 
REMARK    4  A    between atoms: C_13  and  C_12 
REMARK    5  A    between atoms: C_14  and  C_12 
REMARK    6  A    between atoms: C_17  and  C_15 
REMARK    7  A    between atoms: C_15  and  N_19 
REMARK    8  A    between atoms: O_22  and  C_17 
ROOT
HETATM    1  C   UNK N   1      20.802  16.142   3.790  0.00  0.00     0.134 C 
HETATM    2  C   UNK N   1      20.948  17.647   3.887  0.00  0.00     0.146 C 
HETATM    3  C   UNK N   1      19.647  16.311   1.681  0.00  0.00     0.174 C 
HETATM    4  C   UNK N   1      20.440  17.603   1.492  0.00  0.00     0.243 C 
HETATM    5  N   UNK N   1      19.561  15.876   3.083  0.00  0.00    -0.407 N 
HETATM    6  N   UNK N   1      21.027  18.244   2.562  0.00  0.00    -0.334 N 
HETATM    7  O   UNK N   1      20.535  18.070   0.366  0.00  0.00    -0.271 OA
HETATM    8  H   UNK N   1      18.738  15.445   3.504  0.00  0.00     0.154 HD
ENDROOT
BRANCH   6   9
HETATM    9  C   UNK N   1      21.762  19.513   2.380  0.00  0.00     0.185 C 
BRANCH   9  10
HETATM   10  C   UNK N   1      22.893  19.643   3.423  0.00  0.00     0.036 C 
BRANCH  10  11
HETATM   11  C   UNK N   1      24.078  20.492   3.002  0.00  0.00     0.002 C 
BRANCH  11  12
HETATM   12  C   UNK N   1      25.181  20.302   4.026  0.00  0.00    -0.004 C 
HETATM   13  C   UNK N   1      26.533  20.378   3.352  0.00  0.00     0.005 C 
ENDBRANCH  11  12
ENDBRANCH  10  11
ENDBRANCH   9  10
BRANCH   9  14
HETATM   14  C   UNK N   1      20.847  20.724   2.484  0.00  0.00     0.163 C 
HETATM   15  O   UNK N   1      20.639  21.440   1.517  0.00  0.00    -0.648 OA
BRANCH  14  16
HETATM   16  O   UNK N   1      20.268  21.028   3.662  0.00  0.00    -0.775 OA
HETATM   17  H   UNK N   1      20.719  20.898   4.473  0.00  0.00     0.167 HD
ENDBRANCH  14  16
ENDBRANCH   9  14
ENDBRANCH   6   9
BRANCH   3  18
HETATM   18  C   UNK N   1      20.216  15.187   0.807  0.00  0.00     0.073 C 
BRANCH  18  19
HETATM   19  C   UNK N   1      19.161  14.182   0.459  0.00  0.00    -0.056 A 
HETATM   20  C   UNK N   1      19.399  12.817   0.663  0.00  0.00     0.007 A 
HETATM   21  C   UNK N   1      18.408  11.879   0.358  0.00  0.00     0.001 A 
HETATM   22  C   UNK N   1      17.177  12.303  -0.151  0.00  0.00     0.000 A 
HETATM   23  C   UNK N   1      16.938  13.664  -0.360  0.00  0.00     0.001 A 
HETATM   24  C   UNK N   1      17.929  14.604  -0.056  0.00  0.00     0.007 A 
ENDBRANCH  18  19
ENDBRANCH   3  18
TORSDOF 8
ENDMDL
MODEL 7
REMARK VINA RESULT:      -5.3      2.894      4.282
REMARK  8 active torsions:
REMARK  status: ('A' for Active; 'I' for Inactive)
REMARK    1  A    between atoms: C_3  and  C_2 
REMARK    2  A    between atoms: C_9  and  C_3 
REMARK    3  A    between atoms: C_15  and  C_9 
REMARK    4  A    between atoms: C_13  and  C_12 
REMARK    5  A    between atoms: C_14  and  C_12 
REMARK    6  A    between atoms: C_17  and  C_15 
REMARK    7  A    between atoms: C_15  and  N_19 
REMARK    8  A    between atoms: O_22  and  C_17 
ROOT
HETATM    1  C   UNK N   1      35.273  12.062   8.999  0.00  0.00     0.134 C 
HETATM    2  C   UNK N   1      35.355  13.570   8.882  0.00  0.00     0.146 C 
HETATM    3  C   UNK N   1      35.670  12.146  11.376  0.00  0.00     0.174 C 
HETATM    4  C   UNK N   1      35.025  13.529  11.308  0.00  0.00     0.243 C 
HETATM    5  N   UNK N   1      36.164  11.667  10.076  0.00  0.00    -0.407 N 
HETATM    6  N   UNK N   1      34.912  14.208  10.114  0.00  0.00    -0.334 N 
HETATM    7  O   UNK N   1      34.618  14.034  12.345  0.00  0.00    -0.271 OA
HETATM    8  H   UNK N   1      37.020  11.127   9.949  0.00  0.00     0.154 HD
ENDROOT
BRANCH   6   9
HETATM    9  C   UNK N   1      34.321  15.562  10.059  0.00  0.00     0.185 C 
BRANCH   9  10
HETATM   10  C   UNK N   1      33.495  15.743   8.768  0.00  0.00     0.036 C 
BRANCH  10  11
HETATM   11  C   UNK N   1      31.991  15.615   8.930  0.00  0.00     0.002 C 
BRANCH  11  12
HETATM   12  C   UNK N   1      31.331  16.600   7.984  0.00  0.00    -0.004 C 
HETATM   13  C   UNK N   1      31.394  17.997   8.562  0.00  0.00     0.005 C 
ENDBRANCH  11  12
ENDBRANCH  10  11
ENDBRANCH   9  10
BRANCH   9  14
HETATM   14  C   UNK N   1      35.380  16.652  10.131  0.00  0.00     0.163 C 
HETATM   15  O   UNK N   1      36.412  16.486  10.762  0.00  0.00    -0.648 OA
BRANCH  14  16
HETATM   16  O   UNK N   1      35.176  17.827   9.504  0.00  0.00    -0.775 OA
HETATM   17  H   UNK N   1      35.198  18.638   9.973  0.00  0.00     0.167 HD
ENDBRANCH  14  16
ENDBRANCH   9  14
ENDBRANCH   6   9
BRANCH   3  18
HETATM   18  C   UNK N   1      34.708  11.123  11.991  0.00  0.00     0.073 C 
BRANCH  18  19
HETATM   19  C   UNK N   1      35.027  10.876  13.434  0.00  0.00    -0.056 A 
HETATM   20  C   UNK N   1      34.010  10.510  14.323  0.00  0.00     0.007 A 
HETATM   21  C   UNK N   1      34.309  10.258  15.666  0.00  0.00     0.001 A 
HETATM   22  C   UNK N   1      35.626  10.371  16.122  0.00  0.00     0.000 A 
HETATM   23  C   UNK N   1      36.643  10.740  15.237  0.00  0.00     0.001 A 
HETATM   24  C   UNK N   1      36.345  10.993  13.893  0.00  0.00     0.007 A 
ENDBRANCH  18  19
ENDBRANCH   3  18
TORSDOF 8
ENDMDL
MODEL 8
REMARK VINA RESULT:      -5.3      4.361      8.479
REMARK  8 active torsions:
REMARK  status: ('A' for Active; 'I' for Inactive)
REMARK    1  A    between atoms: C_3  and  C_2 
REMARK    2  A    between atoms: C_9  and  C_3 
REMARK    3  A    between atoms: C_15  and  C_9 
REMARK    4  A    between atoms: C_13  and  C_12 
REMARK    5  A    between atoms: C_14  and  C_12 
REMARK    6  A    between atoms: C_17  and  C_15 
REMARK    7  A    between atoms: C_15  and  N_19 
REMARK    8  A    between atoms: O_22  and  C_17 
ROOT
HETATM    1  C   UNK N   1      34.491  14.135   8.106  0.00  0.00     0.134 C 
HETATM    2  C   UNK N   1      35.029  13.640   9.432  0.00  0.00     0.146 C 
HETATM    3  C   UNK N   1      33.762  16.213   9.087  0.00  0.00     0.174 C 
HETATM    4  C   UNK N   1      34.899  15.997  10.084  0.00  0.00     0.243 C 
HETATM    5  N   UNK N   1      33.347  14.983   8.396  0.00  0.00    -0.407 N 
HETATM    6  N   UNK N   1      35.470  14.754  10.258  0.00  0.00    -0.334 N 
HETATM    7  O   UNK N   1      35.288  16.953  10.740  0.00  0.00    -0.271 OA
HETATM    8  H   UNK N   1      32.383  14.755   8.152  0.00  0.00     0.154 HD
ENDROOT
BRANCH   6   9
HETATM    9  C   UNK N   1      36.545  14.542  11.251  0.00  0.00     0.185 C 
BRANCH   9  10
HETATM   10  C   UNK N   1      37.350  13.267  10.918  0.00  0.00     0.036 C 
BRANCH  10  11
HETATM   11  C   UNK N   1      38.676  13.496  10.216  0.00  0.00     0.002 C 
BRANCH  11  12
HETATM   12  C   UNK N   1      38.673  12.690   8.932  0.00  0.00    -0.004 C 
HETATM   13  C   UNK N   1      38.371  13.591   7.754  0.00  0.00     0.005 C 
ENDBRANCH  11  12
ENDBRANCH  10  11
ENDBRANCH   9  10
BRANCH   9  14
HETATM   14  C   UNK N   1      36.002  14.433  12.668  0.00  0.00     0.163 C 
HETATM   15  O   UNK N   1      34.917  13.919  12.887  0.00  0.00    -0.648 OA
BRANCH  14  16
HETATM   16  O   UNK N   1      36.715  14.925  13.699  0.00  0.00    -0.775 OA
HETATM   17  H   UNK N   1      37.181  15.735  13.625  0.00  0.00     0.167 HD
ENDBRANCH  14  16
ENDBRANCH   9  14
ENDBRANCH   6   9
BRANCH   3  18
HETATM   18  C   UNK N   1      34.125  17.300   8.070  0.00  0.00     0.073 C 
BRANCH  18  19
HETATM   19  C   UNK N   1      33.141  17.340   6.941  0.00  0.00    -0.056 A 
HETATM   20  C   UNK N   1      33.594  17.408   5.618  0.00  0.00     0.007 A 
HETATM   21  C   UNK N   1      32.677  17.424   4.562  0.00  0.00     0.001 A 
HETATM   22  C   UNK N   1      31.305  17.373   4.827  0.00  0.00     0.000 A 
HETATM   23  C   UNK N   1      30.850  17.309   6.147  0.00  0.00     0.001 A 
HETATM   24  C   UNK N   1      31.766  17.293   7.204  0.00  0.00     0.007 A 
ENDBRANCH  18  19
ENDBRANCH   3  18
TORSDOF 8
ENDMDL
MODEL 9
REMARK VINA RESULT:      -5.2      2.864      6.985
REMARK  8 active torsions:
REMARK  status: ('A' for Active; 'I' for Inactive)
REMARK    1  A    between atoms: C_3  and  C_2 
REMARK    2  A    between atoms: C_9  and  C_3 
REMARK    3  A    between atoms: C_15  and  C_9 
REMARK    4  A    between atoms: C_13  and  C_12 
REMARK    5  A    between atoms: C_14  and  C_12 
REMARK    6  A    between atoms: C_17  and  C_15 
REMARK    7  A    between atoms: C_15  and  N_19 
REMARK    8  A    between atoms: O_22  and  C_17 
ROOT
HETATM    1  C   UNK N   1      37.938  13.430  10.551  0.00  0.00     0.134 C 
HETATM    2  C   UNK N   1      37.549  12.309  11.492  0.00  0.00     0.146 C 
HETATM    3  C   UNK N   1      35.644  14.132  10.310  0.00  0.00     0.174 C 
HETATM    4  C   UNK N   1      35.451  13.554  11.711  0.00  0.00     0.243 C 
HETATM    5  N   UNK N   1      36.836  13.614   9.622  0.00  0.00    -0.407 N 
HETATM    6  N   UNK N   1      36.354  12.660  12.246  0.00  0.00    -0.334 N 
HETATM    7  O   UNK N   1      34.465  13.892  12.351  0.00  0.00    -0.271 OA
HETATM    8  H   UNK N   1      36.883  13.410   8.624  0.00  0.00     0.154 HD
ENDROOT
BRANCH   6   9
HETATM    9  C   UNK N   1      36.144  12.075  13.587  0.00  0.00     0.185 C 
BRANCH   9  10
HETATM   10  C   UNK N   1      37.099  12.716  14.617  0.00  0.00     0.036 C 
BRANCH  10  11
HETATM   11  C   UNK N   1      36.466  13.727  15.555  0.00  0.00     0.002 C 
BRANCH  11  12
HETATM   12  C   UNK N   1      35.177  13.132  16.087  0.00  0.00    -0.004 C 
HETATM   13  C   UNK N   1      35.119  13.281  17.592  0.00  0.00     0.005 C 
ENDBRANCH  11  12
ENDBRANCH  10  11
ENDBRANCH   9  10
BRANCH   9  14
HETATM   14  C   UNK N   1      36.345  10.567  13.591  0.00  0.00     0.163 C 
HETATM   15  O   UNK N   1      37.249  10.055  14.233  0.00  0.00    -0.648 OA
BRANCH  14  16
HETATM   16  O   UNK N   1      35.529   9.779  12.864  0.00  0.00    -0.775 OA
HETATM   17  H   UNK N   1      34.798  10.135  12.399  0.00  0.00     0.167 HD
ENDBRANCH  14  16
ENDBRANCH   9  14
ENDBRANCH   6   9
BRANCH   3  18
HETATM   18  C   UNK N   1      35.675  15.664  10.350  0.00  0.00     0.073 C 
BRANCH  18  19
HETATM   19  C   UNK N   1      34.571  16.252   9.525  0.00  0.00    -0.056 A 
HETATM   20  C   UNK N   1      33.368  15.554   9.364  0.00  0.00     0.007 A 
HETATM   21  C   UNK N   1      32.329  16.110   8.612  0.00  0.00     0.001 A 
HETATM   22  C   UNK N   1      32.490  17.366   8.018  0.00  0.00     0.000 A 
HETATM   23  C   UNK N   1      33.692  18.064   8.175  0.00  0.00     0.001 A 
HETATM   24  C   UNK N   1      34.732  17.508   8.926  0.00  0.00     0.007 A 
ENDBRANCH  18  19
ENDBRANCH   3  18
TORSDOF 8
ENDMDL
