REMARK  3 active torsions:
REMARK  status: ('A' for Active; 'I' for Inactive)
REMARK    1  A    between atoms: C_2  and  O_3 
REMARK    2  A    between atoms: C_2  and  C_4 
REMARK    3  A    between atoms: C_4  and  O_5 
ROOT
HETATM    1  C   UNK N   1       0.649   2.543   0.000  0.00  0.00     0.050 C 
HETATM    2  C   UNK N   1       1.490   1.280  -0.000  0.00  0.00     0.211 C 
ENDROOT
BRANCH   2   3
HETATM    3  O   UNK N   1       2.877   1.417   0.000  0.00  0.00    -0.385 OA
HETATM    4  H   UNK N   1       3.442   0.628   0.000  0.00  0.00     0.210 HD
ENDBRANCH   2   3
BRANCH   2   5
HETATM    5  C   UNK N   1       0.918  -0.104  -0.000  0.00  0.00     0.169 C 
HETATM    6  O   UNK N   1      -0.290  -0.273   0.000  0.00  0.00    -0.648 OA
BRANCH   5   7
HETATM    7  O   UNK N   1       1.743  -1.169   0.000  0.00  0.00    -0.774 OA
HETATM    8  H   UNK N   1       1.388  -2.036   0.000  0.00  0.00     0.167 HD
ENDBRANCH   5   7
ENDBRANCH   2   5
TORSDOF 3
