MODEL 1
REMARK VINA RESULT:      -5.0      0.000      0.000
REMARK  5 active torsions:
REMARK  status: ('A' for Active; 'I' for Inactive)
REMARK    1  A    between atoms: C_3  and  C_2 
REMARK    2  A    between atoms: O_8  and  C_2 
REMARK    3  A    between atoms: C_4  and  O_9 
REMARK    4  A    between atoms: C_5  and  O_10 
REMARK    5  A    between atoms: C_6  and  O_11 
ROOT
HETATM    1  C   UNK N   1      33.723  15.843   7.109  0.00  0.00     0.148 C 
HETATM    2  C   UNK N   1      34.484  15.552   9.376  0.00  0.00     0.131 C 
HETATM    3  C   UNK N   1      33.770  17.366   7.222  0.00  0.00     0.166 C 
HETATM    4  C   UNK N   1      34.594  17.079   9.571  0.00  0.00     0.173 C 
HETATM    5  C   UNK N   1      34.866  17.757   8.220  0.00  0.00     0.179 C 
HETATM    6  N   UNK N   1      33.420  15.244   8.411  0.00  0.00    -0.410 N 
HETATM    7  H   UNK N   1      32.588  14.692   8.618  0.00  0.00     0.153 HD
ENDROOT
BRANCH   2   8
HETATM    8  C   UNK N   1      34.153  14.887  10.708  0.00  0.00     0.191 C 
BRANCH   8   9
HETATM    9  O   UNK N   1      32.801  15.045  11.014  0.00  0.00    -0.399 OA
HETATM   10  H   UNK N   1      32.098  14.392  10.875  0.00  0.00     0.209 HD
ENDBRANCH   8   9
ENDBRANCH   2   8
BRANCH   4  11
HETATM   11  O   UNK N   1      35.625  17.380  10.466  0.00  0.00    -0.391 OA
HETATM   12  H   UNK N   1      35.509  18.039  11.168  0.00  0.00     0.210 HD
ENDBRANCH   4  11
BRANCH   5  13
HETATM   13  O   UNK N   1      34.894  19.144   8.378  0.00  0.00    -0.390 OA
HETATM   14  H   UNK N   1      34.465  19.677   9.066  0.00  0.00     0.210 HD
ENDBRANCH   5  13
BRANCH   3  15
HETATM   15  O   UNK N   1      34.041  17.918   5.970  0.00  0.00    -0.391 OA
HETATM   16  H   UNK N   1      34.393  17.417   5.216  0.00  0.00     0.210 HD
ENDBRANCH   3  15
TORSDOF 5
ENDMDL
MODEL 2
REMARK VINA RESULT:      -4.9      1.813      4.403
REMARK  5 active torsions:
REMARK  status: ('A' for Active; 'I' for Inactive)
REMARK    1  A    between atoms: C_3  and  C_2 
REMARK    2  A    between atoms: O_8  and  C_2 
REMARK    3  A    between atoms: C_4  and  O_9 
REMARK    4  A    between atoms: C_5  and  O_10 
REMARK    5  A    between atoms: C_6  and  O_11 
ROOT
HETATM    1  C   UNK N   1      35.231  15.999  11.020  0.00  0.00     0.148 C 
HETATM    2  C   UNK N   1      34.654  17.001   8.906  0.00  0.00     0.131 C 
HETATM    3  C   UNK N   1      33.999  15.096  11.000  0.00  0.00     0.166 C 
HETATM    4  C   UNK N   1      33.403  16.104   8.785  0.00  0.00     0.173 C 
HETATM    5  C   UNK N   1      33.631  14.789   9.544  0.00  0.00     0.179 C 
HETATM    6  N   UNK N   1      34.952  17.257  10.322  0.00  0.00    -0.410 N 
HETATM    7  H   UNK N   1      34.964  18.179  10.757  0.00  0.00     0.153 HD
ENDROOT
BRANCH   2   8
HETATM    8  C   UNK N   1      34.402  18.330   8.204  0.00  0.00     0.191 C 
BRANCH   8   9
HETATM    9  O   UNK N   1      35.369  19.269   8.565  0.00  0.00    -0.399 OA
HETATM   10  H   UNK N   1      36.327  19.121   8.613  0.00  0.00     0.209 HD
ENDBRANCH   8   9
ENDBRANCH   2   8
BRANCH   4  11
HETATM   11  O   UNK N   1      33.131  15.832   7.441  0.00  0.00    -0.391 OA
HETATM   12  H   UNK N   1      33.448  15.020   7.015  0.00  0.00     0.210 HD
ENDBRANCH   4  11
BRANCH   5  13
HETATM   13  O   UNK N   1      32.477  14.004   9.500  0.00  0.00    -0.390 OA
HETATM   14  H   UNK N   1      31.583  14.237   9.795  0.00  0.00     0.210 HD
ENDBRANCH   5  13
BRANCH   3  15
HETATM   15  O   UNK N   1      34.278  13.913  11.686  0.00  0.00    -0.391 OA
HETATM   16  H   UNK N   1      35.172  13.559  11.825  0.00  0.00     0.210 HD
ENDBRANCH   3  15
TORSDOF 5
ENDMDL
MODEL 3
REMARK VINA RESULT:      -4.8     14.105     15.195
REMARK  5 active torsions:
REMARK  status: ('A' for Active; 'I' for Inactive)
REMARK    1  A    between atoms: C_3  and  C_2 
REMARK    2  A    between atoms: O_8  and  C_2 
REMARK    3  A    between atoms: C_4  and  O_9 
REMARK    4  A    between atoms: C_5  and  O_10 
REMARK    5  A    between atoms: C_6  and  O_11 
ROOT
HETATM    1  C   UNK N   1      22.292  19.383   3.853  0.00  0.00     0.148 C 
HETATM    2  C   UNK N   1      20.359  17.950   3.726  0.00  0.00     0.131 C 
HETATM    3  C   UNK N   1      21.890  20.143   2.589  0.00  0.00     0.166 C 
HETATM    4  C   UNK N   1      19.858  18.682   2.463  0.00  0.00     0.173 C 
HETATM    5  C   UNK N   1      20.362  20.133   2.469  0.00  0.00     0.179 C 
HETATM    6  N   UNK N   1      21.826  17.996   3.783  0.00  0.00    -0.410 N 
HETATM    7  H   UNK N   1      22.435  17.178   3.776  0.00  0.00     0.153 HD
ENDROOT
BRANCH   2   8
HETATM    8  C   UNK N   1      19.908  16.494   3.688  0.00  0.00     0.191 C 
BRANCH   8   9
HETATM    9  O   UNK N   1      18.705  16.333   4.376  0.00  0.00    -0.399 OA
HETATM   10  H   UNK N   1      18.340  16.931   5.047  0.00  0.00     0.209 HD
ENDBRANCH   8   9
ENDBRANCH   2   8
BRANCH   4  11
HETATM   11  O   UNK N   1      18.461  18.669   2.418  0.00  0.00    -0.391 OA
HETATM   12  H   UNK N   1      17.928  18.622   3.228  0.00  0.00     0.210 HD
ENDBRANCH   4  11
BRANCH   5  13
HETATM   13  O   UNK N   1      19.972  20.779   1.293  0.00  0.00    -0.390 OA
HETATM   14  H   UNK N   1      20.098  21.711   1.052  0.00  0.00     0.210 HD
ENDBRANCH   5  13
BRANCH   3  15
HETATM   15  O   UNK N   1      22.357  21.455   2.667  0.00  0.00    -0.391 OA
HETATM   16  H   UNK N   1      23.161  21.777   2.227  0.00  0.00     0.210 HD
ENDBRANCH   3  15
TORSDOF 5
ENDMDL
MODEL 4
REMARK VINA RESULT:      -4.7     12.227     12.680
REMARK  5 active torsions:
REMARK  status: ('A' for Active; 'I' for Inactive)
REMARK    1  A    between atoms: C_3  and  C_2 
REMARK    2  A    between atoms: O_8  and  C_2 
REMARK    3  A    between atoms: C_4  and  O_9 
REMARK    4  A    between atoms: C_5  and  O_10 
REMARK    5  A    between atoms: C_6  and  O_11 
ROOT
HETATM    1  C   UNK N   1      42.694  21.674   1.542  0.00  0.00     0.148 C 
HETATM    2  C   UNK N   1      44.670  20.845   2.644  0.00  0.00     0.131 C 
HETATM    3  C   UNK N   1      42.439  22.706   2.639  0.00  0.00     0.166 C 
HETATM    4  C   UNK N   1      44.510  21.878   3.780  0.00  0.00     0.173 C 
HETATM    5  C   UNK N   1      43.781  23.122   3.252  0.00  0.00     0.179 C 
HETATM    6  N   UNK N   1      43.352  20.490   2.100  0.00  0.00    -0.410 N 
HETATM    7  H   UNK N   1      42.952  19.552   2.109  0.00  0.00     0.153 HD
ENDROOT
BRANCH   2   8
HETATM    8  C   UNK N   1      45.340  19.586   3.185  0.00  0.00     0.191 C 
BRANCH   8   9
HETATM    9  O   UNK N   1      46.692  19.819   3.438  0.00  0.00    -0.399 OA
HETATM   10  H   UNK N   1      47.423  19.202   3.278  0.00  0.00     0.209 HD
ENDBRANCH   8   9
ENDBRANCH   2   8
BRANCH   4  11
HETATM   11  O   UNK N   1      45.763  22.243   4.281  0.00  0.00    -0.391 OA
HETATM   12  H   UNK N   1      46.528  22.362   3.697  0.00  0.00     0.210 HD
ENDBRANCH   4  11
BRANCH   5  13
HETATM   13  O   UNK N   1      43.569  24.030   4.292  0.00  0.00    -0.390 OA
HETATM   14  H   UNK N   1      44.214  24.365   4.935  0.00  0.00     0.210 HD
ENDBRANCH   5  13
BRANCH   3  15
HETATM   15  O   UNK N   1      41.795  23.817   2.092  0.00  0.00    -0.391 OA
HETATM   16  H   UNK N   1      42.236  24.656   1.881  0.00  0.00     0.210 HD
ENDBRANCH   3  15
TORSDOF 5
ENDMDL
MODEL 5
REMARK VINA RESULT:      -4.7      2.902      5.430
REMARK  5 active torsions:
REMARK  status: ('A' for Active; 'I' for Inactive)
REMARK    1  A    between atoms: C_3  and  C_2 
REMARK    2  A    between atoms: O_8  and  C_2 
REMARK    3  A    between atoms: C_4  and  O_9 
REMARK    4  A    between atoms: C_5  and  O_10 
REMARK    5  A    between atoms: C_6  and  O_11 
ROOT
HETATM    1  C   UNK N   1      37.334  13.518  10.943  0.00  0.00     0.148 C 
HETATM    2  C   UNK N   1      35.576  15.008  10.240  0.00  0.00     0.131 C 
HETATM    3  C   UNK N   1      36.619  13.191  12.253  0.00  0.00     0.166 C 
HETATM    4  C   UNK N   1      34.767  14.711  11.521  0.00  0.00     0.173 C 
HETATM    5  C   UNK N   1      35.106  13.304  12.035  0.00  0.00     0.179 C 
HETATM    6  N   UNK N   1      37.014  14.883  10.516  0.00  0.00    -0.410 N 
HETATM    7  H   UNK N   1      37.693  15.637  10.421  0.00  0.00     0.153 HD
ENDROOT
BRANCH   2   8
HETATM    8  C   UNK N   1      35.283  16.428   9.767  0.00  0.00     0.191 C 
BRANCH   8   9
HETATM    9  O   UNK N   1      34.995  17.258  10.850  0.00  0.00    -0.399 OA
HETATM   10  H   UNK N   1      35.187  17.077  11.784  0.00  0.00     0.209 HD
ENDBRANCH   8   9
ENDBRANCH   2   8
BRANCH   4  11
HETATM   11  O   UNK N   1      33.396  14.799  11.258  0.00  0.00    -0.391 OA
HETATM   12  H   UNK N   1      32.988  14.309  10.528  0.00  0.00     0.210 HD
ENDBRANCH   4  11
BRANCH   5  13
HETATM   13  O   UNK N   1      34.432  13.057  13.233  0.00  0.00    -0.390 OA
HETATM   14  H   UNK N   1      33.481  13.137  13.413  0.00  0.00     0.210 HD
ENDBRANCH   5  13
BRANCH   3  15
HETATM   15  O   UNK N   1      36.951  11.896  12.653  0.00  0.00    -0.391 OA
HETATM   16  H   UNK N   1      37.812  11.640  13.020  0.00  0.00     0.210 HD
ENDBRANCH   3  15
TORSDOF 5
ENDMDL
MODEL 6
REMARK VINA RESULT:      -4.7      1.844      2.008
REMARK  5 active torsions:
REMARK  status: ('A' for Active; 'I' for Inactive)
REMARK    1  A    between atoms: C_3  and  C_2 
REMARK    2  A    between atoms: O_8  and  C_2 
REMARK    3  A    between atoms: C_4  and  O_9 
REMARK    4  A    between atoms: C_5  and  O_10 
REMARK    5  A    between atoms: C_6  and  O_11 
ROOT
HETATM    1  C   UNK N   1      32.958  15.300   9.373  0.00  0.00     0.148 C 
HETATM    2  C   UNK N   1      34.814  14.868  10.846  0.00  0.00     0.131 C 
HETATM    3  C   UNK N   1      33.363  16.762   9.188  0.00  0.00     0.166 C 
HETATM    4  C   UNK N   1      35.317  16.319  10.692  0.00  0.00     0.173 C 
HETATM    5  C   UNK N   1      34.885  16.877   9.329  0.00  0.00     0.179 C 
HETATM    6  N   UNK N   1      33.353  14.826  10.701  0.00  0.00    -0.410 N 
HETATM    7  H   UNK N   1      32.705  14.510  11.423  0.00  0.00     0.153 HD
ENDROOT
BRANCH   2   8
HETATM    8  C   UNK N   1      35.192  14.338  12.225  0.00  0.00     0.191 C 
BRANCH   8   9
HETATM    9  O   UNK N   1      34.398  13.242  12.565  0.00  0.00    -0.399 OA
HETATM   10  H   UNK N   1      34.678  12.458  13.063  0.00  0.00     0.209 HD
ENDBRANCH   8   9
ENDBRANCH   2   8
BRANCH   4  11
HETATM   11  O   UNK N   1      36.711  16.363  10.799  0.00  0.00    -0.391 OA
HETATM   12  H   UNK N   1      37.282  16.251  10.023  0.00  0.00     0.210 HD
ENDBRANCH   4  11
BRANCH   5  13
HETATM   13  O   UNK N   1      35.274  18.214   9.213  0.00  0.00    -0.390 OA
HETATM   14  H   UNK N   1      35.403  18.863   9.922  0.00  0.00     0.210 HD
ENDBRANCH   5  13
BRANCH   3  15
HETATM   15  O   UNK N   1      32.962  17.200   7.926  0.00  0.00    -0.391 OA
HETATM   16  H   UNK N   1      32.095  17.591   7.732  0.00  0.00     0.210 HD
ENDBRANCH   3  15
TORSDOF 5
ENDMDL
MODEL 7
REMARK VINA RESULT:      -4.6      2.417      4.078
REMARK  5 active torsions:
REMARK  status: ('A' for Active; 'I' for Inactive)
REMARK    1  A    between atoms: C_3  and  C_2 
REMARK    2  A    between atoms: O_8  and  C_2 
REMARK    3  A    between atoms: C_4  and  O_9 
REMARK    4  A    between atoms: C_5  and  O_10 
REMARK    5  A    between atoms: C_6  and  O_11 
ROOT
HETATM    1  C   UNK N   1      34.994  13.262  11.429  0.00  0.00     0.148 C 
HETATM    2  C   UNK N   1      33.669  14.938  10.315  0.00  0.00     0.131 C 
HETATM    3  C   UNK N   1      36.285  14.050  11.215  0.00  0.00     0.166 C 
HETATM    4  C   UNK N   1      34.916  15.817  10.084  0.00  0.00     0.173 C 
HETATM    5  C   UNK N   1      35.954  15.546  11.182  0.00  0.00     0.179 C 
HETATM    6  N   UNK N   1      34.052  13.519  10.336  0.00  0.00    -0.410 N 
HETATM    7  H   UNK N   1      33.711  12.814   9.683  0.00  0.00     0.153 HD
ENDROOT
BRANCH   2   8
HETATM    8  C   UNK N   1      32.665  15.164   9.189  0.00  0.00     0.191 C 
BRANCH   8   9
HETATM    9  O   UNK N   1      31.896  16.301   9.437  0.00  0.00    -0.399 OA
HETATM   10  H   UNK N   1      31.228  16.686   8.849  0.00  0.00     0.209 HD
ENDBRANCH   8   9
ENDBRANCH   2   8
BRANCH   4  11
HETATM   11  O   UNK N   1      34.562  17.170  10.092  0.00  0.00    -0.391 OA
HETATM   12  H   UNK N   1      33.796  17.496   9.595  0.00  0.00     0.210 HD
ENDBRANCH   4  11
BRANCH   5  13
HETATM   13  O   UNK N   1      37.114  16.285  10.937  0.00  0.00    -0.390 OA
HETATM   14  H   UNK N   1      38.017  15.956  10.807  0.00  0.00     0.210 HD
ENDBRANCH   5  13
BRANCH   3  15
HETATM   15  O   UNK N   1      37.174  13.777  12.255  0.00  0.00    -0.391 OA
HETATM   16  H   UNK N   1      38.028  13.329  12.142  0.00  0.00     0.210 HD
ENDBRANCH   3  15
TORSDOF 5
ENDMDL
MODEL 8
REMARK VINA RESULT:      -4.5      1.376      3.933
REMARK  5 active torsions:
REMARK  status: ('A' for Active; 'I' for Inactive)
REMARK    1  A    between atoms: C_3  and  C_2 
REMARK    2  A    between atoms: O_8  and  C_2 
REMARK    3  A    between atoms: C_4  and  O_9 
REMARK    4  A    between atoms: C_5  and  O_10 
REMARK    5  A    between atoms: C_6  and  O_11 
ROOT
HETATM    1  C   UNK N   1      33.189  14.836   9.968  0.00  0.00     0.148 C 
HETATM    2  C   UNK N   1      34.105  16.924   9.188  0.00  0.00     0.131 C 
HETATM    3  C   UNK N   1      34.452  14.507  10.764  0.00  0.00     0.166 C 
HETATM    4  C   UNK N   1      35.404  16.691   9.987  0.00  0.00     0.173 C 
HETATM    5  C   UNK N   1      35.110  15.816  11.214  0.00  0.00     0.179 C 
HETATM    6  N   UNK N   1      33.525  15.635   8.787  0.00  0.00    -0.410 N 
HETATM    7  H   UNK N   1      33.377  15.338   7.822  0.00  0.00     0.153 HD
ENDROOT
BRANCH   2   8
HETATM    8  C   UNK N   1      34.411  17.741   7.937  0.00  0.00     0.191 C 
BRANCH   8   9
HETATM    9  O   UNK N   1      34.735  19.055   8.276  0.00  0.00    -0.399 OA
HETATM   10  H   UNK N   1      35.202  19.347   9.075  0.00  0.00     0.209 HD
ENDBRANCH   8   9
ENDBRANCH   2   8
BRANCH   4  11
HETATM   11  O   UNK N   1      35.945  17.912  10.398  0.00  0.00    -0.391 OA
HETATM   12  H   UNK N   1      35.502  18.753  10.205  0.00  0.00     0.210 HD
ENDBRANCH   4  11
BRANCH   5  13
HETATM   13  O   UNK N   1      36.294  15.541  11.902  0.00  0.00    -0.390 OA
HETATM   14  H   UNK N   1      36.679  14.675  12.110  0.00  0.00     0.210 HD
ENDBRANCH   5  13
BRANCH   3  15
HETATM   15  O   UNK N   1      34.114  13.732  11.873  0.00  0.00    -0.391 OA
HETATM   16  H   UNK N   1      33.324  13.873  12.420  0.00  0.00     0.210 HD
ENDBRANCH   3  15
TORSDOF 5
ENDMDL
MODEL 9
REMARK VINA RESULT:      -4.5     14.783     15.764
REMARK  5 active torsions:
REMARK  status: ('A' for Active; 'I' for Inactive)
REMARK    1  A    between atoms: C_3  and  C_2 
REMARK    2  A    between atoms: O_8  and  C_2 
REMARK    3  A    between atoms: C_4  and  O_9 
REMARK    4  A    between atoms: C_5  and  O_10 
REMARK    5  A    between atoms: C_6  and  O_11 
ROOT
HETATM    1  C   UNK N   1      19.654  17.200   1.309  0.00  0.00     0.148 C 
HETATM    2  C   UNK N   1      20.217  19.483   1.834  0.00  0.00     0.131 C 
HETATM    3  C   UNK N   1      20.251  16.686   2.618  0.00  0.00     0.166 C 
HETATM    4  C   UNK N   1      20.812  19.059   3.193  0.00  0.00     0.173 C 
HETATM    5  C   UNK N   1      20.123  17.778   3.685  0.00  0.00     0.179 C 
HETATM    6  N   UNK N   1      20.371  18.396   0.858  0.00  0.00    -0.410 N 
HETATM    7  H   UNK N   1      20.900  18.465  -0.011  0.00  0.00     0.153 HD
ENDROOT
BRANCH   2   8
HETATM    8  C   UNK N   1      20.946  20.720   1.319  0.00  0.00     0.191 C 
BRANCH   8   9
HETATM    9  O   UNK N   1      20.775  20.852  -0.060  0.00  0.00    -0.399 OA
HETATM   10  H   UNK N   1      19.945  20.753  -0.551  0.00  0.00     0.209 HD
ENDBRANCH   8   9
ENDBRANCH   2   8
BRANCH   4  11
HETATM   11  O   UNK N   1      20.642  20.078   4.136  0.00  0.00    -0.391 OA
HETATM   12  H   UNK N   1      20.230  20.923   3.899  0.00  0.00     0.210 HD
ENDBRANCH   4  11
BRANCH   5  13
HETATM   13  O   UNK N   1      20.706  17.348   4.879  0.00  0.00    -0.390 OA
HETATM   14  H   UNK N   1      20.675  17.777   5.749  0.00  0.00     0.210 HD
ENDBRANCH   5  13
BRANCH   3  15
HETATM   15  O   UNK N   1      19.568  15.538   3.020  0.00  0.00    -0.391 OA
HETATM   16  H   UNK N   1      18.752  15.542   3.546  0.00  0.00     0.210 HD
ENDBRANCH   3  15
TORSDOF 5
ENDMDL
