REMARK  0 active torsions:
REMARK  status: ('A' for Active; 'I' for Inactive)
ROOT
HETATM    1 Cl   UNK N   1       5.713   3.116  -0.024  0.00  0.00    -0.081 Cl
HETATM    2  C   UNK N   1       4.170   2.265  -0.005  0.00  0.00     0.079 A 
HETATM    3  C   UNK N   1       4.133   0.844   0.001  0.00  0.00     0.080 A 
HETATM    4 Cl   UNK N   1       5.633  -0.084  -0.015  0.00  0.00    -0.081 Cl
HETATM    5  C   UNK N   1       2.889   0.172   0.011  0.00  0.00     0.074 A 
HETATM    6 Cl   UNK N   1       2.794  -1.587   0.017  0.00  0.00    -0.081 Cl
HETATM    7  C   UNK N   1       1.726   0.945   0.008  0.00  0.00     0.073 A 
HETATM    8  C   UNK N   1       0.340   0.593  -0.001  0.00  0.00     0.296 A 
HETATM    9  O   UNK N   1      -0.113  -0.538  -0.021  0.00  0.00    -0.259 OA
HETATM   10  O   UNK N   1      -0.424   1.704  -0.009  0.00  0.00    -0.313 OA
HETATM   11  C   UNK N   1       0.357   2.859  -0.005  0.00  0.00     0.220 A 
HETATM   12  C   UNK N   1       1.759   2.304   0.003  0.00  0.00     0.007 A 
HETATM   13  C   UNK N   1       2.963   3.002  -0.003  0.00  0.00     0.067 A 
HETATM   14 Cl   UNK N   1       2.950   4.761  -0.021  0.00  0.00    -0.082 Cl
ENDROOT
TORSDOF 0
