MODEL 1
REMARK VINA RESULT:      -5.3      0.000      0.000
REMARK  4 active torsions:
REMARK  status: ('A' for Active; 'I' for Inactive)
REMARK    1  A    between atoms: C_3  and  O_7 
REMARK    2  A    between atoms: C_4  and  O_8 
REMARK    3  A    between atoms: C_6  and  C_5 
REMARK    4  A    between atoms: O_10  and  C_6 
ROOT
HETATM    1  C   UNK N   1      33.530  16.320   9.052  0.00  0.00     0.051 C 
HETATM    2  C   UNK N   1      35.216  16.206  11.299  0.00  0.00     0.210 C 
HETATM    3  C   UNK N   1      33.308  15.216  10.053  0.00  0.00     0.174 C 
HETATM    4  C   UNK N   1      34.603  14.899  10.813  0.00  0.00     0.174 C 
HETATM    5  C   UNK N   1      34.567  17.173   9.178  0.00  0.00     0.141 C 
HETATM    6  O   UNK N   1      35.433  17.060  10.228  0.00  0.00    -0.342 OA
ENDROOT
BRANCH   5   7
HETATM    7  C   UNK N   1      34.771  18.249   8.187  0.00  0.00     0.200 C 
HETATM    8  O   UNK N   1      34.392  18.113   7.032  0.00  0.00    -0.645 OA
BRANCH   7   9
HETATM    9  O   UNK N   1      35.363  19.400   8.559  0.00  0.00    -0.771 OA
HETATM   10  H   UNK N   1      34.972  20.223   8.340  0.00  0.00     0.167 HD
ENDBRANCH   7   9
ENDBRANCH   5   7
BRANCH   3  11
HETATM   11  O   UNK N   1      32.851  14.070   9.400  0.00  0.00    -0.389 OA
HETATM   12  H   UNK N   1      33.268  13.374   8.868  0.00  0.00     0.210 HD
ENDBRANCH   3  11
BRANCH   4  13
HETATM   13  O   UNK N   1      34.337  14.060  11.896  0.00  0.00    -0.391 OA
HETATM   14  H   UNK N   1      34.458  14.329  12.821  0.00  0.00     0.210 HD
ENDBRANCH   4  13
TORSDOF 4
ENDMDL
MODEL 2
REMARK VINA RESULT:      -4.8     14.051     15.417
REMARK  4 active torsions:
REMARK  status: ('A' for Active; 'I' for Inactive)
REMARK    1  A    between atoms: C_3  and  O_7 
REMARK    2  A    between atoms: C_4  and  O_8 
REMARK    3  A    between atoms: C_6  and  C_5 
REMARK    4  A    between atoms: O_10  and  C_6 
ROOT
HETATM    1  C   UNK N   1      20.264  18.184   3.904  0.00  0.00     0.051 C 
HETATM    2  C   UNK N   1      21.859  20.129   2.647  0.00  0.00     0.210 C 
HETATM    3  C   UNK N   1      19.874  18.640   2.522  0.00  0.00     0.174 C 
HETATM    4  C   UNK N   1      20.390  20.059   2.248  0.00  0.00     0.174 C 
HETATM    5  C   UNK N   1      21.292  18.760   4.560  0.00  0.00     0.141 C 
HETATM    6  O   UNK N   1      22.012  19.763   3.976  0.00  0.00    -0.342 OA
ENDROOT
BRANCH   5   7
HETATM    7  C   UNK N   1      21.661  18.302   5.915  0.00  0.00     0.200 C 
HETATM    8  O   UNK N   1      21.053  18.708   6.896  0.00  0.00    -0.645 OA
BRANCH   7   9
HETATM    9  O   UNK N   1      22.662  17.416   6.075  0.00  0.00    -0.771 OA
HETATM   10  H   UNK N   1      22.752  16.947   6.880  0.00  0.00     0.167 HD
ENDBRANCH   7   9
ENDBRANCH   5   7
BRANCH   3  11
HETATM   11  O   UNK N   1      18.485  18.609   2.387  0.00  0.00    -0.389 OA
HETATM   12  H   UNK N   1      17.740  18.962   2.899  0.00  0.00     0.210 HD
ENDBRANCH   3  11
BRANCH   4  13
HETATM   13  O   UNK N   1      20.244  20.376   0.896  0.00  0.00    -0.391 OA
HETATM   14  H   UNK N   1      20.959  20.746   0.355  0.00  0.00     0.210 HD
ENDBRANCH   4  13
TORSDOF 4
ENDMDL
MODEL 3
REMARK VINA RESULT:      -4.7     10.537     12.355
REMARK  4 active torsions:
REMARK  status: ('A' for Active; 'I' for Inactive)
REMARK    1  A    between atoms: C_3  and  O_7 
REMARK    2  A    between atoms: C_4  and  O_8 
REMARK    3  A    between atoms: C_6  and  C_5 
REMARK    4  A    between atoms: O_10  and  C_6 
ROOT
HETATM    1  C   UNK N   1      42.429  22.442   2.750  0.00  0.00     0.051 C 
HETATM    2  C   UNK N   1      44.436  20.556   3.316  0.00  0.00     0.210 C 
HETATM    3  C   UNK N   1      43.763  22.946   3.236  0.00  0.00     0.174 C 
HETATM    4  C   UNK N   1      44.480  21.877   4.072  0.00  0.00     0.174 C 
HETATM    5  C   UNK N   1      42.171  21.120   2.680  0.00  0.00     0.141 C 
HETATM    6  O   UNK N   1      43.123  20.208   3.035  0.00  0.00    -0.342 OA
ENDROOT
BRANCH   5   7
HETATM    7  C   UNK N   1      40.857  20.642   2.202  0.00  0.00     0.200 C 
HETATM    8  O   UNK N   1      40.778  19.905   1.230  0.00  0.00    -0.645 OA
BRANCH   7   9
HETATM    9  O   UNK N   1      39.734  21.005   2.852  0.00  0.00    -0.771 OA
HETATM   10  H   UNK N   1      38.896  20.740   2.529  0.00  0.00     0.167 HD
ENDBRANCH   7   9
ENDBRANCH   5   7
BRANCH   3  11
HETATM   11  O   UNK N   1      43.583  24.100   4.000  0.00  0.00    -0.389 OA
HETATM   12  H   UNK N   1      44.017  24.967   4.042  0.00  0.00     0.210 HD
ENDBRANCH   3  11
BRANCH   4  13
HETATM   13  O   UNK N   1      45.803  22.253   4.308  0.00  0.00    -0.391 OA
HETATM   14  H   UNK N   1      46.239  22.988   3.849  0.00  0.00     0.210 HD
ENDBRANCH   4  13
TORSDOF 4
ENDMDL
MODEL 4
REMARK VINA RESULT:      -4.7      2.648      4.419
REMARK  4 active torsions:
REMARK  status: ('A' for Active; 'I' for Inactive)
REMARK    1  A    between atoms: C_3  and  O_7 
REMARK    2  A    between atoms: C_4  and  O_8 
REMARK    3  A    between atoms: C_6  and  C_5 
REMARK    4  A    between atoms: O_10  and  C_6 
ROOT
HETATM    1  C   UNK N   1      32.732  17.214   7.995  0.00  0.00     0.051 C 
HETATM    2  C   UNK N   1      33.465  17.248   5.281  0.00  0.00     0.210 C 
HETATM    3  C   UNK N   1      31.744  16.692   6.984  0.00  0.00     0.174 C 
HETATM    4  C   UNK N   1      31.980  17.331   5.609  0.00  0.00     0.174 C 
HETATM    5  C   UNK N   1      33.896  17.771   7.604  0.00  0.00     0.141 C 
HETATM    6  O   UNK N   1      34.210  17.860   6.278  0.00  0.00    -0.342 OA
ENDROOT
BRANCH   5   7
HETATM    7  C   UNK N   1      34.853  18.278   8.608  0.00  0.00     0.200 C 
HETATM    8  O   UNK N   1      35.366  19.381   8.478  0.00  0.00    -0.645 OA
BRANCH   7   9
HETATM    9  O   UNK N   1      35.151  17.532   9.689  0.00  0.00    -0.771 OA
HETATM   10  H   UNK N   1      34.804  17.758  10.529  0.00  0.00     0.167 HD
ENDBRANCH   7   9
ENDBRANCH   5   7
BRANCH   3  11
HETATM   11  O   UNK N   1      30.443  16.960   7.412  0.00  0.00    -0.389 OA
HETATM   12  H   UNK N   1      29.592  16.496   7.347  0.00  0.00     0.210 HD
ENDBRANCH   3  11
BRANCH   4  13
HETATM   13  O   UNK N   1      31.234  16.670   4.632  0.00  0.00    -0.391 OA
HETATM   14  H   UNK N   1      31.381  16.785   3.680  0.00  0.00     0.210 HD
ENDBRANCH   4  13
TORSDOF 4
ENDMDL
MODEL 5
REMARK VINA RESULT:      -4.3     13.877     14.933
REMARK  4 active torsions:
REMARK  status: ('A' for Active; 'I' for Inactive)
REMARK    1  A    between atoms: C_3  and  O_7 
REMARK    2  A    between atoms: C_4  and  O_8 
REMARK    3  A    between atoms: C_6  and  C_5 
REMARK    4  A    between atoms: O_10  and  C_6 
ROOT
HETATM    1  C   UNK N   1      20.773  19.423   2.602  0.00  0.00     0.051 C 
HETATM    2  C   UNK N   1      20.876  17.767   4.872  0.00  0.00     0.210 C 
HETATM    3  C   UNK N   1      19.598  18.522   2.880  0.00  0.00     0.174 C 
HETATM    4  C   UNK N   1      20.030  17.296   3.696  0.00  0.00     0.174 C 
HETATM    5  C   UNK N   1      21.884  19.369   3.365  0.00  0.00     0.141 C 
HETATM    6  O   UNK N   1      21.960  18.502   4.418  0.00  0.00    -0.342 OA
ENDROOT
BRANCH   5   7
HETATM    7  C   UNK N   1      23.028  20.259   3.079  0.00  0.00     0.200 C 
HETATM    8  O   UNK N   1      22.845  21.425   2.759  0.00  0.00    -0.645 OA
BRANCH   7   9
HETATM    9  O   UNK N   1      24.286  19.790   3.188  0.00  0.00    -0.771 OA
HETATM   10  H   UNK N   1      25.012  20.381   3.168  0.00  0.00     0.167 HD
ENDBRANCH   7   9
ENDBRANCH   5   7
BRANCH   3  11
HETATM   11  O   UNK N   1      19.024  18.109   1.676  0.00  0.00    -0.389 OA
HETATM   12  H   UNK N   1      18.457  18.528   1.010  0.00  0.00     0.210 HD
ENDBRANCH   3  11
BRANCH   4  13
HETATM   13  O   UNK N   1      18.910  16.602   4.157  0.00  0.00    -0.391 OA
HETATM   14  H   UNK N   1      18.218  16.255   3.571  0.00  0.00     0.210 HD
ENDBRANCH   4  13
TORSDOF 4
ENDMDL
MODEL 6
REMARK VINA RESULT:      -4.2     17.972     19.508
REMARK  4 active torsions:
REMARK  status: ('A' for Active; 'I' for Inactive)
REMARK    1  A    between atoms: C_3  and  O_7 
REMARK    2  A    between atoms: C_4  and  O_8 
REMARK    3  A    between atoms: C_6  and  C_5 
REMARK    4  A    between atoms: O_10  and  C_6 
ROOT
HETATM    1  C   UNK N   1      26.726  26.534  -3.585  0.00  0.00     0.051 C 
HETATM    2  C   UNK N   1      25.502  26.692  -6.111  0.00  0.00     0.210 C 
HETATM    3  C   UNK N   1      26.501  25.255  -4.349  0.00  0.00     0.174 C 
HETATM    4  C   UNK N   1      25.326  25.400  -5.324  0.00  0.00     0.174 C 
HETATM    5  C   UNK N   1      26.267  27.712  -4.054  0.00  0.00     0.141 C 
HETATM    6  O   UNK N   1      25.599  27.770  -5.245  0.00  0.00    -0.342 OA
ENDROOT
BRANCH   5   7
HETATM    7  C   UNK N   1      26.494  28.957  -3.293  0.00  0.00     0.200 C 
HETATM    8  O   UNK N   1      27.150  28.944  -2.260  0.00  0.00    -0.645 OA
BRANCH   7   9
HETATM    9  O   UNK N   1      25.993  30.122  -3.746  0.00  0.00    -0.771 OA
HETATM   10  H   UNK N   1      25.145  30.409  -3.471  0.00  0.00     0.167 HD
ENDBRANCH   7   9
ENDBRANCH   5   7
BRANCH   3  11
HETATM   11  O   UNK N   1      26.249  24.210  -3.458  0.00  0.00    -0.389 OA
HETATM   12  H   UNK N   1      26.207  23.243  -3.532  0.00  0.00     0.210 HD
ENDBRANCH   3  11
BRANCH   4  13
HETATM   13  O   UNK N   1      25.282  24.309  -6.195  0.00  0.00    -0.391 OA
HETATM   14  H   UNK N   1      25.596  23.423  -5.957  0.00  0.00     0.210 HD
ENDBRANCH   4  13
TORSDOF 4
ENDMDL
MODEL 7
REMARK VINA RESULT:      -4.1      5.218      6.095
REMARK  4 active torsions:
REMARK  status: ('A' for Active; 'I' for Inactive)
REMARK    1  A    between atoms: C_3  and  O_7 
REMARK    2  A    between atoms: C_4  and  O_8 
REMARK    3  A    between atoms: C_6  and  C_5 
REMARK    4  A    between atoms: O_10  and  C_6 
ROOT
HETATM    1  C   UNK N   1      28.543  18.120   7.174  0.00  0.00     0.051 C 
HETATM    2  C   UNK N   1      30.952  18.021   8.619  0.00  0.00     0.210 C 
HETATM    3  C   UNK N   1      28.542  18.619   8.595  0.00  0.00     0.174 C 
HETATM    4  C   UNK N   1      29.654  17.948   9.412  0.00  0.00     0.174 C 
HETATM    5  C   UNK N   1      29.643  17.552   6.639  0.00  0.00     0.141 C 
HETATM    6  O   UNK N   1      30.787  17.432   7.374  0.00  0.00    -0.342 OA
ENDROOT
BRANCH   5   7
HETATM    7  C   UNK N   1      29.627  17.067   5.244  0.00  0.00     0.200 C 
HETATM    8  O   UNK N   1      29.927  15.910   4.984  0.00  0.00    -0.645 OA
BRANCH   7   9
HETATM    9  O   UNK N   1      29.260  17.897   4.249  0.00  0.00    -0.771 OA
HETATM   10  H   UNK N   1      29.682  18.727   4.148  0.00  0.00     0.167 HD
ENDBRANCH   7   9
ENDBRANCH   5   7
BRANCH   3  11
HETATM   11  O   UNK N   1      27.303  18.364   9.186  0.00  0.00    -0.389 OA
HETATM   12  H   UNK N   1      26.550  17.789   8.975  0.00  0.00     0.210 HD
ENDBRANCH   3  11
BRANCH   4  13
HETATM   13  O   UNK N   1      29.805  18.588  10.643  0.00  0.00    -0.391 OA
HETATM   14  H   UNK N   1      30.668  18.825  11.018  0.00  0.00     0.210 HD
ENDBRANCH   4  13
TORSDOF 4
ENDMDL
MODEL 8
REMARK VINA RESULT:      -4.1      2.804      4.539
REMARK  4 active torsions:
REMARK  status: ('A' for Active; 'I' for Inactive)
REMARK    1  A    between atoms: C_3  and  O_7 
REMARK    2  A    between atoms: C_4  and  O_8 
REMARK    3  A    between atoms: C_6  and  C_5 
REMARK    4  A    between atoms: O_10  and  C_6 
ROOT
HETATM    1  C   UNK N   1      34.656  16.067   6.981  0.00  0.00     0.051 C 
HETATM    2  C   UNK N   1      33.355  17.531   4.964  0.00  0.00     0.210 C 
HETATM    3  C   UNK N   1      34.312  15.358   5.696  0.00  0.00     0.174 C 
HETATM    4  C   UNK N   1      33.115  16.027   5.007  0.00  0.00     0.174 C 
HETATM    5  C   UNK N   1      34.267  17.340   7.197  0.00  0.00     0.141 C 
HETATM    6  O   UNK N   1      33.562  18.019   6.245  0.00  0.00    -0.342 OA
ENDROOT
BRANCH   5   7
HETATM    7  C   UNK N   1      34.612  18.019   8.462  0.00  0.00     0.200 C 
HETATM    8  O   UNK N   1      35.200  19.091   8.453  0.00  0.00    -0.645 OA
BRANCH   7   9
HETATM    9  O   UNK N   1      34.260  17.466   9.639  0.00  0.00    -0.771 OA
HETATM   10  H   UNK N   1      34.711  16.710   9.958  0.00  0.00     0.167 HD
ENDBRANCH   7   9
ENDBRANCH   5   7
BRANCH   3  11
HETATM   11  O   UNK N   1      34.018  14.019   5.959  0.00  0.00    -0.389 OA
HETATM   12  H   UNK N   1      34.379  13.343   6.554  0.00  0.00     0.210 HD
ENDBRANCH   3  11
BRANCH   4  13
HETATM   13  O   UNK N   1      32.960  15.528   3.713  0.00  0.00    -0.391 OA
HETATM   14  H   UNK N   1      33.649  15.586   3.032  0.00  0.00     0.210 HD
ENDBRANCH   4  13
TORSDOF 4
ENDMDL
MODEL 9
REMARK VINA RESULT:      -4.1     12.148     13.441
REMARK  4 active torsions:
REMARK  status: ('A' for Active; 'I' for Inactive)
REMARK    1  A    between atoms: C_3  and  O_7 
REMARK    2  A    between atoms: C_4  and  O_8 
REMARK    3  A    between atoms: C_6  and  C_5 
REMARK    4  A    between atoms: O_10  and  C_6 
ROOT
HETATM    1  C   UNK N   1      43.645  23.562   1.751  0.00  0.00     0.051 C 
HETATM    2  C   UNK N   1      43.577  21.438   3.591  0.00  0.00     0.210 C 
HETATM    3  C   UNK N   1      44.931  23.165   2.427  0.00  0.00     0.174 C 
HETATM    4  C   UNK N   1      44.653  22.499   3.781  0.00  0.00     0.174 C 
HETATM    5  C   UNK N   1      42.475  22.981   2.087  0.00  0.00     0.141 C 
HETATM    6  O   UNK N   1      42.437  22.006   3.043  0.00  0.00    -0.342 OA
ENDROOT
BRANCH   5   7
HETATM    7  C   UNK N   1      41.223  23.383   1.415  0.00  0.00     0.200 C 
HETATM    8  O   UNK N   1      40.488  22.543   0.914  0.00  0.00    -0.645 OA
BRANCH   7   9
HETATM    9  O   UNK N   1      40.874  24.683   1.369  0.00  0.00    -0.771 OA
HETATM   10  H   UNK N   1      41.172  25.226   0.667  0.00  0.00     0.167 HD
ENDBRANCH   7   9
ENDBRANCH   5   7
BRANCH   3  11
HETATM   11  O   UNK N   1      45.736  24.291   2.612  0.00  0.00    -0.389 OA
HETATM   12  H   UNK N   1      45.691  25.218   2.328  0.00  0.00     0.210 HD
ENDBRANCH   3  11
BRANCH   4  13
HETATM   13  O   UNK N   1      45.818  21.917   4.283  0.00  0.00    -0.391 OA
HETATM   14  H   UNK N   1      45.841  21.040   4.700  0.00  0.00     0.210 HD
ENDBRANCH   4  13
TORSDOF 4
ENDMDL
