MODEL 1
REMARK VINA RESULT:      -7.4      0.000      0.000
REMARK  14 active torsions:
REMARK  status: ('A' for Active; 'I' for Inactive)
REMARK    1  A    between atoms: C_13  and  C_7 
REMARK    2  A    between atoms: O_34  and  C_7 
REMARK    3  A    between atoms: C_18  and  C_10 
REMARK    4  A    between atoms: N_20  and  C_11 
REMARK    5  A    between atoms: C_12  and  O_36 
REMARK    6  A    between atoms: C_14  and  N_27 
REMARK    7  A    between atoms: N_19  and  C_16 
REMARK    8  A    between atoms: O_36  and  C_18 
REMARK    9  A    between atoms: P_38  and  O_29 
REMARK   10  A    between atoms: P_38  and  O_30 
REMARK   11  A    between atoms: P_39  and  O_32 
REMARK   12  A    between atoms: P_39  and  O_34 
REMARK   13  A    between atoms: P_38  and  O_37 
REMARK   14  A    between atoms: P_39  and  O_37 
ROOT
HETATM    1  C   UNK N   1      25.069  14.172   7.276  0.00  0.00     0.089 C 
HETATM    2  C   UNK N   1      24.607  14.874   6.051  0.00  0.00     0.167 C 
HETATM    3  C   UNK N   1      23.070  14.829   6.202  0.00  0.00     0.178 C 
HETATM    4  C   UNK N   1      23.904  13.275   7.604  0.00  0.00     0.233 C 
HETATM    5  O   UNK N   1      22.740  14.014   7.313  0.00  0.00    -0.356 OA
ENDROOT
BRANCH   4   6
HETATM    6  N   UNK N   1      24.000  12.910   9.019  0.00  0.00    -0.300 N 
HETATM    7  C   UNK N   1      25.156  12.872   9.736  0.00  0.00     0.188 A 
HETATM    8  N   UNK N   1      24.926  12.556  11.040  0.00  0.00    -0.346 N 
HETATM    9  C   UNK N   1      23.592  12.396  11.111  0.00  0.00     0.122 A 
ATOM     10  HN  UNK N   1      25.608  12.462  11.792  1.00  0.00     0.167 HD
HETATM   11  C   UNK N   1      22.794  12.092  12.199  0.00  0.00     0.131 A 
HETATM   12  C   UNK N   1      23.040  12.597   9.897  0.00  0.00     0.142 A 
HETATM   13  N   UNK N   1      21.445  11.994  11.996  0.00  0.00    -0.337 N 
HETATM   14  C   UNK N   1      20.904  12.190  10.749  0.00  0.00     0.183 A 
ATOM     15  HN  UNK N   1      20.834  11.774  12.782  1.00  0.00     0.168 HD
HETATM   16  N   UNK N   1      21.706  12.501   9.683  0.00  0.00    -0.336 N 
ATOM     17  HN  UNK N   1      21.311  12.653   8.755  1.00  0.00     0.168 HD
BRANCH  11  18
HETATM   18  N   UNK N   1      23.345  11.902  13.482  0.00  0.00    -0.383 N 
HETATM   19  H   UNK N   1      24.162  12.335  13.821  0.00  0.00     0.157 HD
HETATM   20  H   UNK N   1      22.876  11.285  14.089  0.00  0.00     0.157 HD
ENDBRANCH  11  18
ENDBRANCH   4   6
BRANCH   2  21
HETATM   21  O   UNK N   1      25.157  16.148   6.057  0.00  0.00    -0.309 OA
BRANCH  21  22
HETATM   22  C   UNK N   1      25.573  16.870   4.980  0.00  0.00     0.296 C 
HETATM   23  O   UNK N   1      25.365  16.403   3.874  0.00  0.00    -0.259 OA
BRANCH  22  24
HETATM   24  C   UNK N   1      26.117  18.259   5.103  0.00  0.00     0.065 A 
HETATM   25  C   UNK N   1      27.340  18.405   5.777  0.00  0.00     0.020 A 
HETATM   26  C   UNK N   1      27.891  19.658   6.033  0.00  0.00     0.001 A 
HETATM   27  C   UNK N   1      27.221  20.803   5.625  0.00  0.00     0.002 A 
HETATM   28  C   UNK N   1      26.008  20.694   4.950  0.00  0.00     0.030 A 
HETATM   29  C   UNK N   1      25.434  19.447   4.672  0.00  0.00     0.044 A 
BRANCH  29  30
HETATM   30  N   UNK N   1      24.213  19.467   3.937  0.00  0.00    -0.393 N 
HETATM   31  C   UNK N   1      23.824  20.460   2.971  0.00  0.00     0.146 C 
HETATM   32  H   UNK N   1      23.578  18.734   4.105  0.00  0.00     0.159 HD
ENDBRANCH  29  30
ENDBRANCH  22  24
ENDBRANCH  21  22
ENDBRANCH   2  21
BRANCH   3  33
HETATM   33  C   UNK N   1      22.379  16.193   6.303  0.00  0.00     0.215 C 
BRANCH  33  34
HETATM   34  O   UNK N   1      22.118  16.773   5.056  0.00  0.00    -0.294 OA
BRANCH  34  35
HETATM   35  P   UNK N   1      20.908  17.984   5.390  0.00  0.00     0.401 P 
HETATM   36  O   UNK N   1      22.121  18.437   6.241  0.00  0.00    -0.631 OA
BRANCH  35  37
HETATM   37  O   UNK N   1      21.140  19.653   4.971  0.00  0.00    -0.307 OA
HETATM   38  H   UNK N   1      21.917  20.232   5.026  0.00  0.00     0.222 HD
ENDBRANCH  35  37
BRANCH  35  39
HETATM   39  O   UNK N   1      21.304  18.106   3.695  0.00  0.00    -0.195 OA
BRANCH  39  40
HETATM   40  P   UNK N   1      19.972  17.377   2.827  0.00  0.00     0.399 P 
HETATM   41  O   UNK N   1      20.470  16.983   1.411  0.00  0.00    -0.631 OA
BRANCH  40  42
HETATM   42  O   UNK N   1      18.683  18.517   2.604  0.00  0.00    -0.307 OA
HETATM   43  H   UNK N   1      18.381  19.029   1.838  0.00  0.00     0.222 HD
ENDBRANCH  40  42
BRANCH  40  44
HETATM   44  O   UNK N   1      19.382  15.936   3.597  0.00  0.00    -0.307 OA
HETATM   45  H   UNK N   1      19.823  15.100   3.810  0.00  0.00     0.222 HD
ENDBRANCH  40  44
ENDBRANCH  39  40
ENDBRANCH  35  39
ENDBRANCH  34  35
ENDBRANCH  33  34
ENDBRANCH   3  33
TORSDOF 14
ENDMDL
MODEL 2
REMARK VINA RESULT:      -7.2      7.903     10.860
REMARK  14 active torsions:
REMARK  status: ('A' for Active; 'I' for Inactive)
REMARK    1  A    between atoms: C_13  and  C_7 
REMARK    2  A    between atoms: O_34  and  C_7 
REMARK    3  A    between atoms: C_18  and  C_10 
REMARK    4  A    between atoms: N_20  and  C_11 
REMARK    5  A    between atoms: C_12  and  O_36 
REMARK    6  A    between atoms: C_14  and  N_27 
REMARK    7  A    between atoms: N_19  and  C_16 
REMARK    8  A    between atoms: O_36  and  C_18 
REMARK    9  A    between atoms: P_38  and  O_29 
REMARK   10  A    between atoms: P_38  and  O_30 
REMARK   11  A    between atoms: P_39  and  O_32 
REMARK   12  A    between atoms: P_39  and  O_34 
REMARK   13  A    between atoms: P_38  and  O_37 
REMARK   14  A    between atoms: P_39  and  O_37 
ROOT
HETATM    1  C   UNK N   1      34.114  16.232   6.429  0.00  0.00     0.089 C 
HETATM    2  C   UNK N   1      34.032  17.057   7.661  0.00  0.00     0.167 C 
HETATM    3  C   UNK N   1      32.642  17.719   7.524  0.00  0.00     0.178 C 
HETATM    4  C   UNK N   1      33.203  16.961   5.478  0.00  0.00     0.233 C 
HETATM    5  O   UNK N   1      32.112  17.418   6.245  0.00  0.00    -0.356 OA
ENDROOT
BRANCH   4   6
HETATM    6  N   UNK N   1      32.800  16.022   4.430  0.00  0.00    -0.300 N 
HETATM    7  C   UNK N   1      33.503  15.778   3.290  0.00  0.00     0.188 A 
HETATM    8  N   UNK N   1      32.911  14.813   2.534  0.00  0.00    -0.346 N 
HETATM    9  C   UNK N   1      31.818  14.466   3.236  0.00  0.00     0.122 A 
ATOM     10  HN  UNK N   1      33.225  14.438   1.639  1.00  0.00     0.167 HD
HETATM   11  C   UNK N   1      30.854  13.513   2.960  0.00  0.00     0.131 A 
HETATM   12  C   UNK N   1      31.746  15.199   4.366  0.00  0.00     0.142 A 
HETATM   13  N   UNK N   1      29.836  13.352   3.859  0.00  0.00    -0.337 N 
HETATM   14  C   UNK N   1      29.774  14.118   4.998  0.00  0.00     0.183 A 
ATOM     15  HN  UNK N   1      29.114  12.655   3.680  1.00  0.00     0.168 HD
HETATM   16  N   UNK N   1      30.741  15.052   5.263  0.00  0.00    -0.336 N 
ATOM     17  HN  UNK N   1      30.705  15.619   6.109  1.00  0.00     0.168 HD
BRANCH  11  18
HETATM   18  N   UNK N   1      30.922  12.718   1.798  0.00  0.00    -0.383 N 
HETATM   19  H   UNK N   1      31.660  12.110   1.566  0.00  0.00     0.157 HD
HETATM   20  H   UNK N   1      30.168  12.776   1.167  0.00  0.00     0.157 HD
ENDBRANCH  11  18
ENDBRANCH   4   6
BRANCH   2  21
HETATM   21  O   UNK N   1      34.169  16.210   8.752  0.00  0.00    -0.309 OA
BRANCH  21  22
HETATM   22  C   UNK N   1      34.942  16.409   9.856  0.00  0.00     0.296 C 
HETATM   23  O   UNK N   1      35.406  17.523  10.025  0.00  0.00    -0.259 OA
BRANCH  22  24
HETATM   24  C   UNK N   1      35.099  15.374  10.925  0.00  0.00     0.065 A 
HETATM   25  C   UNK N   1      35.928  15.702  12.010  0.00  0.00     0.020 A 
HETATM   26  C   UNK N   1      36.221  14.783  13.013  0.00  0.00     0.001 A 
HETATM   27  C   UNK N   1      35.696  13.500  12.948  0.00  0.00     0.002 A 
HETATM   28  C   UNK N   1      34.867  13.141  11.888  0.00  0.00     0.030 A 
HETATM   29  C   UNK N   1      34.549  14.048  10.869  0.00  0.00     0.044 A 
BRANCH  29  30
HETATM   30  N   UNK N   1      33.656  13.575   9.864  0.00  0.00    -0.393 N 
HETATM   31  C   UNK N   1      33.978  12.640   8.819  0.00  0.00     0.146 C 
HETATM   32  H   UNK N   1      32.734  13.919   9.888  0.00  0.00     0.159 HD
ENDBRANCH  29  30
ENDBRANCH  22  24
ENDBRANCH  21  22
ENDBRANCH   2  21
BRANCH   3  33
HETATM   33  C   UNK N   1      31.636  17.371   8.626  0.00  0.00     0.215 C 
BRANCH  33  34
HETATM   34  O   UNK N   1      30.779  18.430   8.947  0.00  0.00    -0.294 OA
BRANCH  34  35
HETATM   35  P   UNK N   1      29.203  17.692   9.055  0.00  0.00     0.401 P 
HETATM   36  O   UNK N   1      29.304  18.531  10.354  0.00  0.00    -0.631 OA
BRANCH  35  37
HETATM   37  O   UNK N   1      27.747  18.638   9.082  0.00  0.00    -0.307 OA
HETATM   38  H   UNK N   1      27.577  19.570   8.872  0.00  0.00     0.222 HD
ENDBRANCH  35  37
BRANCH  35  39
HETATM   39  O   UNK N   1      29.179  18.755   7.672  0.00  0.00    -0.195 OA
BRANCH  39  40
HETATM   40  P   UNK N   1      28.360  17.881   6.398  0.00  0.00     0.399 P 
HETATM   41  O   UNK N   1      28.155  16.416   6.864  0.00  0.00    -0.631 OA
BRANCH  40  42
HETATM   42  O   UNK N   1      29.339  17.818   4.967  0.00  0.00    -0.307 OA
HETATM   43  H   UNK N   1      29.674  17.083   4.429  0.00  0.00     0.222 HD
ENDBRANCH  40  42
BRANCH  40  44
HETATM   44  O   UNK N   1      26.795  18.541   6.033  0.00  0.00    -0.307 OA
HETATM   45  H   UNK N   1      26.037  18.164   5.561  0.00  0.00     0.222 HD
ENDBRANCH  40  44
ENDBRANCH  39  40
ENDBRANCH  35  39
ENDBRANCH  34  35
ENDBRANCH  33  34
ENDBRANCH   3  33
TORSDOF 14
ENDMDL
MODEL 3
REMARK VINA RESULT:      -7.2      7.689     10.458
REMARK  14 active torsions:
REMARK  status: ('A' for Active; 'I' for Inactive)
REMARK    1  A    between atoms: C_13  and  C_7 
REMARK    2  A    between atoms: O_34  and  C_7 
REMARK    3  A    between atoms: C_18  and  C_10 
REMARK    4  A    between atoms: N_20  and  C_11 
REMARK    5  A    between atoms: C_12  and  O_36 
REMARK    6  A    between atoms: C_14  and  N_27 
REMARK    7  A    between atoms: N_19  and  C_16 
REMARK    8  A    between atoms: O_36  and  C_18 
REMARK    9  A    between atoms: P_38  and  O_29 
REMARK   10  A    between atoms: P_38  and  O_30 
REMARK   11  A    between atoms: P_39  and  O_32 
REMARK   12  A    between atoms: P_39  and  O_34 
REMARK   13  A    between atoms: P_38  and  O_37 
REMARK   14  A    between atoms: P_39  and  O_37 
ROOT
HETATM    1  C   UNK N   1      32.255  17.189   6.820  0.00  0.00     0.089 C 
HETATM    2  C   UNK N   1      31.838  17.513   5.431  0.00  0.00     0.167 C 
HETATM    3  C   UNK N   1      33.144  17.296   4.634  0.00  0.00     0.178 C 
HETATM    4  C   UNK N   1      33.732  17.482   6.801  0.00  0.00     0.233 C 
HETATM    5  O   UNK N   1      34.205  17.058   5.543  0.00  0.00    -0.356 OA
ENDROOT
BRANCH   4   6
HETATM    6  N   UNK N   1      34.350  16.753   7.910  0.00  0.00    -0.300 N 
HETATM    7  C   UNK N   1      34.631  17.285   9.131  0.00  0.00     0.188 A 
HETATM    8  N   UNK N   1      35.148  16.352   9.976  0.00  0.00    -0.346 N 
HETATM    9  C   UNK N   1      35.184  15.225   9.243  0.00  0.00     0.122 A 
ATOM     10  HN  UNK N   1      35.443  16.478  10.945  1.00  0.00     0.167 HD
HETATM   11  C   UNK N   1      35.595  13.952   9.596  0.00  0.00     0.131 A 
HETATM   12  C   UNK N   1      34.716  15.469   8.002  0.00  0.00     0.142 A 
HETATM   13  N   UNK N   1      35.519  12.969   8.649  0.00  0.00    -0.337 N 
HETATM   14  C   UNK N   1      35.051  13.241   7.386  0.00  0.00     0.183 A 
ATOM     15  HN  UNK N   1      35.813  12.021   8.884  1.00  0.00     0.168 HD
HETATM   16  N   UNK N   1      34.638  14.505   7.054  0.00  0.00    -0.336 N 
ATOM     17  HN  UNK N   1      34.284  14.713   6.121  1.00  0.00     0.168 HD
BRANCH  11  18
HETATM   18  N   UNK N   1      36.064  13.667  10.894  0.00  0.00    -0.383 N 
HETATM   19  H   UNK N   1      35.559  13.812  11.727  0.00  0.00     0.157 HD
HETATM   20  H   UNK N   1      36.971  13.293  10.975  0.00  0.00     0.157 HD
ENDBRANCH  11  18
ENDBRANCH   4   6
BRANCH   2  21
HETATM   21  O   UNK N   1      30.797  16.662   5.088  0.00  0.00    -0.309 OA
BRANCH  21  22
HETATM   22  C   UNK N   1      29.524  16.683   5.571  0.00  0.00     0.296 C 
HETATM   23  O   UNK N   1      29.059  15.635   5.981  0.00  0.00    -0.259 OA
BRANCH  22  24
HETATM   24  C   UNK N   1      28.756  17.954   5.760  0.00  0.00     0.065 A 
HETATM   25  C   UNK N   1      28.452  18.692   4.605  0.00  0.00     0.020 A 
HETATM   26  C   UNK N   1      27.826  19.933   4.671  0.00  0.00     0.001 A 
HETATM   27  C   UNK N   1      27.495  20.474   5.905  0.00  0.00     0.002 A 
HETATM   28  C   UNK N   1      27.779  19.768   7.071  0.00  0.00     0.030 A 
HETATM   29  C   UNK N   1      28.401  18.514   7.035  0.00  0.00     0.044 A 
BRANCH  29  30
HETATM   30  N   UNK N   1      28.596  17.873   8.293  0.00  0.00    -0.393 N 
HETATM   31  C   UNK N   1      29.403  18.367   9.377  0.00  0.00     0.146 C 
HETATM   32  H   UNK N   1      28.136  17.014   8.434  0.00  0.00     0.159 HD
ENDBRANCH  29  30
ENDBRANCH  22  24
ENDBRANCH  21  22
ENDBRANCH   2  21
BRANCH   3  33
HETATM   33  C   UNK N   1      33.088  16.200   3.565  0.00  0.00     0.215 C 
BRANCH  33  34
HETATM   34  O   UNK N   1      33.331  14.919   4.073  0.00  0.00    -0.294 OA
BRANCH  34  35
HETATM   35  P   UNK N   1      33.096  13.862   2.706  0.00  0.00     0.401 P 
HETATM   36  O   UNK N   1      34.511  14.448   2.474  0.00  0.00    -0.631 OA
BRANCH  35  37
HETATM   37  O   UNK N   1      34.107  12.476   2.434  0.00  0.00    -0.307 OA
HETATM   38  H   UNK N   1      35.068  12.356   2.487  0.00  0.00     0.222 HD
ENDBRANCH  35  37
BRANCH  35  39
HETATM   39  O   UNK N   1      33.104  12.861   4.136  0.00  0.00    -0.195 OA
BRANCH  39  40
HETATM   40  P   UNK N   1      31.539  13.069   4.888  0.00  0.00     0.399 P 
HETATM   41  O   UNK N   1      30.944  11.664   5.174  0.00  0.00    -0.631 OA
BRANCH  40  42
HETATM   42  O   UNK N   1      30.438  13.868   3.810  0.00  0.00    -0.307 OA
HETATM   43  H   UNK N   1      29.495  14.086   3.873  0.00  0.00     0.222 HD
ENDBRANCH  40  42
BRANCH  40  44
HETATM   44  O   UNK N   1      31.632  13.919   6.400  0.00  0.00    -0.307 OA
HETATM   45  H   UNK N   1      32.100  13.709   7.223  0.00  0.00     0.222 HD
ENDBRANCH  40  44
ENDBRANCH  39  40
ENDBRANCH  35  39
ENDBRANCH  34  35
ENDBRANCH  33  34
ENDBRANCH   3  33
TORSDOF 14
ENDMDL
MODEL 4
REMARK VINA RESULT:      -7.1      8.449     11.373
REMARK  14 active torsions:
REMARK  status: ('A' for Active; 'I' for Inactive)
REMARK    1  A    between atoms: C_13  and  C_7 
REMARK    2  A    between atoms: O_34  and  C_7 
REMARK    3  A    between atoms: C_18  and  C_10 
REMARK    4  A    between atoms: N_20  and  C_11 
REMARK    5  A    between atoms: C_12  and  O_36 
REMARK    6  A    between atoms: C_14  and  N_27 
REMARK    7  A    between atoms: N_19  and  C_16 
REMARK    8  A    between atoms: O_36  and  C_18 
REMARK    9  A    between atoms: P_38  and  O_29 
REMARK   10  A    between atoms: P_38  and  O_30 
REMARK   11  A    between atoms: P_39  and  O_32 
REMARK   12  A    between atoms: P_39  and  O_34 
REMARK   13  A    between atoms: P_38  and  O_37 
REMARK   14  A    between atoms: P_39  and  O_37 
ROOT
HETATM    1  C   UNK N   1      30.763  15.425   5.691  0.00  0.00     0.089 C 
HETATM    2  C   UNK N   1      30.277  16.072   6.936  0.00  0.00     0.167 C 
HETATM    3  C   UNK N   1      31.506  15.967   7.867  0.00  0.00     0.178 C 
HETATM    4  C   UNK N   1      31.830  14.490   6.196  0.00  0.00     0.233 C 
HETATM    5  O   UNK N   1      32.494  15.170   7.236  0.00  0.00    -0.356 OA
ENDROOT
BRANCH   4   6
HETATM    6  N   UNK N   1      32.716  14.169   5.076  0.00  0.00    -0.300 N 
HETATM    7  C   UNK N   1      32.327  14.079   3.775  0.00  0.00     0.188 A 
HETATM    8  N   UNK N   1      33.381  13.826   2.953  0.00  0.00    -0.346 N 
HETATM    9  C   UNK N   1      34.438  13.758   3.782  0.00  0.00     0.122 A 
ATOM     10  HN  UNK N   1      33.373  13.713   1.939  1.00  0.00     0.167 HD
HETATM   11  C   UNK N   1      35.775  13.547   3.496  0.00  0.00     0.131 A 
HETATM   12  C   UNK N   1      34.037  13.952   5.055  0.00  0.00     0.142 A 
HETATM   13  N   UNK N   1      36.659  13.533   4.539  0.00  0.00    -0.337 N 
HETATM   14  C   UNK N   1      36.228  13.721   5.830  0.00  0.00     0.183 A 
ATOM     15  HN  UNK N   1      37.650  13.382   4.356  1.00  0.00     0.168 HD
HETATM   16  N   UNK N   1      34.902  13.939   6.097  0.00  0.00    -0.336 N 
ATOM     17  HN  UNK N   1      34.576  14.085   7.052  1.00  0.00     0.168 HD
BRANCH  11  18
HETATM   18  N   UNK N   1      36.221  13.366   2.171  0.00  0.00    -0.383 N 
HETATM   19  H   UNK N   1      36.559  12.522   1.794  0.00  0.00     0.157 HD
HETATM   20  H   UNK N   1      36.193  14.148   1.574  0.00  0.00     0.157 HD
ENDBRANCH  11  18
ENDBRANCH   4   6
BRANCH   2  21
HETATM   21  O   UNK N   1      29.893  17.368   6.622  0.00  0.00    -0.309 OA
BRANCH  21  22
HETATM   22  C   UNK N   1      28.716  17.976   6.937  0.00  0.00     0.296 C 
HETATM   23  O   UNK N   1      28.248  17.761   8.041  0.00  0.00    -0.259 OA
BRANCH  22  24
HETATM   24  C   UNK N   1      28.079  19.004   6.054  0.00  0.00     0.065 A 
HETATM   25  C   UNK N   1      27.451  20.086   6.690  0.00  0.00     0.020 A 
HETATM   26  C   UNK N   1      26.746  21.049   5.973  0.00  0.00     0.001 A 
HETATM   27  C   UNK N   1      26.645  20.946   4.593  0.00  0.00     0.002 A 
HETATM   28  C   UNK N   1      27.260  19.887   3.929  0.00  0.00     0.030 A 
HETATM   29  C   UNK N   1      27.982  18.908   4.624  0.00  0.00     0.044 A 
BRANCH  29  30
HETATM   30  N   UNK N   1      28.601  17.900   3.828  0.00  0.00    -0.393 N 
HETATM   31  C   UNK N   1      28.028  16.627   3.479  0.00  0.00     0.146 C 
HETATM   32  H   UNK N   1      29.503  18.094   3.484  0.00  0.00     0.159 HD
ENDBRANCH  29  30
ENDBRANCH  22  24
ENDBRANCH  21  22
ENDBRANCH   2  21
BRANCH   3  33
HETATM   33  C   UNK N   1      32.097  17.302   8.329  0.00  0.00     0.215 C 
BRANCH  33  34
HETATM   34  O   UNK N   1      33.218  17.154   9.154  0.00  0.00    -0.294 OA
BRANCH  34  35
HETATM   35  P   UNK N   1      34.546  17.739   8.187  0.00  0.00     0.401 P 
HETATM   36  O   UNK N   1      33.456  18.826   8.006  0.00  0.00    -0.631 OA
BRANCH  35  37
HETATM   37  O   UNK N   1      35.353  19.235   8.545  0.00  0.00    -0.307 OA
HETATM   38  H   UNK N   1      35.095  20.159   8.402  0.00  0.00     0.222 HD
ENDBRANCH  35  37
BRANCH  35  39
HETATM   39  O   UNK N   1      35.087  17.722   9.846  0.00  0.00    -0.195 OA
BRANCH  39  40
HETATM   40  P   UNK N   1      35.467  16.057  10.220  0.00  0.00     0.399 P 
HETATM   41  O   UNK N   1      35.469  15.247   8.896  0.00  0.00    -0.631 OA
BRANCH  40  42
HETATM   42  O   UNK N   1      34.242  15.358  11.231  0.00  0.00    -0.307 OA
HETATM   43  H   UNK N   1      33.283  15.252  11.128  0.00  0.00     0.222 HD
ENDBRANCH  40  42
BRANCH  40  44
HETATM   44  O   UNK N   1      37.032  15.877  10.951  0.00  0.00    -0.307 OA
HETATM   45  H   UNK N   1      37.401  15.172  11.505  0.00  0.00     0.222 HD
ENDBRANCH  40  44
ENDBRANCH  39  40
ENDBRANCH  35  39
ENDBRANCH  34  35
ENDBRANCH  33  34
ENDBRANCH   3  33
TORSDOF 14
ENDMDL
MODEL 5
REMARK VINA RESULT:      -7.0     14.935     17.221
REMARK  14 active torsions:
REMARK  status: ('A' for Active; 'I' for Inactive)
REMARK    1  A    between atoms: C_13  and  C_7 
REMARK    2  A    between atoms: O_34  and  C_7 
REMARK    3  A    between atoms: C_18  and  C_10 
REMARK    4  A    between atoms: N_20  and  C_11 
REMARK    5  A    between atoms: C_12  and  O_36 
REMARK    6  A    between atoms: C_14  and  N_27 
REMARK    7  A    between atoms: N_19  and  C_16 
REMARK    8  A    between atoms: O_36  and  C_18 
REMARK    9  A    between atoms: P_38  and  O_29 
REMARK   10  A    between atoms: P_38  and  O_30 
REMARK   11  A    between atoms: P_39  and  O_32 
REMARK   12  A    between atoms: P_39  and  O_34 
REMARK   13  A    between atoms: P_38  and  O_37 
REMARK   14  A    between atoms: P_39  and  O_37 
ROOT
HETATM    1  C   UNK N   1      25.860  25.355  -5.499  0.00  0.00     0.089 C 
HETATM    2  C   UNK N   1      26.213  25.293  -4.057  0.00  0.00     0.167 C 
HETATM    3  C   UNK N   1      27.025  23.981  -3.970  0.00  0.00     0.178 C 
HETATM    4  C   UNK N   1      25.879  23.906  -5.909  0.00  0.00     0.233 C 
HETATM    5  O   UNK N   1      26.953  23.312  -5.218  0.00  0.00    -0.356 OA
ENDROOT
BRANCH   4   6
HETATM    6  N   UNK N   1      26.044  23.851  -7.363  0.00  0.00    -0.300 N 
HETATM    7  C   UNK N   1      25.661  24.829  -8.228  0.00  0.00     0.188 A 
HETATM    8  N   UNK N   1      25.998  24.522  -9.511  0.00  0.00    -0.346 N 
HETATM    9  C   UNK N   1      26.599  23.323  -9.417  0.00  0.00     0.122 A 
ATOM     10  HN  UNK N   1      25.832  25.075 -10.351  1.00  0.00     0.167 HD
HETATM   11  C   UNK N   1      27.168  22.539 -10.405  0.00  0.00     0.131 A 
HETATM   12  C   UNK N   1      26.617  22.916  -8.131  0.00  0.00     0.142 A 
HETATM   13  N   UNK N   1      27.730  21.349 -10.033  0.00  0.00    -0.337 N 
HETATM   14  C   UNK N   1      27.726  20.947  -8.719  0.00  0.00     0.183 A 
ATOM     15  HN  UNK N   1      28.158  20.753 -10.741  1.00  0.00     0.168 HD
HETATM   16  N   UNK N   1      27.168  21.739  -7.751  0.00  0.00    -0.336 N 
ATOM     17  HN  UNK N   1      27.167  21.451  -6.773  1.00  0.00     0.168 HD
BRANCH  11  18
HETATM   18  N   UNK N   1      27.184  22.954 -11.752  0.00  0.00    -0.383 N 
HETATM   19  H   UNK N   1      26.585  22.619 -12.458  0.00  0.00     0.157 HD
HETATM   20  H   UNK N   1      27.848  23.634 -12.007  0.00  0.00     0.157 HD
ENDBRANCH  11  18
ENDBRANCH   4   6
BRANCH   2  21
HETATM   21  O   UNK N   1      26.925  26.441  -3.742  0.00  0.00    -0.309 OA
BRANCH  21  22
HETATM   22  C   UNK N   1      26.472  27.725  -3.776  0.00  0.00     0.296 C 
HETATM   23  O   UNK N   1      25.518  28.005  -3.073  0.00  0.00    -0.259 OA
BRANCH  22  24
HETATM   24  C   UNK N   1      27.194  28.814  -4.507  0.00  0.00     0.065 A 
HETATM   25  C   UNK N   1      27.518  28.571  -5.851  0.00  0.00     0.020 A 
HETATM   26  C   UNK N   1      28.270  29.473  -6.599  0.00  0.00     0.001 A 
HETATM   27  C   UNK N   1      28.728  30.644  -6.011  0.00  0.00     0.002 A 
HETATM   28  C   UNK N   1      28.421  30.919  -4.681  0.00  0.00     0.030 A 
HETATM   29  C   UNK N   1      27.660  30.034  -3.907  0.00  0.00     0.044 A 
BRANCH  29  30
HETATM   30  N   UNK N   1      27.377  30.449  -2.573  0.00  0.00    -0.393 N 
HETATM   31  C   UNK N   1      28.149  30.122  -1.404  0.00  0.00     0.146 C 
HETATM   32  H   UNK N   1      26.581  31.013  -2.440  0.00  0.00     0.159 HD
ENDBRANCH  29  30
ENDBRANCH  22  24
ENDBRANCH  21  22
ENDBRANCH   2  21
BRANCH   3  33
HETATM   33  C   UNK N   1      28.481  24.137  -3.520  0.00  0.00     0.215 C 
BRANCH  33  34
HETATM   34  O   UNK N   1      28.916  23.100  -2.687  0.00  0.00    -0.294 OA
BRANCH  34  35
HETATM   35  P   UNK N   1      30.642  23.048  -2.928  0.00  0.00     0.401 P 
HETATM   36  O   UNK N   1      30.493  23.191  -1.393  0.00  0.00    -0.631 OA
BRANCH  35  37
HETATM   37  O   UNK N   1      31.623  21.775  -2.271  0.00  0.00    -0.307 OA
HETATM   38  H   UNK N   1      31.832  20.885  -2.597  0.00  0.00     0.222 HD
ENDBRANCH  35  37
BRANCH  35  39
HETATM   39  O   UNK N   1      30.006  21.506  -3.438  0.00  0.00    -0.195 OA
BRANCH  39  40
HETATM   40  P   UNK N   1      31.069  20.931  -4.702  0.00  0.00     0.399 P 
HETATM   41  O   UNK N   1      32.033  22.083  -5.091  0.00  0.00    -0.631 OA
BRANCH  40  42
HETATM   42  O   UNK N   1      30.168  20.530  -6.130  0.00  0.00    -0.307 OA
HETATM   43  H   UNK N   1      29.249  20.687  -6.395  0.00  0.00     0.222 HD
ENDBRANCH  40  42
BRANCH  40  44
HETATM   44  O   UNK N   1      32.038  19.581  -4.196  0.00  0.00    -0.307 OA
HETATM   45  H   UNK N   1      32.445  19.372  -3.341  0.00  0.00     0.222 HD
ENDBRANCH  40  44
ENDBRANCH  39  40
ENDBRANCH  35  39
ENDBRANCH  34  35
ENDBRANCH  33  34
ENDBRANCH   3  33
TORSDOF 14
ENDMDL
MODEL 6
REMARK VINA RESULT:      -7.0      1.787      3.054
REMARK  14 active torsions:
REMARK  status: ('A' for Active; 'I' for Inactive)
REMARK    1  A    between atoms: C_13  and  C_7 
REMARK    2  A    between atoms: O_34  and  C_7 
REMARK    3  A    between atoms: C_18  and  C_10 
REMARK    4  A    between atoms: N_20  and  C_11 
REMARK    5  A    between atoms: C_12  and  O_36 
REMARK    6  A    between atoms: C_14  and  N_27 
REMARK    7  A    between atoms: N_19  and  C_16 
REMARK    8  A    between atoms: O_36  and  C_18 
REMARK    9  A    between atoms: P_38  and  O_29 
REMARK   10  A    between atoms: P_38  and  O_30 
REMARK   11  A    between atoms: P_39  and  O_32 
REMARK   12  A    between atoms: P_39  and  O_34 
REMARK   13  A    between atoms: P_38  and  O_37 
REMARK   14  A    between atoms: P_39  and  O_37 
ROOT
HETATM    1  C   UNK N   1      25.225  14.220   7.219  0.00  0.00     0.089 C 
HETATM    2  C   UNK N   1      24.762  14.754   5.913  0.00  0.00     0.167 C 
HETATM    3  C   UNK N   1      23.256  14.412   5.928  0.00  0.00     0.178 C 
HETATM    4  C   UNK N   1      24.228  13.127   7.504  0.00  0.00     0.233 C 
HETATM    5  O   UNK N   1      22.978  13.604   7.060  0.00  0.00    -0.356 OA
ENDROOT
BRANCH   4   6
HETATM    6  N   UNK N   1      24.250  12.860   8.943  0.00  0.00    -0.300 N 
HETATM    7  C   UNK N   1      25.357  12.931   9.732  0.00  0.00     0.188 A 
HETATM    8  N   UNK N   1      25.057  12.688  11.037  0.00  0.00    -0.346 N 
HETATM    9  C   UNK N   1      23.732  12.462  11.036  0.00  0.00     0.122 A 
ATOM     10  HN  UNK N   1      25.693  12.680  11.835  1.00  0.00     0.167 HD
HETATM   11  C   UNK N   1      22.880  12.187  12.091  0.00  0.00     0.131 A 
HETATM   12  C   UNK N   1      23.250  12.554   9.780  0.00  0.00     0.142 A 
HETATM   13  N   UNK N   1      21.554  12.005  11.813  0.00  0.00    -0.337 N 
HETATM   14  C   UNK N   1      21.086  12.090  10.524  0.00  0.00     0.183 A 
ATOM     15  HN  UNK N   1      20.904  11.803  12.572  1.00  0.00     0.168 HD
HETATM   16  N   UNK N   1      21.940  12.373   9.490  0.00  0.00    -0.336 N 
ATOM     17  HN  UNK N   1      21.599  12.444   8.532  1.00  0.00     0.168 HD
BRANCH  11  18
HETATM   18  N   UNK N   1      23.355  12.110  13.416  0.00  0.00    -0.383 N 
HETATM   19  H   UNK N   1      23.889  11.372  13.788  0.00  0.00     0.157 HD
HETATM   20  H   UNK N   1      23.135  12.857  14.019  0.00  0.00     0.157 HD
ENDBRANCH  11  18
ENDBRANCH   4   6
BRANCH   2  21
HETATM   21  O   UNK N   1      25.052  16.110   5.879  0.00  0.00    -0.309 OA
BRANCH  21  22
HETATM   22  C   UNK N   1      25.911  16.748   5.037  0.00  0.00     0.296 C 
HETATM   23  O   UNK N   1      26.239  16.165   4.019  0.00  0.00    -0.259 OA
BRANCH  22  24
HETATM   24  C   UNK N   1      26.326  18.172   5.237  0.00  0.00     0.065 A 
HETATM   25  C   UNK N   1      25.645  19.144   4.486  0.00  0.00     0.020 A 
HETATM   26  C   UNK N   1      26.011  20.486   4.521  0.00  0.00     0.001 A 
HETATM   27  C   UNK N   1      27.081  20.890   5.306  0.00  0.00     0.002 A 
HETATM   28  C   UNK N   1      27.777  19.953   6.067  0.00  0.00     0.030 A 
HETATM   29  C   UNK N   1      27.426  18.597   6.057  0.00  0.00     0.044 A 
BRANCH  29  30
HETATM   30  N   UNK N   1      28.186  17.746   6.912  0.00  0.00    -0.393 N 
HETATM   31  C   UNK N   1      28.160  17.751   8.351  0.00  0.00     0.146 C 
HETATM   32  H   UNK N   1      28.782  17.094   6.478  0.00  0.00     0.159 HD
ENDBRANCH  29  30
ENDBRANCH  22  24
ENDBRANCH  21  22
ENDBRANCH   2  21
BRANCH   3  33
HETATM   33  C   UNK N   1      22.307  15.613   5.872  0.00  0.00     0.215 C 
BRANCH  33  34
HETATM   34  O   UNK N   1      21.018  15.322   6.331  0.00  0.00    -0.294 OA
BRANCH  34  35
HETATM   35  P   UNK N   1      20.004  16.507   5.551  0.00  0.00     0.401 P 
HETATM   36  O   UNK N   1      20.258  15.456   4.441  0.00  0.00    -0.631 OA
BRANCH  35  37
HETATM   37  O   UNK N   1      18.423  16.109   4.952  0.00  0.00    -0.307 OA
HETATM   38  H   UNK N   1      17.643  16.657   4.772  0.00  0.00     0.222 HD
ENDBRANCH  35  37
BRANCH  35  39
HETATM   39  O   UNK N   1      19.063  15.789   6.833  0.00  0.00    -0.195 OA
BRANCH  39  40
HETATM   40  P   UNK N   1      19.686  16.450   8.327  0.00  0.00     0.399 P 
HETATM   41  O   UNK N   1      18.486  16.790   9.249  0.00  0.00    -0.631 OA
BRANCH  40  42
HETATM   42  O   UNK N   1      20.531  17.938   8.037  0.00  0.00    -0.307 OA
HETATM   43  H   UNK N   1      20.257  18.868   8.068  0.00  0.00     0.222 HD
ENDBRANCH  40  42
BRANCH  40  44
HETATM   44  O   UNK N   1      20.704  15.330   9.179  0.00  0.00    -0.307 OA
HETATM   45  H   UNK N   1      20.525  14.757   9.940  0.00  0.00     0.222 HD
ENDBRANCH  40  44
ENDBRANCH  39  40
ENDBRANCH  35  39
ENDBRANCH  34  35
ENDBRANCH  33  34
ENDBRANCH   3  33
TORSDOF 14
ENDMDL
MODEL 7
REMARK VINA RESULT:      -7.0      1.358      2.289
REMARK  14 active torsions:
REMARK  status: ('A' for Active; 'I' for Inactive)
REMARK    1  A    between atoms: C_13  and  C_7 
REMARK    2  A    between atoms: O_34  and  C_7 
REMARK    3  A    between atoms: C_18  and  C_10 
REMARK    4  A    between atoms: N_20  and  C_11 
REMARK    5  A    between atoms: C_12  and  O_36 
REMARK    6  A    between atoms: C_14  and  N_27 
REMARK    7  A    between atoms: N_19  and  C_16 
REMARK    8  A    between atoms: O_36  and  C_18 
REMARK    9  A    between atoms: P_38  and  O_29 
REMARK   10  A    between atoms: P_38  and  O_30 
REMARK   11  A    between atoms: P_39  and  O_32 
REMARK   12  A    between atoms: P_39  and  O_34 
REMARK   13  A    between atoms: P_38  and  O_37 
REMARK   14  A    between atoms: P_39  and  O_37 
ROOT
HETATM    1  C   UNK N   1      24.728  14.159   7.093  0.00  0.00     0.089 C 
HETATM    2  C   UNK N   1      24.179  14.888   5.921  0.00  0.00     0.167 C 
HETATM    3  C   UNK N   1      22.672  14.961   6.251  0.00  0.00     0.178 C 
HETATM    4  C   UNK N   1      23.546  13.356   7.568  0.00  0.00     0.233 C 
HETATM    5  O   UNK N   1      22.415  14.180   7.405  0.00  0.00    -0.356 OA
ENDROOT
BRANCH   4   6
HETATM    6  N   UNK N   1      23.781  12.992   8.967  0.00  0.00    -0.300 N 
HETATM    7  C   UNK N   1      24.995  13.004   9.581  0.00  0.00     0.188 A 
HETATM    8  N   UNK N   1      24.893  12.676  10.899  0.00  0.00    -0.346 N 
HETATM    9  C   UNK N   1      23.579  12.456  11.084  0.00  0.00     0.122 A 
ATOM     10  HN  UNK N   1      25.642  12.611  11.588  1.00  0.00     0.167 HD
HETATM   11  C   UNK N   1      22.893  12.116  12.236  0.00  0.00     0.131 A 
HETATM   12  C   UNK N   1      22.915  12.635   9.924  0.00  0.00     0.142 A 
HETATM   13  N   UNK N   1      21.537  11.959  12.150  0.00  0.00    -0.337 N 
HETATM   14  C   UNK N   1      20.881  12.133  10.956  0.00  0.00     0.183 A 
ATOM     15  HN  UNK N   1      21.007  11.710  12.985  1.00  0.00     0.168 HD
HETATM   16  N   UNK N   1      21.573  12.481   9.825  0.00  0.00    -0.336 N 
ATOM     17  HN  UNK N   1      21.093  12.618   8.937  1.00  0.00     0.168 HD
BRANCH  11  18
HETATM   18  N   UNK N   1      23.562  11.947  13.465  0.00  0.00    -0.383 N 
HETATM   19  H   UNK N   1      24.135  11.182  13.702  0.00  0.00     0.157 HD
HETATM   20  H   UNK N   1      23.447  12.653  14.142  0.00  0.00     0.157 HD
ENDBRANCH  11  18
ENDBRANCH   4   6
BRANCH   2  21
HETATM   21  O   UNK N   1      24.820  16.116   5.843  0.00  0.00    -0.309 OA
BRANCH  21  22
HETATM   22  C   UNK N   1      25.171  16.791   4.714  0.00  0.00     0.296 C 
HETATM   23  O   UNK N   1      24.577  16.519   3.687  0.00  0.00    -0.259 OA
BRANCH  22  24
HETATM   24  C   UNK N   1      26.127  17.943   4.730  0.00  0.00     0.065 A 
HETATM   25  C   UNK N   1      25.885  18.982   3.818  0.00  0.00     0.020 A 
HETATM   26  C   UNK N   1      26.760  20.056   3.679  0.00  0.00     0.001 A 
HETATM   27  C   UNK N   1      27.913  20.110   4.450  0.00  0.00     0.002 A 
HETATM   28  C   UNK N   1      28.182  19.098   5.368  0.00  0.00     0.030 A 
HETATM   29  C   UNK N   1      27.316  18.010   5.534  0.00  0.00     0.044 A 
BRANCH  29  30
HETATM   30  N   UNK N   1      27.681  17.064   6.535  0.00  0.00    -0.393 N 
HETATM   31  C   UNK N   1      28.141  17.373   7.863  0.00  0.00     0.146 C 
HETATM   32  H   UNK N   1      27.610  16.112   6.297  0.00  0.00     0.159 HD
ENDBRANCH  29  30
ENDBRANCH  22  24
ENDBRANCH  21  22
ENDBRANCH   2  21
BRANCH   3  33
HETATM   33  C   UNK N   1      22.101  16.373   6.412  0.00  0.00     0.215 C 
BRANCH  33  34
HETATM   34  O   UNK N   1      20.707  16.396   6.531  0.00  0.00    -0.294 OA
BRANCH  34  35
HETATM   35  P   UNK N   1      20.133  15.865   4.972  0.00  0.00     0.401 P 
HETATM   36  O   UNK N   1      19.005  15.434   5.943  0.00  0.00    -0.631 OA
BRANCH  35  37
HETATM   37  O   UNK N   1      18.678  16.498   4.266  0.00  0.00    -0.307 OA
HETATM   38  H   UNK N   1      18.375  16.550   3.346  0.00  0.00     0.222 HD
ENDBRANCH  35  37
BRANCH  35  39
HETATM   39  O   UNK N   1      20.226  17.606   4.919  0.00  0.00    -0.195 OA
BRANCH  39  40
HETATM   40  P   UNK N   1      20.614  18.025   3.266  0.00  0.00     0.399 P 
HETATM   41  O   UNK N   1      19.405  18.786   2.659  0.00  0.00    -0.631 OA
BRANCH  40  42
HETATM   42  O   UNK N   1      20.840  16.598   2.305  0.00  0.00    -0.307 OA
HETATM   43  H   UNK N   1      21.517  15.903   2.306  0.00  0.00     0.222 HD
ENDBRANCH  40  42
BRANCH  40  44
HETATM   44  O   UNK N   1      22.002  19.063   3.148  0.00  0.00    -0.307 OA
HETATM   45  H   UNK N   1      22.075  20.017   2.991  0.00  0.00     0.222 HD
ENDBRANCH  40  44
ENDBRANCH  39  40
ENDBRANCH  35  39
ENDBRANCH  34  35
ENDBRANCH  33  34
ENDBRANCH   3  33
TORSDOF 14
ENDMDL
MODEL 8
REMARK VINA RESULT:      -7.0      9.289     11.578
REMARK  14 active torsions:
REMARK  status: ('A' for Active; 'I' for Inactive)
REMARK    1  A    between atoms: C_13  and  C_7 
REMARK    2  A    between atoms: O_34  and  C_7 
REMARK    3  A    between atoms: C_18  and  C_10 
REMARK    4  A    between atoms: N_20  and  C_11 
REMARK    5  A    between atoms: C_12  and  O_36 
REMARK    6  A    between atoms: C_14  and  N_27 
REMARK    7  A    between atoms: N_19  and  C_16 
REMARK    8  A    between atoms: O_36  and  C_18 
REMARK    9  A    between atoms: P_38  and  O_29 
REMARK   10  A    between atoms: P_38  and  O_30 
REMARK   11  A    between atoms: P_39  and  O_32 
REMARK   12  A    between atoms: P_39  and  O_34 
REMARK   13  A    between atoms: P_38  and  O_37 
REMARK   14  A    between atoms: P_39  and  O_37 
ROOT
HETATM    1  C   UNK N   1      35.328  15.952  11.380  0.00  0.00     0.089 C 
HETATM    2  C   UNK N   1      35.545  16.510  10.021  0.00  0.00     0.167 C 
HETATM    3  C   UNK N   1      35.966  15.262   9.212  0.00  0.00     0.178 C 
HETATM    4  C   UNK N   1      36.224  14.742  11.389  0.00  0.00     0.233 C 
HETATM    5  O   UNK N   1      36.137  14.173  10.103  0.00  0.00    -0.356 OA
ENDROOT
BRANCH   4   6
HETATM    6  N   UNK N   1      35.749  13.837  12.438  0.00  0.00    -0.300 N 
HETATM    7  C   UNK N   1      35.865  14.065  13.775  0.00  0.00     0.188 A 
HETATM    8  N   UNK N   1      35.279  13.076  14.504  0.00  0.00    -0.346 N 
HETATM    9  C   UNK N   1      34.798  12.225  13.581  0.00  0.00     0.122 A 
ATOM     10  HN  UNK N   1      35.219  12.998  15.519  1.00  0.00     0.167 HD
HETATM   11  C   UNK N   1      34.083  11.052  13.746  0.00  0.00     0.131 A 
HETATM   12  C   UNK N   1      35.089  12.676  12.343  0.00  0.00     0.142 A 
HETATM   13  N   UNK N   1      33.701  10.372  12.623  0.00  0.00    -0.337 N 
HETATM   14  C   UNK N   1      34.019  10.842  11.371  0.00  0.00     0.183 A 
ATOM     15  HN  UNK N   1      33.171   9.506  12.716  1.00  0.00     0.168 HD
HETATM   16  N   UNK N   1      34.718  12.011  11.224  0.00  0.00    -0.336 N 
ATOM     17  HN  UNK N   1      34.953  12.369  10.298  1.00  0.00     0.168 HD
BRANCH  11  18
HETATM   18  N   UNK N   1      33.745  10.574  15.028  0.00  0.00    -0.383 N 
HETATM   19  H   UNK N   1      33.031  10.935  15.600  0.00  0.00     0.157 HD
HETATM   20  H   UNK N   1      34.267   9.816  15.380  0.00  0.00     0.157 HD
ENDBRANCH  11  18
ENDBRANCH   4   6
BRANCH   2  21
HETATM   21  O   UNK N   1      34.359  17.100   9.608  0.00  0.00    -0.309 OA
BRANCH  21  22
HETATM   22  C   UNK N   1      34.175  17.909   8.528  0.00  0.00     0.296 C 
HETATM   23  O   UNK N   1      34.954  18.833   8.376  0.00  0.00    -0.259 OA
BRANCH  22  24
HETATM   24  C   UNK N   1      33.170  17.610   7.459  0.00  0.00     0.065 A 
HETATM   25  C   UNK N   1      33.633  17.615   6.133  0.00  0.00     0.020 A 
HETATM   26  C   UNK N   1      32.769  17.443   5.055  0.00  0.00     0.001 A 
HETATM   27  C   UNK N   1      31.410  17.271   5.280  0.00  0.00     0.002 A 
HETATM   28  C   UNK N   1      30.918  17.257   6.583  0.00  0.00     0.030 A 
HETATM   29  C   UNK N   1      31.765  17.419   7.687  0.00  0.00     0.044 A 
BRANCH  29  30
HETATM   30  N   UNK N   1      31.147  17.342   8.969  0.00  0.00    -0.393 N 
HETATM   31  C   UNK N   1      29.731  17.287   9.223  0.00  0.00     0.146 C 
HETATM   32  H   UNK N   1      31.743  17.323   9.752  0.00  0.00     0.159 HD
ENDBRANCH  29  30
ENDBRANCH  22  24
ENDBRANCH  21  22
ENDBRANCH   2  21
BRANCH   3  33
HETATM   33  C   UNK N   1      35.033  14.880   8.058  0.00  0.00     0.215 C 
BRANCH  33  34
HETATM   34  O   UNK N   1      33.884  14.201   8.478  0.00  0.00    -0.294 OA
BRANCH  34  35
HETATM   35  P   UNK N   1      33.853  12.759   7.498  0.00  0.00     0.401 P 
HETATM   36  O   UNK N   1      32.795  12.478   8.594  0.00  0.00    -0.631 OA
BRANCH  35  37
HETATM   37  O   UNK N   1      32.433  12.274   6.624  0.00  0.00    -0.307 OA
HETATM   38  H   UNK N   1      32.182  11.432   6.213  0.00  0.00     0.222 HD
ENDBRANCH  35  37
BRANCH  35  39
HETATM   39  O   UNK N   1      33.316  14.078   6.490  0.00  0.00    -0.195 OA
BRANCH  39  40
HETATM   40  P   UNK N   1      33.580  13.570   4.837  0.00  0.00     0.399 P 
HETATM   41  O   UNK N   1      34.509  14.606   4.151  0.00  0.00    -0.631 OA
BRANCH  40  42
HETATM   42  O   UNK N   1      32.090  13.568   3.948  0.00  0.00    -0.307 OA
HETATM   43  H   UNK N   1      31.170  13.395   4.202  0.00  0.00     0.222 HD
ENDBRANCH  40  42
BRANCH  40  44
HETATM   44  O   UNK N   1      34.353  12.018   4.731  0.00  0.00    -0.307 OA
HETATM   45  H   UNK N   1      35.233  11.764   4.414  0.00  0.00     0.222 HD
ENDBRANCH  40  44
ENDBRANCH  39  40
ENDBRANCH  35  39
ENDBRANCH  34  35
ENDBRANCH  33  34
ENDBRANCH   3  33
TORSDOF 14
ENDMDL
MODEL 9
REMARK VINA RESULT:      -6.9      1.821      3.363
REMARK  14 active torsions:
REMARK  status: ('A' for Active; 'I' for Inactive)
REMARK    1  A    between atoms: C_13  and  C_7 
REMARK    2  A    between atoms: O_34  and  C_7 
REMARK    3  A    between atoms: C_18  and  C_10 
REMARK    4  A    between atoms: N_20  and  C_11 
REMARK    5  A    between atoms: C_12  and  O_36 
REMARK    6  A    between atoms: C_14  and  N_27 
REMARK    7  A    between atoms: N_19  and  C_16 
REMARK    8  A    between atoms: O_36  and  C_18 
REMARK    9  A    between atoms: P_38  and  O_29 
REMARK   10  A    between atoms: P_38  and  O_30 
REMARK   11  A    between atoms: P_39  and  O_32 
REMARK   12  A    between atoms: P_39  and  O_34 
REMARK   13  A    between atoms: P_38  and  O_37 
REMARK   14  A    between atoms: P_39  and  O_37 
ROOT
HETATM    1  C   UNK N   1      23.584  15.361   6.589  0.00  0.00     0.089 C 
HETATM    2  C   UNK N   1      24.025  15.547   5.183  0.00  0.00     0.167 C 
HETATM    3  C   UNK N   1      23.821  14.138   4.582  0.00  0.00     0.178 C 
HETATM    4  C   UNK N   1      23.824  13.892   6.822  0.00  0.00     0.233 C 
HETATM    5  O   UNK N   1      23.478  13.239   5.622  0.00  0.00    -0.356 OA
ENDROOT
BRANCH   4   6
HETATM    6  N   UNK N   1      22.993  13.473   7.952  0.00  0.00    -0.300 N 
HETATM    7  C   UNK N   1      21.634  13.414   7.940  0.00  0.00     0.188 A 
HETATM    8  N   UNK N   1      21.143  12.931   9.114  0.00  0.00    -0.346 N 
HETATM    9  C   UNK N   1      22.238  12.695   9.858  0.00  0.00     0.122 A 
ATOM     10  HN  UNK N   1      20.167  12.783   9.371  1.00  0.00     0.167 HD
HETATM   11  C   UNK N   1      22.344  12.174  11.135  0.00  0.00     0.131 A 
HETATM   12  C   UNK N   1      23.345  13.030   9.165  0.00  0.00     0.142 A 
HETATM   13  N   UNK N   1      23.596  12.025  11.664  0.00  0.00    -0.337 N 
HETATM   14  C   UNK N   1      24.712  12.385  10.946  0.00  0.00     0.183 A 
ATOM     15  HN  UNK N   1      23.703  11.642  12.602  1.00  0.00     0.168 HD
HETATM   16  N   UNK N   1      24.591  12.890   9.678  0.00  0.00    -0.336 N 
ATOM     17  HN  UNK N   1      25.414  13.153   9.137  1.00  0.00     0.168 HD
BRANCH  11  18
HETATM   18  N   UNK N   1      21.202  11.794  11.869  0.00  0.00    -0.383 N 
HETATM   19  H   UNK N   1      21.057  11.968  12.827  0.00  0.00     0.157 HD
HETATM   20  H   UNK N   1      20.492  11.314  11.384  0.00  0.00     0.157 HD
ENDBRANCH  11  18
ENDBRANCH   4   6
BRANCH   2  21
HETATM   21  O   UNK N   1      23.240  16.542   4.618  0.00  0.00    -0.309 OA
BRANCH  21  22
HETATM   22  C   UNK N   1      23.251  17.869   4.920  0.00  0.00     0.296 C 
HETATM   23  O   UNK N   1      22.487  18.257   5.786  0.00  0.00    -0.259 OA
BRANCH  22  24
HETATM   24  C   UNK N   1      24.261  18.816   4.351  0.00  0.00     0.065 A 
HETATM   25  C   UNK N   1      23.802  19.739   3.398  0.00  0.00     0.020 A 
HETATM   26  C   UNK N   1      24.669  20.602   2.734  0.00  0.00     0.001 A 
HETATM   27  C   UNK N   1      26.030  20.554   3.004  0.00  0.00     0.002 A 
HETATM   28  C   UNK N   1      26.520  19.654   3.947  0.00  0.00     0.030 A 
HETATM   29  C   UNK N   1      25.669  18.779   4.635  0.00  0.00     0.044 A 
BRANCH  29  30
HETATM   30  N   UNK N   1      26.286  17.938   5.606  0.00  0.00    -0.393 N 
HETATM   31  C   UNK N   1      27.571  18.152   6.217  0.00  0.00     0.146 C 
HETATM   32  H   UNK N   1      25.786  17.137   5.885  0.00  0.00     0.159 HD
ENDBRANCH  29  30
ENDBRANCH  22  24
ENDBRANCH  21  22
ENDBRANCH   2  21
BRANCH   3  33
HETATM   33  C   UNK N   1      22.810  14.053   3.434  0.00  0.00     0.215 C 
BRANCH  33  34
HETATM   34  O   UNK N   1      21.600  13.456   3.806  0.00  0.00    -0.294 OA
BRANCH  34  35
HETATM   35  P   UNK N   1      20.378  14.517   3.156  0.00  0.00     0.401 P 
HETATM   36  O   UNK N   1      20.070  13.154   2.488  0.00  0.00    -0.631 OA
BRANCH  35  37
HETATM   37  O   UNK N   1      18.687  14.256   3.450  0.00  0.00    -0.307 OA
HETATM   38  H   UNK N   1      18.193  13.472   3.736  0.00  0.00     0.222 HD
ENDBRANCH  35  37
BRANCH  35  39
HETATM   39  O   UNK N   1      20.100  14.404   4.875  0.00  0.00    -0.195 OA
BRANCH  39  40
HETATM   40  P   UNK N   1      19.430  15.943   5.365  0.00  0.00     0.399 P 
HETATM   41  O   UNK N   1      19.593  16.943   4.190  0.00  0.00    -0.631 OA
BRANCH  40  42
HETATM   42  O   UNK N   1      20.314  16.601   6.706  0.00  0.00    -0.307 OA
HETATM   43  H   UNK N   1      21.198  16.422   7.064  0.00  0.00     0.222 HD
ENDBRANCH  40  42
BRANCH  40  44
HETATM   44  O   UNK N   1      17.738  15.845   5.743  0.00  0.00    -0.307 OA
HETATM   45  H   UNK N   1      17.026  15.317   5.351  0.00  0.00     0.222 HD
ENDBRANCH  40  44
ENDBRANCH  39  40
ENDBRANCH  35  39
ENDBRANCH  34  35
ENDBRANCH  33  34
ENDBRANCH   3  33
TORSDOF 14
ENDMDL
