MODEL 1
REMARK VINA RESULT:      -9.5      0.000      0.000
REMARK  16 active torsions:
REMARK  status: ('A' for Active; 'I' for Inactive)
REMARK    1  A    between atoms: C_12  and  S_7 
REMARK    2  A    between atoms: C_11  and  S_8 
REMARK       I    between atoms: C_18  and  N_10 
REMARK    3  A    between atoms: C_13  and  C_30 
REMARK    4  A    between atoms: C_30  and  O_20 
REMARK    5  A    between atoms: O_20  and  P_22 
REMARK    6  A    between atoms: P_22  and  O_24 
REMARK    7  A    between atoms: P_22  and  O_23 
REMARK    8  A    between atoms: O_24  and  P_26 
REMARK    9  A    between atoms: P_26  and  O_32 
REMARK   10  A    between atoms: P_26  and  O_27 
REMARK   11  A    between atoms: C_35  and  O_28 
REMARK   12  A    between atoms: C_36  and  O_29 
REMARK   13  A    between atoms: C_38  and  C_31 
REMARK   14  A    between atoms: C_31  and  O_32 
REMARK   15  A    between atoms: C_34  and  N_33 
REMARK   16  A    between atoms: N_46  and  C_42 
ROOT
HETATM    1  O   UNK N   1      34.952  17.219  10.949  0.00  0.00    -0.631 OA
HETATM    2  P   UNK N   1      35.423  15.898  10.283  0.00  0.00     0.401 P 
ENDROOT
BRANCH   2   3
HETATM    3  O   UNK N   1      34.668  14.563  11.125  0.00  0.00    -0.294 OA
BRANCH   3   4
HETATM    4  C   UNK N   1      35.708  13.789  11.641  0.00  0.00     0.218 C 
BRANCH   4   5
HETATM    5  C   UNK N   1      35.247  12.694  12.610  0.00  0.00     0.189 C 
HETATM    6  C   UNK N   1      36.087  11.439  12.509  0.00  0.00     0.021 C 
HETATM    7  C   UNK N   1      36.745  10.969  13.591  0.00  0.00     0.017 C 
HETATM    8  C   UNK N   1      36.695  11.717  14.896  0.00  0.00     0.171 C 
HETATM    9  N   UNK N   1      35.942  10.964  15.873  0.00  0.00    -0.369 N 
HETATM   10  C   UNK N   1      36.118  13.140  14.720  0.00  0.00     0.251 C 
HETATM   11  C   UNK N   1      35.594  11.588  17.095  0.00  0.00     0.143 A 
HETATM   12  H   UNK N   1      35.676  10.033  15.692  0.00  0.00     0.161 HD
HETATM   13  C   UNK N   1      35.274  10.848  18.234  0.00  0.00     0.289 A 
HETATM   14  C   UNK N   1      35.566  12.982  17.168  0.00  0.00     0.151 A 
HETATM   15  O   UNK N   1      35.286   9.630  18.207  0.00  0.00    -0.265 OA
HETATM   16  N   UNK N   1      34.956  11.503  19.395  0.00  0.00    -0.154 N 
HETATM   17  C   UNK N   1      34.944  12.863  19.445  0.00  0.00     0.680 A 
HETATM   18  H   UNK N   1      34.734  10.985  20.201  0.00  0.00     0.187 HD
HETATM   19  N   UNK N   1      34.615  13.518  20.648  0.00  0.00    -0.234 N 
HETATM   20  N   UNK N   1      35.241  13.593  18.337  0.00  0.00    -0.175 N 
HETATM   21  H   UNK N   1      34.495  12.997  21.475  0.00  0.00     0.174 HD
HETATM   22  H   UNK N   1      34.504  14.495  20.662  0.00  0.00     0.174 HD
ATOM     23  HN  UNK N   1      35.221  14.612  18.383  1.00  0.00     0.186 HD
HETATM   24  N   UNK N   1      35.830  13.755  16.006  0.00  0.00    -0.345 N 
HETATM   25  H   UNK N   1      35.817  14.737  16.073  0.00  0.00     0.163 HD
HETATM   26  O   UNK N   1      34.948  13.128  13.932  0.00  0.00    -0.352 OA
BRANCH   6  27
HETATM   27  S   UNK N   1      36.139  10.577  10.930  0.00  0.00    -0.143 SA
HETATM   28  H   UNK N   1      35.199   9.656  10.586  0.00  0.00     0.107 HD
ENDBRANCH   6  27
BRANCH   7  29
HETATM   29  S   UNK N   1      37.684   9.434  13.520  0.00  0.00    -0.144 SA
HETATM   30  H   UNK N   1      38.910   9.283  12.952  0.00  0.00     0.107 HD
ENDBRANCH   7  29
ENDBRANCH   4   5
ENDBRANCH   3   4
ENDBRANCH   2   3
BRANCH   2  31
HETATM   31  O   UNK N   1      35.132  15.992   8.555  0.00  0.00    -0.195 OA
BRANCH  31  32
HETATM   32  P   UNK N   1      34.356  17.508   8.146  0.00  0.00     0.401 P 
HETATM   33  O   UNK N   1      34.252  17.659   6.602  0.00  0.00    -0.631 OA
BRANCH  32  34
HETATM   34  O   UNK N   1      32.730  17.496   8.776  0.00  0.00    -0.294 OA
BRANCH  34  35
HETATM   35  C   UNK N   1      31.902  17.822   7.696  0.00  0.00     0.215 C 
BRANCH  35  36
HETATM   36  C   UNK N   1      30.523  17.151   7.786  0.00  0.00     0.180 C 
HETATM   37  O   UNK N   1      29.727  17.371   6.635  0.00  0.00    -0.353 OA
HETATM   38  C   UNK N   1      28.425  17.549   7.139  0.00  0.00     0.263 C 
HETATM   39  C   UNK N   1      28.579  18.314   8.429  0.00  0.00     0.198 C 
HETATM   40  C   UNK N   1      29.705  17.539   9.019  0.00  0.00     0.182 C 
BRANCH  38  41
HETATM   41  N   UNK N   1      27.483  18.191   6.200  0.00  0.00    -0.280 N 
HETATM   42  C   UNK N   1      26.509  17.507   5.485  0.00  0.00     0.330 A 
HETATM   43  N   UNK N   1      25.650  18.198   4.667  0.00  0.00    -0.295 N 
HETATM   44  O   UNK N   1      26.402  16.297   5.567  0.00  0.00    -0.246 OA
HETATM   45  C   UNK N   1      25.732  19.546   4.543  0.00  0.00     0.103 A 
ATOM     46  HN  UNK N   1      24.939  17.689   4.143  1.00  0.00     0.172 HD
HETATM   47  C   UNK N   1      26.700  20.249   5.246  0.00  0.00     0.065 A 
HETATM   48  C   UNK N   1      27.569  19.546   6.074  0.00  0.00     0.102 A 
BRANCH  45  49
HETATM   49  N   UNK N   1      24.833  20.234   3.704  0.00  0.00    -0.385 N 
HETATM   50  H   UNK N   1      24.461  21.113   3.947  0.00  0.00     0.157 HD
HETATM   51  H   UNK N   1      24.570  19.823   2.850  0.00  0.00     0.157 HD
ENDBRANCH  45  49
ENDBRANCH  38  41
BRANCH  39  52
HETATM   52  O   UNK N   1      27.443  18.208   9.232  0.00  0.00    -0.388 OA
HETATM   53  H   UNK N   1      26.646  17.753   8.916  0.00  0.00     0.210 HD
ENDBRANCH  39  52
BRANCH  40  54
HETATM   54  O   UNK N   1      30.412  18.297   9.956  0.00  0.00    -0.390 OA
HETATM   55  H   UNK N   1      30.221  19.087  10.486  0.00  0.00     0.210 HD
ENDBRANCH  40  54
ENDBRANCH  35  36
ENDBRANCH  34  35
ENDBRANCH  32  34
BRANCH  32  56
HETATM   56  O   UNK N   1      35.219  18.877   8.778  0.00  0.00    -0.307 OA
HETATM   57  H   UNK N   1      35.306  19.740   9.211  0.00  0.00     0.222 HD
ENDBRANCH  32  56
ENDBRANCH  31  32
ENDBRANCH   2  31
BRANCH   2  58
HETATM   58  O   UNK N   1      37.138  15.869  10.547  0.00  0.00    -0.307 OA
HETATM   59  H   UNK N   1      37.796  15.366  11.051  0.00  0.00     0.222 HD
ENDBRANCH   2  58
TORSDOF 16
ENDMDL
MODEL 2
REMARK VINA RESULT:      -9.3      3.022     12.731
REMARK  16 active torsions:
REMARK  status: ('A' for Active; 'I' for Inactive)
REMARK    1  A    between atoms: C_12  and  S_7 
REMARK    2  A    between atoms: C_11  and  S_8 
REMARK       I    between atoms: C_18  and  N_10 
REMARK    3  A    between atoms: C_13  and  C_30 
REMARK    4  A    between atoms: C_30  and  O_20 
REMARK    5  A    between atoms: O_20  and  P_22 
REMARK    6  A    between atoms: P_22  and  O_24 
REMARK    7  A    between atoms: P_22  and  O_23 
REMARK    8  A    between atoms: O_24  and  P_26 
REMARK    9  A    between atoms: P_26  and  O_32 
REMARK   10  A    between atoms: P_26  and  O_27 
REMARK   11  A    between atoms: C_35  and  O_28 
REMARK   12  A    between atoms: C_36  and  O_29 
REMARK   13  A    between atoms: C_38  and  C_31 
REMARK   14  A    between atoms: C_31  and  O_32 
REMARK   15  A    between atoms: C_34  and  N_33 
REMARK   16  A    between atoms: N_46  and  C_42 
ROOT
HETATM    1  O   UNK N   1      34.402  18.744   8.166  0.00  0.00    -0.631 OA
HETATM    2  P   UNK N   1      34.193  17.236   8.472  0.00  0.00     0.401 P 
ENDROOT
BRANCH   2   3
HETATM    3  O   UNK N   1      34.268  16.357   6.962  0.00  0.00    -0.294 OA
BRANCH   3   4
HETATM    4  C   UNK N   1      32.954  16.012   6.645  0.00  0.00     0.218 C 
BRANCH   4   5
HETATM    5  C   UNK N   1      32.219  17.065   5.808  0.00  0.00     0.189 C 
HETATM    6  C   UNK N   1      31.726  16.516   4.487  0.00  0.00     0.021 C 
HETATM    7  C   UNK N   1      30.411  16.550   4.181  0.00  0.00     0.017 C 
HETATM    8  C   UNK N   1      29.413  17.086   5.172  0.00  0.00     0.171 C 
HETATM    9  N   UNK N   1      28.860  18.334   4.697  0.00  0.00    -0.369 N 
HETATM   10  C   UNK N   1      30.032  17.247   6.579  0.00  0.00     0.251 C 
HETATM   11  C   UNK N   1      28.067  19.107   5.577  0.00  0.00     0.143 A 
HETATM   12  H   UNK N   1      29.032  18.640   3.777  0.00  0.00     0.161 HD
HETATM   13  C   UNK N   1      27.160  20.058   5.108  0.00  0.00     0.289 A 
HETATM   14  C   UNK N   1      28.194  18.921   6.955  0.00  0.00     0.151 A 
HETATM   15  O   UNK N   1      27.024  20.249   3.912  0.00  0.00    -0.265 OA
HETATM   16  N   UNK N   1      26.408  20.771   6.004  0.00  0.00    -0.154 N 
HETATM   17  C   UNK N   1      26.541  20.566   7.343  0.00  0.00     0.680 A 
HETATM   18  H   UNK N   1      25.764  21.440   5.677  0.00  0.00     0.187 HD
HETATM   19  N   UNK N   1      25.760  21.310   8.248  0.00  0.00    -0.234 N 
HETATM   20  N   UNK N   1      27.433  19.652   7.811  0.00  0.00    -0.175 N 
HETATM   21  H   UNK N   1      25.047  21.901   7.914  0.00  0.00     0.174 HD
HETATM   22  H   UNK N   1      25.926  21.239   9.216  0.00  0.00     0.174 HD
ATOM     23  HN  UNK N   1      27.531  19.512   8.817  1.00  0.00     0.186 HD
HETATM   24  N   UNK N   1      29.153  18.002   7.458  0.00  0.00    -0.345 N 
HETATM   25  H   UNK N   1      29.226  17.872   8.431  0.00  0.00     0.163 HD
HETATM   26  O   UNK N   1      31.292  17.879   6.519  0.00  0.00    -0.352 OA
BRANCH   6  27
HETATM   27  S   UNK N   1      32.943  15.867   3.330  0.00  0.00    -0.143 SA
HETATM   28  H   UNK N   1      32.618  14.931   2.398  0.00  0.00     0.107 HD
ENDBRANCH   6  27
BRANCH   7  29
HETATM   29  S   UNK N   1      29.808  15.979   2.584  0.00  0.00    -0.144 SA
HETATM   30  H   UNK N   1      28.833  15.049   2.392  0.00  0.00     0.107 HD
ENDBRANCH   7  29
ENDBRANCH   4   5
ENDBRANCH   3   4
ENDBRANCH   2   3
BRANCH   2  31
HETATM   31  O   UNK N   1      35.327  16.743   9.717  0.00  0.00    -0.195 OA
BRANCH  31  32
HETATM   32  P   UNK N   1      34.966  15.119  10.267  0.00  0.00     0.401 P 
HETATM   33  O   UNK N   1      34.904  14.143   9.058  0.00  0.00    -0.631 OA
BRANCH  32  34
HETATM   34  O   UNK N   1      36.259  14.577  11.305  0.00  0.00    -0.294 OA
BRANCH  34  35
HETATM   35  C   UNK N   1      35.717  14.533  12.594  0.00  0.00     0.215 C 
BRANCH  35  36
HETATM   36  C   UNK N   1      35.425  13.099  13.062  0.00  0.00     0.180 C 
HETATM   37  O   UNK N   1      34.839  13.049  14.351  0.00  0.00    -0.353 OA
HETATM   38  C   UNK N   1      35.430  11.926  14.960  0.00  0.00     0.263 C 
HETATM   39  C   UNK N   1      36.864  11.907  14.495  0.00  0.00     0.198 C 
HETATM   40  C   UNK N   1      36.635  12.165  13.046  0.00  0.00     0.182 C 
BRANCH  38  41
HETATM   41  N   UNK N   1      35.304  11.886  16.431  0.00  0.00    -0.280 N 
HETATM   42  C   UNK N   1      35.271  10.716  17.177  0.00  0.00     0.330 A 
HETATM   43  N   UNK N   1      35.195  10.779  18.546  0.00  0.00    -0.295 N 
HETATM   44  O   UNK N   1      35.307   9.625  16.638  0.00  0.00    -0.246 OA
HETATM   45  C   UNK N   1      35.151  11.971  19.191  0.00  0.00     0.103 A 
ATOM     46  HN  UNK N   1      35.169   9.916  19.088  1.00  0.00     0.172 HD
HETATM   47  C   UNK N   1      35.179  13.154  18.465  0.00  0.00     0.065 A 
HETATM   48  C   UNK N   1      35.257  13.085  17.077  0.00  0.00     0.102 A 
BRANCH  45  49
HETATM   49  N   UNK N   1      35.082  12.012  20.598  0.00  0.00    -0.385 N 
HETATM   50  H   UNK N   1      34.307  11.663  21.093  0.00  0.00     0.157 HD
HETATM   51  H   UNK N   1      35.834  12.401  21.100  0.00  0.00     0.157 HD
ENDBRANCH  45  49
ENDBRANCH  38  41
BRANCH  39  52
HETATM   52  O   UNK N   1      37.451  10.655  14.680  0.00  0.00    -0.388 OA
HETATM   53  H   UNK N   1      37.565  10.040  13.938  0.00  0.00     0.210 HD
ENDBRANCH  39  52
BRANCH  40  54
HETATM   54  O   UNK N   1      37.769  12.711  12.439  0.00  0.00    -0.390 OA
HETATM   55  H   UNK N   1      38.302  12.492  11.659  0.00  0.00     0.210 HD
ENDBRANCH  40  54
ENDBRANCH  35  36
ENDBRANCH  34  35
ENDBRANCH  32  34
BRANCH  32  56
HETATM   56  O   UNK N   1      33.456  15.037  11.120  0.00  0.00    -0.307 OA
HETATM   57  H   UNK N   1      32.617  15.383  11.462  0.00  0.00     0.222 HD
ENDBRANCH  32  56
ENDBRANCH  31  32
ENDBRANCH   2  31
BRANCH   2  58
HETATM   58  O   UNK N   1      32.589  17.147   9.128  0.00  0.00    -0.307 OA
HETATM   59  H   UNK N   1      31.930  17.726   9.542  0.00  0.00     0.222 HD
ENDBRANCH   2  58
TORSDOF 16
ENDMDL
MODEL 3
REMARK VINA RESULT:      -8.9      1.551      2.417
REMARK  16 active torsions:
REMARK  status: ('A' for Active; 'I' for Inactive)
REMARK    1  A    between atoms: C_12  and  S_7 
REMARK    2  A    between atoms: C_11  and  S_8 
REMARK       I    between atoms: C_18  and  N_10 
REMARK    3  A    between atoms: C_13  and  C_30 
REMARK    4  A    between atoms: C_30  and  O_20 
REMARK    5  A    between atoms: O_20  and  P_22 
REMARK    6  A    between atoms: P_22  and  O_24 
REMARK    7  A    between atoms: P_22  and  O_23 
REMARK    8  A    between atoms: O_24  and  P_26 
REMARK    9  A    between atoms: P_26  and  O_32 
REMARK   10  A    between atoms: P_26  and  O_27 
REMARK   11  A    between atoms: C_35  and  O_28 
REMARK   12  A    between atoms: C_36  and  O_29 
REMARK   13  A    between atoms: C_38  and  C_31 
REMARK   14  A    between atoms: C_31  and  O_32 
REMARK   15  A    between atoms: C_34  and  N_33 
REMARK   16  A    between atoms: N_46  and  C_42 
ROOT
HETATM    1  O   UNK N   1      33.413  15.204  10.051  0.00  0.00    -0.631 OA
HETATM    2  P   UNK N   1      34.858  15.724   9.826  0.00  0.00     0.401 P 
ENDROOT
BRANCH   2   3
HETATM    3  O   UNK N   1      35.973  14.497  10.382  0.00  0.00    -0.294 OA
BRANCH   3   4
HETATM    4  C   UNK N   1      36.087  14.671  11.763  0.00  0.00     0.218 C 
BRANCH   4   5
HETATM    5  C   UNK N   1      35.537  13.500  12.585  0.00  0.00     0.189 C 
HETATM    6  C   UNK N   1      36.318  12.222  12.369  0.00  0.00     0.021 C 
HETATM    7  C   UNK N   1      36.911  11.599  13.410  0.00  0.00     0.017 C 
HETATM    8  C   UNK N   1      36.849  12.197  14.789  0.00  0.00     0.171 C 
HETATM    9  N   UNK N   1      36.024  11.381  15.650  0.00  0.00    -0.369 N 
HETATM   10  C   UNK N   1      36.350  13.660  14.759  0.00  0.00     0.251 C 
HETATM   11  C   UNK N   1      35.663  11.881  16.923  0.00  0.00     0.143 A 
HETATM   12  H   UNK N   1      35.720  10.492  15.356  0.00  0.00     0.161 HD
HETATM   13  C   UNK N   1      35.264  11.036  17.961  0.00  0.00     0.289 A 
HETATM   14  C   UNK N   1      35.700  13.258  17.154  0.00  0.00     0.151 A 
HETATM   15  O   UNK N   1      35.218   9.830  17.795  0.00  0.00    -0.265 OA
HETATM   16  N   UNK N   1      34.936  11.573  19.178  0.00  0.00    -0.154 N 
HETATM   17  C   UNK N   1      34.989  12.917  19.382  0.00  0.00     0.680 A 
HETATM   18  H   UNK N   1      34.659  10.980  19.913  0.00  0.00     0.187 HD
HETATM   19  N   UNK N   1      34.647  13.449  20.641  0.00  0.00    -0.234 N 
HETATM   20  N   UNK N   1      35.363  13.750  18.374  0.00  0.00    -0.175 N 
HETATM   21  H   UNK N   1      34.471  12.847  21.399  0.00  0.00     0.174 HD
HETATM   22  H   UNK N   1      34.585  14.424  20.762  0.00  0.00     0.174 HD
ATOM     23  HN  UNK N   1      35.391  14.757  18.536  1.00  0.00     0.186 HD
HETATM   24  N   UNK N   1      36.044  14.141  16.096  0.00  0.00    -0.345 N 
HETATM   25  H   UNK N   1      36.077  15.109  16.274  0.00  0.00     0.163 HD
HETATM   26  O   UNK N   1      35.210  13.798  13.938  0.00  0.00    -0.352 OA
BRANCH   6  27
HETATM   27  S   UNK N   1      36.386  11.540  10.704  0.00  0.00    -0.143 SA
HETATM   28  H   UNK N   1      35.375  10.783  10.198  0.00  0.00     0.107 HD
ENDBRANCH   6  27
BRANCH   7  29
HETATM   29  S   UNK N   1      37.775  10.035  13.195  0.00  0.00    -0.144 SA
HETATM   30  H   UNK N   1      38.840   9.825  12.374  0.00  0.00     0.107 HD
ENDBRANCH   7  29
ENDBRANCH   4   5
ENDBRANCH   3   4
ENDBRANCH   2   3
BRANCH   2  31
HETATM   31  O   UNK N   1      35.030  16.230   8.155  0.00  0.00    -0.195 OA
BRANCH  31  32
HETATM   32  P   UNK N   1      34.174  17.733   7.877  0.00  0.00     0.401 P 
HETATM   33  O   UNK N   1      35.010  18.933   8.405  0.00  0.00    -0.631 OA
BRANCH  32  34
HETATM   34  O   UNK N   1      33.973  17.957   6.159  0.00  0.00    -0.294 OA
BRANCH  34  35
HETATM   35  C   UNK N   1      33.780  16.676   5.630  0.00  0.00     0.215 C 
BRANCH  35  36
HETATM   36  C   UNK N   1      32.456  16.549   4.862  0.00  0.00     0.180 C 
HETATM   37  O   UNK N   1      31.590  17.650   5.070  0.00  0.00    -0.353 OA
HETATM   38  C   UNK N   1      30.306  17.078   5.135  0.00  0.00     0.263 C 
HETATM   39  C   UNK N   1      30.472  15.765   5.859  0.00  0.00     0.198 C 
HETATM   40  C   UNK N   1      31.677  15.263   5.144  0.00  0.00     0.182 C 
BRANCH  38  41
HETATM   41  N   UNK N   1      29.276  17.943   5.746  0.00  0.00    -0.280 N 
HETATM   42  C   UNK N   1      29.039  18.025   7.111  0.00  0.00     0.330 A 
HETATM   43  N   UNK N   1      28.087  18.891   7.589  0.00  0.00    -0.295 N 
HETATM   44  O   UNK N   1      29.661  17.338   7.901  0.00  0.00    -0.246 OA
HETATM   45  C   UNK N   1      27.368  19.677   6.749  0.00  0.00     0.103 A 
ATOM     46  HN  UNK N   1      27.917  18.945   8.593  1.00  0.00     0.172 HD
HETATM   47  C   UNK N   1      27.587  19.607   5.380  0.00  0.00     0.065 A 
HETATM   48  C   UNK N   1      28.553  18.729   4.899  0.00  0.00     0.102 A 
BRANCH  45  49
HETATM   49  N   UNK N   1      26.403  20.565   7.263  0.00  0.00    -0.385 N 
HETATM   50  H   UNK N   1      26.653  21.389   7.740  0.00  0.00     0.157 HD
HETATM   51  H   UNK N   1      25.450  20.354   7.140  0.00  0.00     0.157 HD
ENDBRANCH  45  49
ENDBRANCH  38  41
BRANCH  39  52
HETATM   52  O   UNK N   1      29.387  14.915   5.643  0.00  0.00    -0.388 OA
HETATM   53  H   UNK N   1      28.924  14.900   4.791  0.00  0.00     0.210 HD
ENDBRANCH  39  52
BRANCH  40  54
HETATM   54  O   UNK N   1      32.377  14.330   5.912  0.00  0.00    -0.390 OA
HETATM   55  H   UNK N   1      32.815  13.483   5.733  0.00  0.00     0.210 HD
ENDBRANCH  40  54
ENDBRANCH  35  36
ENDBRANCH  34  35
ENDBRANCH  32  34
BRANCH  32  56
HETATM   56  O   UNK N   1      32.622  17.756   8.656  0.00  0.00    -0.307 OA
HETATM   57  H   UNK N   1      31.741  17.415   8.876  0.00  0.00     0.222 HD
ENDBRANCH  32  56
ENDBRANCH  31  32
ENDBRANCH   2  31
BRANCH   2  58
HETATM   58  O   UNK N   1      34.973  17.130  10.837  0.00  0.00    -0.307 OA
HETATM   59  H   UNK N   1      34.885  17.373  11.771  0.00  0.00     0.222 HD
ENDBRANCH   2  58
TORSDOF 16
ENDMDL
MODEL 4
REMARK VINA RESULT:      -8.7      9.306     12.216
REMARK  16 active torsions:
REMARK  status: ('A' for Active; 'I' for Inactive)
REMARK    1  A    between atoms: C_12  and  S_7 
REMARK    2  A    between atoms: C_11  and  S_8 
REMARK       I    between atoms: C_18  and  N_10 
REMARK    3  A    between atoms: C_13  and  C_30 
REMARK    4  A    between atoms: C_30  and  O_20 
REMARK    5  A    between atoms: O_20  and  P_22 
REMARK    6  A    between atoms: P_22  and  O_24 
REMARK    7  A    between atoms: P_22  and  O_23 
REMARK    8  A    between atoms: O_24  and  P_26 
REMARK    9  A    between atoms: P_26  and  O_32 
REMARK   10  A    between atoms: P_26  and  O_27 
REMARK   11  A    between atoms: C_35  and  O_28 
REMARK   12  A    between atoms: C_36  and  O_29 
REMARK   13  A    between atoms: C_38  and  C_31 
REMARK   14  A    between atoms: C_31  and  O_32 
REMARK   15  A    between atoms: C_34  and  N_33 
REMARK   16  A    between atoms: N_46  and  C_42 
ROOT
HETATM    1  O   UNK N   1      25.894  17.716   3.400  0.00  0.00    -0.631 OA
HETATM    2  P   UNK N   1      25.133  18.973   3.903  0.00  0.00     0.401 P 
ENDROOT
BRANCH   2   3
HETATM    3  O   UNK N   1      23.417  18.656   3.780  0.00  0.00    -0.294 OA
BRANCH   3   4
HETATM    4  C   UNK N   1      23.262  17.279   3.942  0.00  0.00     0.218 C 
BRANCH   4   5
HETATM    5  C   UNK N   1      22.409  16.887   5.154  0.00  0.00     0.189 C 
HETATM    6  C   UNK N   1      21.118  16.205   4.759  0.00  0.00     0.021 C 
HETATM    7  C   UNK N   1      20.841  14.958   5.200  0.00  0.00     0.017 C 
HETATM    8  C   UNK N   1      21.837  14.212   6.045  0.00  0.00     0.171 C 
HETATM    9  N   UNK N   1      21.336  14.066   7.393  0.00  0.00    -0.369 N 
HETATM   10  C   UNK N   1      23.224  14.894   6.034  0.00  0.00     0.251 C 
HETATM   11  C   UNK N   1      22.210  13.586   8.397  0.00  0.00     0.143 A 
HETATM   12  H   UNK N   1      20.403  14.296   7.609  0.00  0.00     0.161 HD
HETATM   13  C   UNK N   1      21.732  13.010   9.576  0.00  0.00     0.289 A 
HETATM   14  C   UNK N   1      23.590  13.691   8.212  0.00  0.00     0.151 A 
HETATM   15  O   UNK N   1      20.535  12.903   9.773  0.00  0.00    -0.265 OA
HETATM   16  N   UNK N   1      22.623  12.550  10.510  0.00  0.00    -0.154 N 
HETATM   17  C   UNK N   1      23.964  12.654  10.303  0.00  0.00     0.680 A 
HETATM   18  H   UNK N   1      22.289  12.140  11.340  0.00  0.00     0.187 HD
HETATM   19  N   UNK N   1      24.863  12.176  11.276  0.00  0.00    -0.234 N 
HETATM   20  N   UNK N   1      24.439  13.226   9.164  0.00  0.00    -0.175 N 
HETATM   21  H   UNK N   1      24.526  11.675  12.054  0.00  0.00     0.174 HD
HETATM   22  H   UNK N   1      25.828  12.342  11.177  0.00  0.00     0.174 HD
ATOM     23  HN  UNK N   1      25.447  13.307   9.023  1.00  0.00     0.186 HD
HETATM   24  N   UNK N   1      24.099  14.327   7.048  0.00  0.00    -0.345 N 
HETATM   25  H   UNK N   1      25.074  14.385   6.924  0.00  0.00     0.163 HD
HETATM   26  O   UNK N   1      23.115  16.287   6.235  0.00  0.00    -0.352 OA
BRANCH   6  27
HETATM   27  S   UNK N   1      19.954  17.118   3.733  0.00  0.00    -0.143 SA
HETATM   28  H   UNK N   1      20.373  17.974   2.763  0.00  0.00     0.107 HD
ENDBRANCH   6  27
BRANCH   7  29
HETATM   29  S   UNK N   1      19.276  14.156   4.813  0.00  0.00    -0.144 SA
HETATM   30  H   UNK N   1      18.250  13.961   5.684  0.00  0.00     0.107 HD
ENDBRANCH   7  29
ENDBRANCH   4   5
ENDBRANCH   3   4
ENDBRANCH   2   3
BRANCH   2  31
HETATM   31  O   UNK N   1      25.731  19.405   5.495  0.00  0.00    -0.195 OA
BRANCH  31  32
HETATM   32  P   UNK N   1      27.305  20.166   5.373  0.00  0.00     0.401 P 
HETATM   33  O   UNK N   1      27.167  21.710   5.502  0.00  0.00    -0.631 OA
BRANCH  32  34
HETATM   34  O   UNK N   1      28.297  19.622   6.700  0.00  0.00    -0.294 OA
BRANCH  34  35
HETATM   35  C   UNK N   1      27.506  18.718   7.418  0.00  0.00     0.215 C 
BRANCH  35  36
HETATM   36  C   UNK N   1      28.114  17.308   7.464  0.00  0.00     0.180 C 
HETATM   37  O   UNK N   1      29.429  17.258   6.939  0.00  0.00    -0.353 OA
HETATM   38  C   UNK N   1      29.482  16.037   6.242  0.00  0.00     0.263 C 
HETATM   39  C   UNK N   1      28.126  15.863   5.604  0.00  0.00     0.198 C 
HETATM   40  C   UNK N   1      27.278  16.231   6.772  0.00  0.00     0.182 C 
BRANCH  38  41
HETATM   41  N   UNK N   1      30.590  15.928   5.272  0.00  0.00    -0.280 N 
HETATM   42  C   UNK N   1      31.236  14.739   4.959  0.00  0.00     0.330 A 
HETATM   43  N   UNK N   1      32.228  14.730   4.011  0.00  0.00    -0.295 N 
HETATM   44  O   UNK N   1      30.939  13.697   5.514  0.00  0.00    -0.246 OA
HETATM   45  C   UNK N   1      32.594  15.866   3.367  0.00  0.00     0.103 A 
ATOM     46  HN  UNK N   1      32.700  13.853   3.788  1.00  0.00     0.172 HD
HETATM   47  C   UNK N   1      31.964  17.065   3.667  0.00  0.00     0.065 A 
HETATM   48  C   UNK N   1      30.958  17.071   4.628  0.00  0.00     0.102 A 
BRANCH  45  49
HETATM   49  N   UNK N   1      33.609  15.830   2.391  0.00  0.00    -0.385 N 
HETATM   50  H   UNK N   1      34.535  16.100   2.589  0.00  0.00     0.157 HD
HETATM   51  H   UNK N   1      33.385  15.524   1.483  0.00  0.00     0.157 HD
ENDBRANCH  45  49
ENDBRANCH  38  41
BRANCH  39  52
HETATM   52  O   UNK N   1      27.895  14.539   5.233  0.00  0.00    -0.388 OA
HETATM   53  H   UNK N   1      28.079  14.232   4.331  0.00  0.00     0.210 HD
ENDBRANCH  39  52
BRANCH  40  54
HETATM   54  O   UNK N   1      26.012  16.664   6.368  0.00  0.00    -0.390 OA
HETATM   55  H   UNK N   1      25.676  17.246   5.668  0.00  0.00     0.210 HD
ENDBRANCH  40  54
ENDBRANCH  35  36
ENDBRANCH  34  35
ENDBRANCH  32  34
BRANCH  32  56
HETATM   56  O   UNK N   1      28.091  19.806   3.867  0.00  0.00    -0.307 OA
HETATM   57  H   UNK N   1      28.183  19.380   3.000  0.00  0.00     0.222 HD
ENDBRANCH  32  56
ENDBRANCH  31  32
ENDBRANCH   2  31
BRANCH   2  58
HETATM   58  O   UNK N   1      25.585  20.225   2.790  0.00  0.00    -0.307 OA
HETATM   59  H   UNK N   1      26.302  20.437   2.174  0.00  0.00     0.222 HD
ENDBRANCH   2  58
TORSDOF 16
ENDMDL
MODEL 5
REMARK VINA RESULT:      -8.5      4.342     14.491
REMARK  16 active torsions:
REMARK  status: ('A' for Active; 'I' for Inactive)
REMARK    1  A    between atoms: C_12  and  S_7 
REMARK    2  A    between atoms: C_11  and  S_8 
REMARK       I    between atoms: C_18  and  N_10 
REMARK    3  A    between atoms: C_13  and  C_30 
REMARK    4  A    between atoms: C_30  and  O_20 
REMARK    5  A    between atoms: O_20  and  P_22 
REMARK    6  A    between atoms: P_22  and  O_24 
REMARK    7  A    between atoms: P_22  and  O_23 
REMARK    8  A    between atoms: O_24  and  P_26 
REMARK    9  A    between atoms: P_26  and  O_32 
REMARK   10  A    between atoms: P_26  and  O_27 
REMARK   11  A    between atoms: C_35  and  O_28 
REMARK   12  A    between atoms: C_36  and  O_29 
REMARK   13  A    between atoms: C_38  and  C_31 
REMARK   14  A    between atoms: C_31  and  O_32 
REMARK   15  A    between atoms: C_34  and  N_33 
REMARK   16  A    between atoms: N_46  and  C_42 
ROOT
HETATM    1  O   UNK N   1      29.772  15.750   4.373  0.00  0.00    -0.631 OA
HETATM    2  P   UNK N   1      29.759  17.206   4.911  0.00  0.00     0.401 P 
ENDROOT
BRANCH   2   3
HETATM    3  O   UNK N   1      28.260  17.958   4.415  0.00  0.00    -0.294 OA
BRANCH   3   4
HETATM    4  C   UNK N   1      27.277  17.476   5.281  0.00  0.00     0.218 C 
BRANCH   4   5
HETATM    5  C   UNK N   1      26.049  16.896   4.568  0.00  0.00     0.189 C 
HETATM    6  C   UNK N   1      25.218  16.011   5.471  0.00  0.00     0.021 C 
HETATM    7  C   UNK N   1      23.920  16.301   5.704  0.00  0.00     0.017 C 
HETATM    8  C   UNK N   1      23.298  17.537   5.114  0.00  0.00     0.171 C 
HETATM    9  N   UNK N   1      22.331  17.175   4.103  0.00  0.00    -0.369 N 
HETATM   10  C   UNK N   1      24.366  18.501   4.546  0.00  0.00     0.251 C 
HETATM   11  C   UNK N   1      21.793  18.190   3.278  0.00  0.00     0.143 A 
HETATM   12  H   UNK N   1      22.050  16.237   3.992  0.00  0.00     0.161 HD
HETATM   13  C   UNK N   1      20.581  18.028   2.605  0.00  0.00     0.289 A 
HETATM   14  C   UNK N   1      22.492  19.390   3.125  0.00  0.00     0.151 A 
HETATM   15  O   UNK N   1      19.945  16.994   2.714  0.00  0.00    -0.265 OA
HETATM   16  N   UNK N   1      20.100  19.049   1.828  0.00  0.00    -0.154 N 
HETATM   17  C   UNK N   1      20.793  20.213   1.702  0.00  0.00     0.680 A 
HETATM   18  H   UNK N   1      19.243  18.939   1.356  0.00  0.00     0.187 HD
HETATM   19  N   UNK N   1      20.282  21.250   0.897  0.00  0.00    -0.234 N 
HETATM   20  N   UNK N   1      21.982  20.376   2.342  0.00  0.00    -0.175 N 
HETATM   21  H   UNK N   1      19.379  21.175   0.512  0.00  0.00     0.174 HD
HETATM   22  H   UNK N   1      20.827  22.050   0.721  0.00  0.00     0.174 HD
ATOM     23  HN  UNK N   1      22.498  21.249   2.233  1.00  0.00     0.186 HD
HETATM   24  N   UNK N   1      23.755  19.555   3.752  0.00  0.00    -0.345 N 
HETATM   25  H   UNK N   1      24.233  20.409   3.645  0.00  0.00     0.163 HD
HETATM   26  O   UNK N   1      25.316  17.813   3.763  0.00  0.00    -0.352 OA
BRANCH   6  27
HETATM   27  S   UNK N   1      25.995  14.548   6.175  0.00  0.00    -0.143 SA
HETATM   28  H   UNK N   1      25.276  13.606   6.842  0.00  0.00     0.107 HD
ENDBRANCH   6  27
BRANCH   7  29
HETATM   29  S   UNK N   1      22.886  15.220   6.707  0.00  0.00    -0.144 SA
HETATM   30  H   UNK N   1      22.918  13.861   6.695  0.00  0.00     0.107 HD
ENDBRANCH   7  29
ENDBRANCH   4   5
ENDBRANCH   3   4
ENDBRANCH   2   3
BRANCH   2  31
HETATM   31  O   UNK N   1      30.084  17.182   6.635  0.00  0.00    -0.195 OA
BRANCH  31  32
HETATM   32  P   UNK N   1      31.525  16.246   6.975  0.00  0.00     0.401 P 
HETATM   33  O   UNK N   1      32.679  16.673   6.025  0.00  0.00    -0.631 OA
BRANCH  32  34
HETATM   34  O   UNK N   1      32.043  16.585   8.606  0.00  0.00    -0.294 OA
BRANCH  34  35
HETATM   35  C   UNK N   1      32.415  15.351   9.150  0.00  0.00     0.215 C 
BRANCH  35  36
HETATM   36  C   UNK N   1      33.924  15.086   9.037  0.00  0.00     0.180 C 
HETATM   37  O   UNK N   1      34.343  13.958   9.783  0.00  0.00    -0.353 OA
HETATM   38  C   UNK N   1      35.590  14.333  10.316  0.00  0.00     0.263 C 
HETATM   39  C   UNK N   1      35.469  15.795  10.667  0.00  0.00     0.198 C 
HETATM   40  C   UNK N   1      34.809  16.273   9.420  0.00  0.00     0.182 C 
BRANCH  38  41
HETATM   41  N   UNK N   1      36.050  13.507  11.451  0.00  0.00    -0.280 N 
HETATM   42  C   UNK N   1      37.328  12.976  11.559  0.00  0.00     0.330 A 
HETATM   43  N   UNK N   1      37.676  12.255  12.673  0.00  0.00    -0.295 N 
HETATM   44  O   UNK N   1      38.152  13.135  10.677  0.00  0.00    -0.246 OA
HETATM   45  C   UNK N   1      36.792  12.050  13.681  0.00  0.00     0.103 A 
ATOM     46  HN  UNK N   1      38.616  11.865  12.745  1.00  0.00     0.172 HD
HETATM   47  C   UNK N   1      35.508  12.569  13.592  0.00  0.00     0.065 A 
HETATM   48  C   UNK N   1      35.158  13.300  12.460  0.00  0.00     0.102 A 
BRANCH  45  49
HETATM   49  N   UNK N   1      37.175  11.315  14.820  0.00  0.00    -0.385 N 
HETATM   50  H   UNK N   1      37.361  10.349  14.780  0.00  0.00     0.157 HD
HETATM   51  H   UNK N   1      37.261  11.782  15.681  0.00  0.00     0.157 HD
ENDBRANCH  45  49
ENDBRANCH  38  41
BRANCH  39  52
HETATM   52  O   UNK N   1      36.719  16.396  10.817  0.00  0.00    -0.388 OA
HETATM   53  H   UNK N   1      37.091  16.960  10.120  0.00  0.00     0.210 HD
ENDBRANCH  39  52
BRANCH  40  54
HETATM   54  O   UNK N   1      34.107  17.461   9.637  0.00  0.00    -0.390 OA
HETATM   55  H   UNK N   1      33.362  17.726  10.199  0.00  0.00     0.210 HD
ENDBRANCH  40  54
ENDBRANCH  35  36
ENDBRANCH  34  35
ENDBRANCH  32  34
BRANCH  32  56
HETATM   56  O   UNK N   1      31.258  14.540   6.788  0.00  0.00    -0.307 OA
HETATM   57  H   UNK N   1      31.272  13.692   6.318  0.00  0.00     0.222 HD
ENDBRANCH  32  56
ENDBRANCH  31  32
ENDBRANCH   2  31
BRANCH   2  58
HETATM   58  O   UNK N   1      31.096  17.973   4.114  0.00  0.00    -0.307 OA
HETATM   59  H   UNK N   1      31.947  17.737   3.713  0.00  0.00     0.222 HD
ENDBRANCH   2  58
TORSDOF 16
ENDMDL
MODEL 6
REMARK VINA RESULT:      -8.3      2.623      4.137
REMARK  16 active torsions:
REMARK  status: ('A' for Active; 'I' for Inactive)
REMARK    1  A    between atoms: C_12  and  S_7 
REMARK    2  A    between atoms: C_11  and  S_8 
REMARK       I    between atoms: C_18  and  N_10 
REMARK    3  A    between atoms: C_13  and  C_30 
REMARK    4  A    between atoms: C_30  and  O_20 
REMARK    5  A    between atoms: O_20  and  P_22 
REMARK    6  A    between atoms: P_22  and  O_24 
REMARK    7  A    between atoms: P_22  and  O_23 
REMARK    8  A    between atoms: O_24  and  P_26 
REMARK    9  A    between atoms: P_26  and  O_32 
REMARK   10  A    between atoms: P_26  and  O_27 
REMARK   11  A    between atoms: C_35  and  O_28 
REMARK   12  A    between atoms: C_36  and  O_29 
REMARK   13  A    between atoms: C_38  and  C_31 
REMARK   14  A    between atoms: C_31  and  O_32 
REMARK   15  A    between atoms: C_34  and  N_33 
REMARK   16  A    between atoms: N_46  and  C_42 
ROOT
HETATM    1  O   UNK N   1      38.526  11.592   9.824  0.00  0.00    -0.631 OA
HETATM    2  P   UNK N   1      37.278  11.625  10.748  0.00  0.00     0.401 P 
ENDROOT
BRANCH   2   3
HETATM    3  O   UNK N   1      37.077  10.036  11.450  0.00  0.00    -0.294 OA
BRANCH   3   4
HETATM    4  C   UNK N   1      35.702   9.801  11.497  0.00  0.00     0.218 C 
BRANCH   4   5
HETATM    5  C   UNK N   1      35.155   9.599  12.915  0.00  0.00     0.189 C 
HETATM    6  C   UNK N   1      35.810   8.437  13.630  0.00  0.00     0.021 C 
HETATM    7  C   UNK N   1      36.460   8.632  14.797  0.00  0.00     0.017 C 
HETATM    8  C   UNK N   1      36.588  10.015  15.374  0.00  0.00     0.171 C 
HETATM    9  N   UNK N   1      35.798  10.128  16.579  0.00  0.00    -0.369 N 
HETATM   10  C   UNK N   1      36.200  11.104  14.347  0.00  0.00     0.251 C 
HETATM   11  C   UNK N   1      35.610  11.406  17.155  0.00  0.00     0.143 A 
HETATM   12  H   UNK N   1      35.399   9.328  16.993  0.00  0.00     0.161 HD
HETATM   13  C   UNK N   1      35.260  11.566  18.497  0.00  0.00     0.289 A 
HETATM   14  C   UNK N   1      35.775  12.545  16.363  0.00  0.00     0.151 A 
HETATM   15  O   UNK N   1      35.106  10.595  19.217  0.00  0.00    -0.265 OA
HETATM   16  N   UNK N   1      35.103  12.828  19.006  0.00  0.00    -0.154 N 
HETATM   17  C   UNK N   1      35.278  13.923  18.218  0.00  0.00     0.680 A 
HETATM   18  H   UNK N   1      34.859  12.944  19.953  0.00  0.00     0.187 HD
HETATM   19  N   UNK N   1      35.111  15.212  18.761  0.00  0.00    -0.234 N 
HETATM   20  N   UNK N   1      35.606  13.778  16.906  0.00  0.00    -0.175 N 
HETATM   21  H   UNK N   1      34.970  15.324  19.729  0.00  0.00     0.174 HD
HETATM   22  H   UNK N   1      35.135  16.000  18.172  0.00  0.00     0.174 HD
ATOM     23  HN  UNK N   1      35.726  14.606  16.322  1.00  0.00     0.186 HD
HETATM   24  N   UNK N   1      36.073  12.406  14.982  0.00  0.00    -0.345 N 
HETATM   25  H   UNK N   1      36.197  13.216  14.436  0.00  0.00     0.163 HD
HETATM   26  O   UNK N   1      34.994  10.783  13.688  0.00  0.00    -0.352 OA
BRANCH   6  27
HETATM   27  S   UNK N   1      35.652   6.796  12.905  0.00  0.00    -0.143 SA
HETATM   28  H   UNK N   1      36.181   6.497  11.688  0.00  0.00     0.107 HD
ENDBRANCH   6  27
BRANCH   7  29
HETATM   29  S   UNK N   1      37.177   7.255  15.709  0.00  0.00    -0.144 SA
HETATM   30  H   UNK N   1      38.307   7.309  16.465  0.00  0.00     0.107 HD
ENDBRANCH   7  29
ENDBRANCH   4   5
ENDBRANCH   3   4
ENDBRANCH   2   3
BRANCH   2  31
HETATM   31  O   UNK N   1      37.436  12.959  11.876  0.00  0.00    -0.195 OA
BRANCH  31  32
HETATM   32  P   UNK N   1      36.006  13.970  11.837  0.00  0.00     0.401 P 
HETATM   33  O   UNK N   1      36.049  15.008  12.994  0.00  0.00    -0.631 OA
BRANCH  32  34
HETATM   34  O   UNK N   1      35.991  14.864  10.339  0.00  0.00    -0.294 OA
BRANCH  34  35
HETATM   35  C   UNK N   1      34.781  15.566  10.329  0.00  0.00     0.215 C 
BRANCH  35  36
HETATM   36  C   UNK N   1      34.258  15.820   8.907  0.00  0.00     0.180 C 
HETATM   37  O   UNK N   1      33.330  16.889   8.844  0.00  0.00    -0.353 OA
HETATM   38  C   UNK N   1      32.367  16.461   7.911  0.00  0.00     0.263 C 
HETATM   39  C   UNK N   1      32.196  14.980   8.139  0.00  0.00     0.198 C 
HETATM   40  C   UNK N   1      33.632  14.599   8.232  0.00  0.00     0.182 C 
BRANCH  38  41
HETATM   41  N   UNK N   1      31.089  17.200   7.963  0.00  0.00    -0.280 N 
HETATM   42  C   UNK N   1      30.223  17.331   6.886  0.00  0.00     0.330 A 
HETATM   43  N   UNK N   1      29.035  18.002   7.041  0.00  0.00    -0.295 N 
HETATM   44  O   UNK N   1      30.497  16.861   5.797  0.00  0.00    -0.246 OA
HETATM   45  C   UNK N   1      28.687  18.543   8.235  0.00  0.00     0.103 A 
ATOM     46  HN  UNK N   1      28.405  18.096   6.245  1.00  0.00     0.172 HD
HETATM   47  C   UNK N   1      29.540  18.427   9.323  0.00  0.00     0.065 A 
HETATM   48  C   UNK N   1      30.742  17.746   9.162  0.00  0.00     0.102 A 
BRANCH  45  49
HETATM   49  N   UNK N   1      27.459  19.219   8.373  0.00  0.00    -0.385 N 
HETATM   50  H   UNK N   1      26.867  19.390   7.605  0.00  0.00     0.157 HD
HETATM   51  H   UNK N   1      27.184  19.529   9.266  0.00  0.00     0.157 HD
ENDBRANCH  45  49
ENDBRANCH  38  41
BRANCH  39  52
HETATM   52  O   UNK N   1      31.596  14.355   7.046  0.00  0.00    -0.388 OA
HETATM   53  H   UNK N   1      31.370  13.412   7.070  0.00  0.00     0.210 HD
ENDBRANCH  39  52
BRANCH  40  54
HETATM   54  O   UNK N   1      33.800  13.407   8.942  0.00  0.00    -0.390 OA
HETATM   55  H   UNK N   1      34.528  12.998   9.436  0.00  0.00     0.210 HD
ENDBRANCH  40  54
ENDBRANCH  35  36
ENDBRANCH  34  35
ENDBRANCH  32  34
BRANCH  32  56
HETATM   56  O   UNK N   1      34.545  13.042  11.980  0.00  0.00    -0.307 OA
HETATM   57  H   UNK N   1      33.591  12.884  11.907  0.00  0.00     0.222 HD
ENDBRANCH  32  56
ENDBRANCH  31  32
ENDBRANCH   2  31
BRANCH   2  58
HETATM   58  O   UNK N   1      35.957  11.969   9.677  0.00  0.00    -0.307 OA
HETATM   59  H   UNK N   1      35.525  12.732   9.263  0.00  0.00     0.222 HD
ENDBRANCH   2  58
TORSDOF 16
ENDMDL
MODEL 7
REMARK VINA RESULT:      -8.3      7.795     13.835
REMARK  16 active torsions:
REMARK  status: ('A' for Active; 'I' for Inactive)
REMARK    1  A    between atoms: C_12  and  S_7 
REMARK    2  A    between atoms: C_11  and  S_8 
REMARK       I    between atoms: C_18  and  N_10 
REMARK    3  A    between atoms: C_13  and  C_30 
REMARK    4  A    between atoms: C_30  and  O_20 
REMARK    5  A    between atoms: O_20  and  P_22 
REMARK    6  A    between atoms: P_22  and  O_24 
REMARK    7  A    between atoms: P_22  and  O_23 
REMARK    8  A    between atoms: O_24  and  P_26 
REMARK    9  A    between atoms: P_26  and  O_32 
REMARK   10  A    between atoms: P_26  and  O_27 
REMARK   11  A    between atoms: C_35  and  O_28 
REMARK   12  A    between atoms: C_36  and  O_29 
REMARK   13  A    between atoms: C_38  and  C_31 
REMARK   14  A    between atoms: C_31  and  O_32 
REMARK   15  A    between atoms: C_34  and  N_33 
REMARK   16  A    between atoms: N_46  and  C_42 
ROOT
HETATM    1  O   UNK N   1      28.834  15.814   4.687  0.00  0.00    -0.631 OA
HETATM    2  P   UNK N   1      28.371  16.992   5.586  0.00  0.00     0.401 P 
ENDROOT
BRANCH   2   3
HETATM    3  O   UNK N   1      26.693  17.328   5.223  0.00  0.00    -0.294 OA
BRANCH   3   4
HETATM    4  C   UNK N   1      25.950  16.328   5.852  0.00  0.00     0.218 C 
BRANCH   4   5
HETATM    5  C   UNK N   1      24.587  16.063   5.202  0.00  0.00     0.189 C 
HETATM    6  C   UNK N   1      23.533  15.657   6.209  0.00  0.00     0.021 C 
HETATM    7  C   UNK N   1      22.403  16.384   6.346  0.00  0.00     0.017 C 
HETATM    8  C   UNK N   1      22.202  17.636   5.537  0.00  0.00     0.171 C 
HETATM    9  N   UNK N   1      21.148  17.439   4.567  0.00  0.00    -0.369 N 
HETATM   10  C   UNK N   1      23.511  18.096   4.855  0.00  0.00     0.251 C 
HETATM   11  C   UNK N   1      20.951  18.420   3.566  0.00  0.00     0.143 A 
HETATM   12  H   UNK N   1      20.578  16.637   4.603  0.00  0.00     0.161 HD
HETATM   13  C   UNK N   1      19.737  18.545   2.887  0.00  0.00     0.289 A 
HETATM   14  C   UNK N   1      21.996  19.287   3.241  0.00  0.00     0.151 A 
HETATM   15  O   UNK N   1      18.804  17.805   3.143  0.00  0.00    -0.265 OA
HETATM   16  N   UNK N   1      19.596  19.520   1.935  0.00  0.00    -0.154 N 
HETATM   17  C   UNK N   1      20.625  20.360   1.642  0.00  0.00     0.680 A 
HETATM   18  H   UNK N   1      18.741  19.614   1.458  0.00  0.00     0.187 HD
HETATM   19  N   UNK N   1      20.460  21.356   0.659  0.00  0.00    -0.234 N 
HETATM   20  N   UNK N   1      21.816  20.238   2.288  0.00  0.00    -0.175 N 
HETATM   21  H   UNK N   1      19.574  21.512   0.260  0.00  0.00     0.174 HD
HETATM   22  H   UNK N   1      21.231  21.896   0.372  0.00  0.00     0.174 HD
ATOM     23  HN  UNK N   1      22.584  20.868   2.054  1.00  0.00     0.186 HD
HETATM   24  N   UNK N   1      23.257  19.140   3.876  0.00  0.00    -0.345 N 
HETATM   25  H   UNK N   1      23.983  19.764   3.646  0.00  0.00     0.163 HD
HETATM   26  O   UNK N   1      24.173  17.017   4.231  0.00  0.00    -0.352 OA
BRANCH   6  27
HETATM   27  S   UNK N   1      23.811  14.162   7.173  0.00  0.00    -0.143 SA
HETATM   28  H   UNK N   1      24.467  14.189   8.365  0.00  0.00     0.107 HD
ENDBRANCH   6  27
BRANCH   7  29
HETATM   29  S   UNK N   1      21.097  15.877   7.477  0.00  0.00    -0.144 SA
HETATM   30  H   UNK N   1      21.043  14.693   8.144  0.00  0.00     0.107 HD
ENDBRANCH   7  29
ENDBRANCH   4   5
ENDBRANCH   3   4
ENDBRANCH   2   3
BRANCH   2  31
HETATM   31  O   UNK N   1      28.744  16.617   7.258  0.00  0.00    -0.195 OA
BRANCH  31  32
HETATM   32  P   UNK N   1      28.473  18.016   8.276  0.00  0.00     0.401 P 
HETATM   33  O   UNK N   1      27.729  17.599   9.576  0.00  0.00    -0.631 OA
BRANCH  32  34
HETATM   34  O   UNK N   1      30.018  18.674   8.751  0.00  0.00    -0.294 OA
BRANCH  34  35
HETATM   35  C   UNK N   1      30.913  17.599   8.717  0.00  0.00     0.215 C 
BRANCH  35  36
HETATM   36  C   UNK N   1      32.015  17.783   7.663  0.00  0.00     0.180 C 
HETATM   37  O   UNK N   1      31.717  17.139   6.437  0.00  0.00    -0.353 OA
HETATM   38  C   UNK N   1      32.953  16.621   6.005  0.00  0.00     0.263 C 
HETATM   39  C   UNK N   1      33.668  16.157   7.249  0.00  0.00     0.198 C 
HETATM   40  C   UNK N   1      33.408  17.341   8.114  0.00  0.00     0.182 C 
BRANCH  38  41
HETATM   41  N   UNK N   1      32.853  15.568   4.974  0.00  0.00    -0.280 N 
HETATM   42  C   UNK N   1      32.066  14.431   5.097  0.00  0.00     0.330 A 
HETATM   43  N   UNK N   1      32.005  13.527   4.066  0.00  0.00    -0.295 N 
HETATM   44  O   UNK N   1      31.426  14.215   6.110  0.00  0.00    -0.246 OA
HETATM   45  C   UNK N   1      32.701  13.723   2.919  0.00  0.00     0.103 A 
ATOM     46  HN  UNK N   1      31.427  12.692   4.165  1.00  0.00     0.172 HD
HETATM   47  C   UNK N   1      33.496  14.852   2.776  0.00  0.00     0.065 A 
HETATM   48  C   UNK N   1      33.556  15.766   3.823  0.00  0.00     0.102 A 
BRANCH  45  49
HETATM   49  N   UNK N   1      32.614  12.787   1.870  0.00  0.00    -0.385 N 
HETATM   50  H   UNK N   1      31.873  12.794   1.223  0.00  0.00     0.157 HD
HETATM   51  H   UNK N   1      33.319  12.105   1.782  0.00  0.00     0.157 HD
ENDBRANCH  45  49
ENDBRANCH  38  41
BRANCH  39  52
HETATM   52  O   UNK N   1      35.037  16.003   7.032  0.00  0.00    -0.388 OA
HETATM   53  H   UNK N   1      35.599  15.546   7.677  0.00  0.00     0.210 HD
ENDBRANCH  39  52
BRANCH  40  54
HETATM   54  O   UNK N   1      33.490  17.011   9.469  0.00  0.00    -0.390 OA
HETATM   55  H   UNK N   1      34.102  17.224  10.192  0.00  0.00     0.210 HD
ENDBRANCH  40  54
ENDBRANCH  35  36
ENDBRANCH  34  35
ENDBRANCH  32  34
BRANCH  32  56
HETATM   56  O   UNK N   1      27.538  19.239   7.473  0.00  0.00    -0.307 OA
HETATM   57  H   UNK N   1      26.728  19.640   7.121  0.00  0.00     0.222 HD
ENDBRANCH  32  56
ENDBRANCH  31  32
ENDBRANCH   2  31
BRANCH   2  58
HETATM   58  O   UNK N   1      29.361  18.328   5.090  0.00  0.00    -0.307 OA
HETATM   59  H   UNK N   1      30.117  18.508   4.511  0.00  0.00     0.222 HD
ENDBRANCH   2  58
TORSDOF 16
ENDMDL
MODEL 8
REMARK VINA RESULT:      -8.2      6.531     11.053
REMARK  16 active torsions:
REMARK  status: ('A' for Active; 'I' for Inactive)
REMARK    1  A    between atoms: C_12  and  S_7 
REMARK    2  A    between atoms: C_11  and  S_8 
REMARK       I    between atoms: C_18  and  N_10 
REMARK    3  A    between atoms: C_13  and  C_30 
REMARK    4  A    between atoms: C_30  and  O_20 
REMARK    5  A    between atoms: O_20  and  P_22 
REMARK    6  A    between atoms: P_22  and  O_24 
REMARK    7  A    between atoms: P_22  and  O_23 
REMARK    8  A    between atoms: O_24  and  P_26 
REMARK    9  A    between atoms: P_26  and  O_32 
REMARK   10  A    between atoms: P_26  and  O_27 
REMARK   11  A    between atoms: C_35  and  O_28 
REMARK   12  A    between atoms: C_36  and  O_29 
REMARK   13  A    between atoms: C_38  and  C_31 
REMARK   14  A    between atoms: C_31  and  O_32 
REMARK   15  A    between atoms: C_34  and  N_33 
REMARK   16  A    between atoms: N_46  and  C_42 
ROOT
HETATM    1  O   UNK N   1      26.542  12.705   2.144  0.00  0.00    -0.631 OA
HETATM    2  P   UNK N   1      28.012  13.195   2.248  0.00  0.00     0.401 P 
ENDROOT
BRANCH   2   3
HETATM    3  O   UNK N   1      28.028  14.926   1.998  0.00  0.00    -0.294 OA
BRANCH   3   4
HETATM    4  C   UNK N   1      26.708  15.354   2.151  0.00  0.00     0.218 C 
BRANCH   4   5
HETATM    5  C   UNK N   1      26.482  16.249   3.375  0.00  0.00     0.189 C 
HETATM    6  C   UNK N   1      25.379  15.735   4.274  0.00  0.00     0.021 C 
HETATM    7  C   UNK N   1      25.634  15.438   5.567  0.00  0.00     0.017 C 
HETATM    8  C   UNK N   1      27.029  15.563   6.114  0.00  0.00     0.171 C 
HETATM    9  N   UNK N   1      27.097  16.655   7.060  0.00  0.00    -0.369 N 
HETATM   10  C   UNK N   1      28.075  15.732   4.989  0.00  0.00     0.251 C 
HETATM   11  C   UNK N   1      28.365  17.076   7.525  0.00  0.00     0.143 A 
HETATM   12  H   UNK N   1      26.275  17.096   7.375  0.00  0.00     0.161 HD
HETATM   13  C   UNK N   1      28.514  17.785   8.718  0.00  0.00     0.289 A 
HETATM   14  C   UNK N   1      29.504  16.780   6.772  0.00  0.00     0.151 A 
HETATM   15  O   UNK N   1      27.543  18.062   9.400  0.00  0.00    -0.265 OA
HETATM   16  N   UNK N   1      29.766  18.158   9.129  0.00  0.00    -0.154 N 
HETATM   17  C   UNK N   1      30.863  17.851   8.384  0.00  0.00     0.680 A 
HETATM   18  H   UNK N   1      29.875  18.655   9.971  0.00  0.00     0.187 HD
HETATM   19  N   UNK N   1      32.142  18.244   8.822  0.00  0.00    -0.234 N 
HETATM   20  N   UNK N   1      30.728  17.172   7.212  0.00  0.00    -0.175 N 
HETATM   21  H   UNK N   1      32.255  18.648   9.713  0.00  0.00     0.174 HD
HETATM   22  H   UNK N   1      32.924  18.115   8.238  0.00  0.00     0.174 HD
ATOM     23  HN  UNK N   1      31.555  16.954   6.657  1.00  0.00     0.186 HD
HETATM   24  N   UNK N   1      29.371  16.112   5.526  0.00  0.00    -0.345 N 
HETATM   25  H   UNK N   1      30.183  15.900   5.010  0.00  0.00     0.163 HD
HETATM   26  O   UNK N   1      27.660  16.691   4.040  0.00  0.00    -0.352 OA
BRANCH   6  27
HETATM   27  S   UNK N   1      23.723  15.581   3.583  0.00  0.00    -0.143 SA
HETATM   28  H   UNK N   1      23.402  14.592   2.706  0.00  0.00     0.107 HD
ENDBRANCH   6  27
BRANCH   7  29
HETATM   29  S   UNK N   1      24.323  14.903   6.679  0.00  0.00    -0.144 SA
HETATM   30  H   UNK N   1      24.295  13.727   7.361  0.00  0.00     0.107 HD
ENDBRANCH   7  29
ENDBRANCH   4   5
ENDBRANCH   3   4
ENDBRANCH   2   3
BRANCH   2  31
HETATM   31  O   UNK N   1      28.701  12.620   3.755  0.00  0.00    -0.195 OA
BRANCH  31  32
HETATM   32  P   UNK N   1      30.450  12.710   3.704  0.00  0.00     0.401 P 
HETATM   33  O   UNK N   1      31.001  11.811   2.561  0.00  0.00    -0.631 OA
BRANCH  32  34
HETATM   34  O   UNK N   1      30.918  14.351   3.344  0.00  0.00    -0.294 OA
BRANCH  34  35
HETATM   35  C   UNK N   1      32.127  14.256   2.646  0.00  0.00     0.215 C 
BRANCH  35  36
HETATM   36  C   UNK N   1      33.284  14.959   3.372  0.00  0.00     0.180 C 
HETATM   37  O   UNK N   1      33.516  14.440   4.670  0.00  0.00    -0.353 OA
HETATM   38  C   UNK N   1      33.830  15.570   5.448  0.00  0.00     0.263 C 
HETATM   39  C   UNK N   1      32.947  16.682   4.942  0.00  0.00     0.198 C 
HETATM   40  C   UNK N   1      33.141  16.477   3.480  0.00  0.00     0.182 C 
BRANCH  38  41
HETATM   41  N   UNK N   1      33.716  15.365   6.906  0.00  0.00    -0.280 N 
HETATM   42  C   UNK N   1      32.663  14.700   7.518  0.00  0.00     0.330 A 
HETATM   43  N   UNK N   1      32.665  14.522   8.879  0.00  0.00    -0.295 N 
HETATM   44  O   UNK N   1      31.727  14.270   6.868  0.00  0.00    -0.246 OA
HETATM   45  C   UNK N   1      33.684  14.985   9.645  0.00  0.00     0.103 A 
ATOM     46  HN  UNK N   1      31.887  14.035   9.323  1.00  0.00     0.172 HD
HETATM   47  C   UNK N   1      34.746  15.656   9.054  0.00  0.00     0.065 A 
HETATM   48  C   UNK N   1      34.740  15.834   7.674  0.00  0.00     0.102 A 
BRANCH  45  49
HETATM   49  N   UNK N   1      33.670  14.782  11.039  0.00  0.00    -0.385 N 
HETATM   50  H   UNK N   1      34.477  14.892  11.592  0.00  0.00     0.157 HD
HETATM   51  H   UNK N   1      32.825  14.522  11.474  0.00  0.00     0.157 HD
ENDBRANCH  45  49
ENDBRANCH  38  41
BRANCH  39  52
HETATM   52  O   UNK N   1      33.423  17.936   5.325  0.00  0.00    -0.388 OA
HETATM   53  H   UNK N   1      33.992  18.039   6.104  0.00  0.00     0.210 HD
ENDBRANCH  39  52
BRANCH  40  54
HETATM   54  O   UNK N   1      32.075  17.002   2.744  0.00  0.00    -0.390 OA
HETATM   55  H   UNK N   1      31.409  17.691   2.896  0.00  0.00     0.210 HD
ENDBRANCH  40  54
ENDBRANCH  35  36
ENDBRANCH  34  35
ENDBRANCH  32  34
BRANCH  32  56
HETATM   56  O   UNK N   1      31.176  12.208   5.200  0.00  0.00    -0.307 OA
HETATM   57  H   UNK N   1      31.766  11.680   5.759  0.00  0.00     0.222 HD
ENDBRANCH  32  56
ENDBRANCH  31  32
ENDBRANCH   2  31
BRANCH   2  58
HETATM   58  O   UNK N   1      28.825  12.401   0.937  0.00  0.00    -0.307 OA
HETATM   59  H   UNK N   1      28.709  11.634   0.356  0.00  0.00     0.222 HD
ENDBRANCH   2  58
TORSDOF 16
ENDMDL
MODEL 9
REMARK VINA RESULT:      -8.1      2.885     13.121
REMARK  16 active torsions:
REMARK  status: ('A' for Active; 'I' for Inactive)
REMARK    1  A    between atoms: C_12  and  S_7 
REMARK    2  A    between atoms: C_11  and  S_8 
REMARK       I    between atoms: C_18  and  N_10 
REMARK    3  A    between atoms: C_13  and  C_30 
REMARK    4  A    between atoms: C_30  and  O_20 
REMARK    5  A    between atoms: O_20  and  P_22 
REMARK    6  A    between atoms: P_22  and  O_24 
REMARK    7  A    between atoms: P_22  and  O_23 
REMARK    8  A    between atoms: O_24  and  P_26 
REMARK    9  A    between atoms: P_26  and  O_32 
REMARK   10  A    between atoms: P_26  and  O_27 
REMARK   11  A    between atoms: C_35  and  O_28 
REMARK   12  A    between atoms: C_36  and  O_29 
REMARK   13  A    between atoms: C_38  and  C_31 
REMARK   14  A    between atoms: C_31  and  O_32 
REMARK   15  A    between atoms: C_34  and  N_33 
REMARK   16  A    between atoms: N_46  and  C_42 
ROOT
HETATM    1  O   UNK N   1      35.773  14.378   9.429  0.00  0.00    -0.631 OA
HETATM    2  P   UNK N   1      35.438  15.474  10.476  0.00  0.00     0.401 P 
ENDROOT
BRANCH   2   3
HETATM    3  O   UNK N   1      34.470  16.701   9.689  0.00  0.00    -0.294 OA
BRANCH   3   4
HETATM    4  C   UNK N   1      33.427  16.026   9.053  0.00  0.00     0.218 C 
BRANCH   4   5
HETATM    5  C   UNK N   1      32.837  16.780   7.856  0.00  0.00     0.189 C 
HETATM    6  C   UNK N   1      32.619  15.885   6.656  0.00  0.00     0.021 C 
HETATM    7  C   UNK N   1      31.386  15.744   6.123  0.00  0.00     0.017 C 
HETATM    8  C   UNK N   1      30.204  16.434   6.749  0.00  0.00     0.171 C 
HETATM    9  N   UNK N   1      29.719  17.480   5.878  0.00  0.00    -0.369 N 
HETATM   10  C   UNK N   1      30.539  16.985   8.154  0.00  0.00     0.251 C 
HETATM   11  C   UNK N   1      28.753  18.388   6.374  0.00  0.00     0.143 A 
HETATM   12  H   UNK N   1      30.055  17.560   4.956  0.00  0.00     0.161 HD
HETATM   13  C   UNK N   1      27.927  19.122   5.522  0.00  0.00     0.289 A 
HETATM   14  C   UNK N   1      28.621  18.560   7.753  0.00  0.00     0.151 A 
HETATM   15  O   UNK N   1      28.016  18.999   4.313  0.00  0.00    -0.265 OA
HETATM   16  N   UNK N   1      27.000  19.978   6.056  0.00  0.00    -0.154 N 
HETATM   17  C   UNK N   1      26.882  20.123   7.404  0.00  0.00     0.680 A 
HETATM   18  H   UNK N   1      26.413  20.495   5.458  0.00  0.00     0.187 HD
HETATM   19  N   UNK N   1      25.923  21.008   7.933  0.00  0.00    -0.234 N 
HETATM   20  N   UNK N   1      27.691  19.422   8.242  0.00  0.00    -0.175 N 
HETATM   21  H   UNK N   1      25.271  21.443   7.337  0.00  0.00     0.174 HD
HETATM   22  H   UNK N   1      25.904  21.193   8.900  0.00  0.00     0.174 HD
ATOM     23  HN  UNK N   1      27.600  19.544   9.251  1.00  0.00     0.186 HD
HETATM   24  N   UNK N   1      29.490  17.868   8.637  0.00  0.00    -0.345 N 
HETATM   25  H   UNK N   1      29.380  17.990   9.608  0.00  0.00     0.163 HD
HETATM   26  O   UNK N   1      31.771  17.674   8.156  0.00  0.00    -0.352 OA
BRANCH   6  27
HETATM   27  S   UNK N   1      34.051  15.061   5.940  0.00  0.00    -0.143 SA
HETATM   28  H   UNK N   1      35.179  15.745   5.607  0.00  0.00     0.107 HD
ENDBRANCH   6  27
BRANCH   7  29
HETATM   29  S   UNK N   1      31.113  14.751   4.647  0.00  0.00    -0.144 SA
HETATM   30  H   UNK N   1      31.862  13.683   4.262  0.00  0.00     0.107 HD
ENDBRANCH   7  29
ENDBRANCH   4   5
ENDBRANCH   3   4
ENDBRANCH   2   3
BRANCH   2  31
HETATM   31  O   UNK N   1      34.731  14.716  11.891  0.00  0.00    -0.195 OA
BRANCH  31  32
HETATM   32  P   UNK N   1      35.985  14.078  12.936  0.00  0.00     0.401 P 
HETATM   33  O   UNK N   1      36.503  15.188  13.893  0.00  0.00    -0.631 OA
BRANCH  32  34
HETATM   34  O   UNK N   1      35.301  12.816  13.928  0.00  0.00    -0.294 OA
BRANCH  34  35
HETATM   35  C   UNK N   1      36.371  11.983  14.270  0.00  0.00     0.215 C 
BRANCH  35  36
HETATM   36  C   UNK N   1      35.908  10.633  14.841  0.00  0.00     0.180 C 
HETATM   37  O   UNK N   1      35.080  10.772  15.982  0.00  0.00    -0.353 OA
HETATM   38  C   UNK N   1      35.473   9.719  16.829  0.00  0.00     0.263 C 
HETATM   39  C   UNK N   1      36.967   9.590  16.667  0.00  0.00     0.198 C 
HETATM   40  C   UNK N   1      37.041   9.664  15.182  0.00  0.00     0.182 C 
BRANCH  38  41
HETATM   41  N   UNK N   1      35.060   9.875  18.239  0.00  0.00    -0.280 N 
HETATM   42  C   UNK N   1      34.495   8.862  19.001  0.00  0.00     0.330 A 
HETATM   43  N   UNK N   1      34.183   9.089  20.317  0.00  0.00    -0.295 N 
HETATM   44  O   UNK N   1      34.267   7.766  18.521  0.00  0.00    -0.246 OA
HETATM   45  C   UNK N   1      34.417  10.294  20.896  0.00  0.00     0.103 A 
ATOM     46  HN  UNK N   1      33.766   8.341  20.871  1.00  0.00     0.172 HD
HETATM   47  C   UNK N   1      34.978  11.322  20.151  0.00  0.00     0.065 A 
HETATM   48  C   UNK N   1      35.294  11.087  18.816  0.00  0.00     0.102 A 
BRANCH  45  49
HETATM   49  N   UNK N   1      34.097  10.501  22.252  0.00  0.00    -0.385 N 
HETATM   50  H   UNK N   1      33.287  10.120  22.661  0.00  0.00     0.157 HD
HETATM   51  H   UNK N   1      34.702  11.044  22.806  0.00  0.00     0.157 HD
ENDBRANCH  45  49
ENDBRANCH  38  41
BRANCH  39  52
HETATM   52  O   UNK N   1      37.431   8.353  17.117  0.00  0.00    -0.388 OA
HETATM   53  H   UNK N   1      36.819   7.620  17.287  0.00  0.00     0.210 HD
ENDBRANCH  39  52
BRANCH  40  54
HETATM   54  O   UNK N   1      38.302  10.087  14.753  0.00  0.00    -0.390 OA
HETATM   55  H   UNK N   1      38.645  10.526  13.960  0.00  0.00     0.210 HD
ENDBRANCH  40  54
ENDBRANCH  35  36
ENDBRANCH  34  35
ENDBRANCH  32  34
BRANCH  32  56
HETATM   56  O   UNK N   1      37.331  13.451  12.035  0.00  0.00    -0.307 OA
HETATM   57  H   UNK N   1      38.239  13.449  11.695  0.00  0.00     0.222 HD
ENDBRANCH  32  56
ENDBRANCH  31  32
ENDBRANCH   2  31
BRANCH   2  58
HETATM   58  O   UNK N   1      36.980  16.133  10.921  0.00  0.00    -0.307 OA
HETATM   59  H   UNK N   1      37.832  16.350  10.513  0.00  0.00     0.222 HD
ENDBRANCH   2  58
TORSDOF 16
ENDMDL
