REMARK  5 active torsions:
REMARK  status: ('A' for Active; 'I' for Inactive)
REMARK    1  A    between atoms: C_2  and  N_1 
REMARK    2  A    between atoms: C_2  and  C_3 
REMARK    3  A    between atoms: C_2  and  C_5 
REMARK    4  A    between atoms: C_3  and  N_4 
REMARK    5  A    between atoms: C_5  and  O_6 
ROOT
HETATM    1  C   UNK N   1       1.699   0.747   0.000  0.00  0.00     0.199 C 
ENDROOT
BRANCH   1   2
HETATM    2  N   UNK N   1       3.045   0.207  -0.000  0.00  0.00    -0.416 N 
HETATM    3  H   UNK N   1       3.189  -0.803  -0.000  0.00  0.00     0.150 HD
HETATM    4  H   UNK N   1       3.848   0.836  -0.000  0.00  0.00     0.150 HD
ENDBRANCH   1   2
BRANCH   1   5
HETATM    5  C   UNK N   1       1.598   2.276  -0.000  0.00  0.00     0.264 C 
BRANCH   5   6
HETATM    6  N   UNK N   1       0.224   2.747   0.000  0.00  0.00    -0.077 N 
HETATM    7  H   UNK N   1       0.028   3.747   0.000  0.00  0.00     0.274 HD
HETATM    8  H   UNK N   1      -0.544   2.076   0.000  0.00  0.00     0.274 HD
HETATM    9  H   UNK N   1      -0.741   3.077   0.000  0.00  0.00     0.274 HD
ENDBRANCH   5   6
ENDBRANCH   1   5
BRANCH   1  10
HETATM   10  C   UNK N   1       0.570  -0.253  -0.000  0.00  0.00     0.164 C 
HETATM   11  O   UNK N   1      -0.589   0.109  -0.000  0.00  0.00    -0.648 OA
BRANCH  10  12
HETATM   12  O   UNK N   1       0.856  -1.573  -0.000  0.00  0.00    -0.775 OA
HETATM   13  H   UNK N   1       0.162  -2.203  -0.000  0.00  0.00     0.167 HD
ENDBRANCH  10  12
ENDBRANCH   1  10
TORSDOF 5
