MODEL 1
REMARK VINA RESULT:      -4.5      0.000      0.000
REMARK  2 active torsions:
REMARK  status: ('A' for Active; 'I' for Inactive)
REMARK    1  A    between atoms: C_1  and  C_4 
REMARK    2  A    between atoms: C_4  and  O_7 
ROOT
HETATM    1  C   UNK N   1      22.962  12.784  10.457  0.00  0.00     0.182 A 
HETATM    2  N   UNK N   1      22.043  13.586   9.725  0.00  0.00    -0.347 N 
HETATM    3  C   UNK N   1      22.198  11.917  11.455  0.00  0.00     0.045 A 
HETATM    4  C   UNK N   1      20.805  13.327  10.140  0.00  0.00     0.218 A 
HETATM    5  C   UNK N   1      20.719  12.302  11.223  0.00  0.00     0.105 A 
HETATM    6  O   UNK N   1      19.831  13.889   9.666  0.00  0.00    -0.274 OA
HETATM    7  H   UNK N   1      22.285  14.231   9.022  0.00  0.00     0.163 HD
ENDROOT
BRANCH   1   8
HETATM    8  C   UNK N   1      24.431  12.864  10.202  0.00  0.00     0.163 C 
HETATM    9  O   UNK N   1      24.846  13.061   9.072  0.00  0.00    -0.648 OA
BRANCH   8  10
HETATM   10  O   UNK N   1      25.302  12.719  11.219  0.00  0.00    -0.775 OA
HETATM   11  H   UNK N   1      26.142  12.332  11.065  0.00  0.00     0.167 HD
ENDBRANCH   8  10
ENDBRANCH   1   8
TORSDOF 2
ENDMDL
MODEL 2
REMARK VINA RESULT:      -4.5     12.471     13.222
REMARK  2 active torsions:
REMARK  status: ('A' for Active; 'I' for Inactive)
REMARK    1  A    between atoms: C_1  and  C_4 
REMARK    2  A    between atoms: C_4  and  O_7 
ROOT
HETATM    1  C   UNK N   1      34.598  17.134   9.135  0.00  0.00     0.182 A 
HETATM    2  N   UNK N   1      35.385  17.105  10.318  0.00  0.00    -0.347 N 
HETATM    3  C   UNK N   1      33.718  15.887   9.078  0.00  0.00     0.045 A 
HETATM    4  C   UNK N   1      35.108  15.999  11.005  0.00  0.00     0.218 A 
HETATM    5  C   UNK N   1      34.082  15.120  10.369  0.00  0.00     0.105 A 
HETATM    6  O   UNK N   1      35.654  15.739  12.064  0.00  0.00    -0.274 OA
HETATM    7  H   UNK N   1      36.034  17.795  10.587  0.00  0.00     0.163 HD
ENDROOT
BRANCH   1   8
HETATM    8  C   UNK N   1      34.700  18.266   8.165  0.00  0.00     0.163 C 
HETATM    9  O   UNK N   1      35.140  19.344   8.528  0.00  0.00    -0.648 OA
BRANCH   8  10
HETATM   10  O   UNK N   1      34.307  18.099   6.889  0.00  0.00    -0.775 OA
HETATM   11  H   UNK N   1      34.835  17.599   6.297  0.00  0.00     0.167 HD
ENDBRANCH   8  10
ENDBRANCH   1   8
TORSDOF 2
ENDMDL
MODEL 3
REMARK VINA RESULT:      -4.5     10.898     12.262
REMARK  2 active torsions:
REMARK  status: ('A' for Active; 'I' for Inactive)
REMARK    1  A    between atoms: C_1  and  C_4 
REMARK    2  A    between atoms: C_4  and  O_7 
ROOT
HETATM    1  C   UNK N   1      33.425  16.274   8.813  0.00  0.00     0.182 A 
HETATM    2  N   UNK N   1      34.285  17.282   9.331  0.00  0.00    -0.347 N 
HETATM    3  C   UNK N   1      33.092  16.589   7.356  0.00  0.00     0.045 A 
HETATM    4  C   UNK N   1      34.529  18.183   8.382  0.00  0.00     0.218 A 
HETATM    5  C   UNK N   1      33.858  17.902   7.078  0.00  0.00     0.105 A 
HETATM    6  O   UNK N   1      35.243  19.152   8.576  0.00  0.00    -0.274 OA
HETATM    7  H   UNK N   1      34.643  17.308  10.248  0.00  0.00     0.163 HD
ENDROOT
BRANCH   1   8
HETATM    8  C   UNK N   1      32.980  15.127   9.660  0.00  0.00     0.163 C 
HETATM    9  O   UNK N   1      32.487  14.139   9.141  0.00  0.00    -0.648 OA
BRANCH   8  10
HETATM   10  O   UNK N   1      33.122  15.180  10.998  0.00  0.00    -0.775 OA
HETATM   11  H   UNK N   1      33.195  14.388  11.493  0.00  0.00     0.167 HD
ENDBRANCH   8  10
ENDBRANCH   1   8
TORSDOF 2
ENDMDL
MODEL 4
REMARK VINA RESULT:      -4.5      9.871     10.797
REMARK  2 active torsions:
REMARK  status: ('A' for Active; 'I' for Inactive)
REMARK    1  A    between atoms: C_1  and  C_4 
REMARK    2  A    between atoms: C_4  and  O_7 
ROOT
HETATM    1  C   UNK N   1      20.536  19.054   2.339  0.00  0.00     0.182 A 
HETATM    2  N   UNK N   1      20.283  18.746   0.974  0.00  0.00    -0.347 N 
HETATM    3  C   UNK N   1      20.662  17.758   3.137  0.00  0.00     0.045 A 
HETATM    4  C   UNK N   1      20.235  17.425   0.821  0.00  0.00     0.218 A 
HETATM    5  C   UNK N   1      20.452  16.651   2.080  0.00  0.00     0.105 A 
HETATM    6  O   UNK N   1      20.030  16.904  -0.263  0.00  0.00    -0.274 OA
HETATM    7  H   UNK N   1      20.163  19.408   0.254  0.00  0.00     0.163 HD
ENDROOT
BRANCH   1   8
HETATM    8  C   UNK N   1      20.643  20.468   2.806  0.00  0.00     0.163 C 
HETATM    9  O   UNK N   1      20.304  20.765   3.939  0.00  0.00    -0.648 OA
BRANCH   8  10
HETATM   10  O   UNK N   1      21.115  21.419   1.978  0.00  0.00    -0.775 OA
HETATM   11  H   UNK N   1      20.886  21.405   1.069  0.00  0.00     0.167 HD
ENDBRANCH   8  10
ENDBRANCH   1   8
TORSDOF 2
ENDMDL
MODEL 5
REMARK VINA RESULT:      -4.5      9.645     10.746
REMARK  2 active torsions:
REMARK  status: ('A' for Active; 'I' for Inactive)
REMARK    1  A    between atoms: C_1  and  C_4 
REMARK    2  A    between atoms: C_4  and  O_7 
ROOT
HETATM    1  C   UNK N   1      20.378  18.601   2.538  0.00  0.00     0.182 A 
HETATM    2  N   UNK N   1      20.459  19.010   1.179  0.00  0.00    -0.347 N 
HETATM    3  C   UNK N   1      20.816  19.751   3.442  0.00  0.00     0.045 A 
HETATM    4  C   UNK N   1      20.892  20.267   1.122  0.00  0.00     0.218 A 
HETATM    5  C   UNK N   1      21.166  20.886   2.453  0.00  0.00     0.105 A 
HETATM    6  O   UNK N   1      21.048  20.852   0.063  0.00  0.00    -0.274 OA
HETATM    7  H   UNK N   1      20.230  18.450   0.402  0.00  0.00     0.163 HD
ENDROOT
BRANCH   1   8
HETATM    8  C   UNK N   1      19.919  17.229   2.908  0.00  0.00     0.163 C 
HETATM    9  O   UNK N   1      20.427  16.252   2.383  0.00  0.00    -0.648 OA
BRANCH   8  10
HETATM   10  O   UNK N   1      18.943  17.066   3.821  0.00  0.00    -0.775 OA
HETATM   11  H   UNK N   1      18.409  16.296   3.804  0.00  0.00     0.167 HD
ENDBRANCH   8  10
ENDBRANCH   1   8
TORSDOF 2
ENDMDL
MODEL 6
REMARK VINA RESULT:      -4.3      1.596      2.192
REMARK  2 active torsions:
REMARK  status: ('A' for Active; 'I' for Inactive)
REMARK    1  A    between atoms: C_1  and  C_4 
REMARK    2  A    between atoms: C_4  and  O_7 
ROOT
HETATM    1  C   UNK N   1      22.812  12.283  10.595  0.00  0.00     0.182 A 
HETATM    2  N   UNK N   1      21.629  13.071  10.576  0.00  0.00    -0.347 N 
HETATM    3  C   UNK N   1      23.101  11.764   9.188  0.00  0.00     0.045 A 
HETATM    4  C   UNK N   1      21.145  13.109   9.336  0.00  0.00     0.218 A 
HETATM    5  C   UNK N   1      21.947  12.341   8.337  0.00  0.00     0.105 A 
HETATM    6  O   UNK N   1      20.130  13.724   9.055  0.00  0.00    -0.274 OA
HETATM    7  H   UNK N   1      21.230  13.519  11.357  0.00  0.00     0.163 HD
ENDROOT
BRANCH   1   8
HETATM    8  C   UNK N   1      23.575  12.064  11.860  0.00  0.00     0.163 C 
HETATM    9  O   UNK N   1      22.983  11.795  12.893  0.00  0.00    -0.648 OA
BRANCH   8  10
HETATM   10  O   UNK N   1      24.917  12.162  11.865  0.00  0.00    -0.775 OA
HETATM   11  H   UNK N   1      25.334  12.863  12.328  0.00  0.00     0.167 HD
ENDBRANCH   8  10
ENDBRANCH   1   8
TORSDOF 2
ENDMDL
MODEL 7
REMARK VINA RESULT:      -4.3     12.997     14.353
REMARK  2 active torsions:
REMARK  status: ('A' for Active; 'I' for Inactive)
REMARK    1  A    between atoms: C_1  and  C_4 
REMARK    2  A    between atoms: C_4  and  O_7 
ROOT
HETATM    1  C   UNK N   1      35.813  13.986  13.551  0.00  0.00     0.182 A 
HETATM    2  N   UNK N   1      36.782  14.879  14.086  0.00  0.00    -0.347 N 
HETATM    3  C   UNK N   1      35.337  13.035  14.648  0.00  0.00     0.045 A 
HETATM    4  C   UNK N   1      36.970  14.605  15.375  0.00  0.00     0.218 A 
HETATM    5  C   UNK N   1      36.142  13.475  15.892  0.00  0.00     0.105 A 
HETATM    6  O   UNK N   1      37.756  15.233  16.063  0.00  0.00    -0.274 OA
HETATM    7  H   UNK N   1      37.241  15.588  13.581  0.00  0.00     0.163 HD
ENDROOT
BRANCH   1   8
HETATM    8  C   UNK N   1      35.400  14.061  12.118  0.00  0.00     0.163 C 
HETATM    9  O   UNK N   1      36.244  14.060  11.237  0.00  0.00    -0.648 OA
BRANCH   8  10
HETATM   10  O   UNK N   1      34.095  14.129  11.794  0.00  0.00    -0.775 OA
HETATM   11  H   UNK N   1      33.611  14.914  11.960  0.00  0.00     0.167 HD
ENDBRANCH   8  10
ENDBRANCH   1   8
TORSDOF 2
ENDMDL
MODEL 8
REMARK VINA RESULT:      -4.3     23.127     23.735
REMARK  2 active torsions:
REMARK  status: ('A' for Active; 'I' for Inactive)
REMARK    1  A    between atoms: C_1  and  C_4 
REMARK    2  A    between atoms: C_4  and  O_7 
ROOT
HETATM    1  C   UNK N   1      43.167  22.364   3.466  0.00  0.00     0.182 A 
HETATM    2  N   UNK N   1      42.746  23.562   2.826  0.00  0.00    -0.347 N 
HETATM    3  C   UNK N   1      42.380  21.183   2.903  0.00  0.00     0.045 A 
HETATM    4  C   UNK N   1      41.798  23.276   1.937  0.00  0.00     0.218 A 
HETATM    5  C   UNK N   1      41.445  21.827   1.855  0.00  0.00     0.105 A 
HETATM    6  O   UNK N   1      41.270  24.137   1.252  0.00  0.00    -0.274 OA
HETATM    7  H   UNK N   1      43.101  24.461   3.011  0.00  0.00     0.163 HD
ENDROOT
BRANCH   1   8
HETATM    8  C   UNK N   1      44.229  22.381   4.517  0.00  0.00     0.163 C 
HETATM    9  O   UNK N   1      43.937  22.623   5.676  0.00  0.00    -0.648 OA
BRANCH   8  10
HETATM   10  O   UNK N   1      45.509  22.127   4.188  0.00  0.00    -0.775 OA
HETATM   11  H   UNK N   1      45.856  21.262   4.288  0.00  0.00     0.167 HD
ENDBRANCH   8  10
ENDBRANCH   1   8
TORSDOF 2
ENDMDL
MODEL 9
REMARK VINA RESULT:      -4.2      2.264      2.512
REMARK  2 active torsions:
REMARK  status: ('A' for Active; 'I' for Inactive)
REMARK    1  A    between atoms: C_1  and  C_4 
REMARK    2  A    between atoms: C_4  and  O_7 
ROOT
HETATM    1  C   UNK N   1      23.858  12.795  10.471  0.00  0.00     0.182 A 
HETATM    2  N   UNK N   1      24.012  12.321  11.802  0.00  0.00    -0.347 N 
HETATM    3  C   UNK N   1      22.394  12.670  10.053  0.00  0.00     0.045 A 
HETATM    4  C   UNK N   1      22.832  11.917  12.266  0.00  0.00     0.218 A 
HETATM    5  C   UNK N   1      21.705  12.066  11.297  0.00  0.00     0.105 A 
HETATM    6  O   UNK N   1      22.697  11.466  13.391  0.00  0.00    -0.274 OA
HETATM    7  H   UNK N   1      24.860  12.296  12.302  0.00  0.00     0.163 HD
ENDROOT
BRANCH   1   8
HETATM    8  C   UNK N   1      25.023  13.314   9.694  0.00  0.00     0.163 C 
HETATM    9  O   UNK N   1      25.055  13.187   8.481  0.00  0.00    -0.648 OA
BRANCH   8  10
HETATM   10  O   UNK N   1      26.041  13.923  10.330  0.00  0.00    -0.775 OA
HETATM   11  H   UNK N   1      25.927  14.232  11.208  0.00  0.00     0.167 HD
ENDBRANCH   8  10
ENDBRANCH   1   8
TORSDOF 2
ENDMDL
