REMARK  9 active torsions:
REMARK  status: ('A' for Active; 'I' for Inactive)
REMARK    1  A    between atoms: N_2  and  C_4 
REMARK    2  A    between atoms: C_4  and  C_5 
REMARK    3  A    between atoms: C_5  and  O_6 
REMARK    4  A    between atoms: P_7  and  O_6 
REMARK    5  A    between atoms: P_7  and  O_8 
REMARK    6  A    between atoms: P_7  and  O_10 
REMARK    7  A    between atoms: O_10  and  P_11 
REMARK    8  A    between atoms: P_11  and  O_12 
REMARK    9  A    between atoms: P_11  and  O_13 
ROOT
HETATM    1  P   UNK N   1       6.575  -2.434  -0.257  0.00  0.00     0.401 P 
HETATM    2  O   UNK N   1       6.608  -1.003   0.342  0.00  0.00    -0.631 OA
ENDROOT
BRANCH   1   3
HETATM    3  O   UNK N   1       5.105  -2.355   0.666  0.00  0.00    -0.295 OA
BRANCH   3   4
HETATM    4  C   UNK N   1       4.069  -2.538  -0.251  0.00  0.00     0.211 C 
BRANCH   4   5
HETATM    5  C   UNK N   1       2.804  -1.903   0.302  0.00  0.00     0.298 C 
BRANCH   5   6
HETATM    6  N   UNK N   1       1.644  -2.299  -0.481  0.00  0.00     0.082 N 
HETATM    7  C   UNK N   1       0.563  -1.402  -0.116  0.00  0.00     0.309 C 
HETATM    8  C   UNK N   1       1.245  -3.629  -0.047  0.00  0.00     0.309 C 
ENDBRANCH   5   6
ENDBRANCH   4   5
ENDBRANCH   3   4
ENDBRANCH   1   3
BRANCH   1   9
HETATM    9  O   UNK N   1       6.578  -3.641   0.991  0.00  0.00    -0.307 OA
HETATM   10  H   UNK N   1       5.995  -3.980   1.688  0.00  0.00     0.222 HD
ENDBRANCH   1   9
BRANCH   1  11
HETATM   11  O   UNK N   1       8.095  -2.420   0.593  0.00  0.00    -0.195 OA
BRANCH  11  12
HETATM   12  P   UNK N   1       9.321  -2.254  -0.631  0.00  0.00     0.399 P 
HETATM   13  O   UNK N   1       9.535  -0.987   0.238  0.00  0.00    -0.631 OA
BRANCH  12  14
HETATM   14  O   UNK N   1      10.998  -2.349  -0.197  0.00  0.00    -0.307 OA
HETATM   15  H   UNK N   1      11.421  -3.187   0.046  0.00  0.00     0.222 HD
ENDBRANCH  12  14
BRANCH  12  16
HETATM   16  O   UNK N   1       9.627  -3.684   0.305  0.00  0.00    -0.307 OA
HETATM   17  H   UNK N   1       9.021  -4.231   0.828  0.00  0.00     0.222 HD
ENDBRANCH  12  16
ENDBRANCH  11  12
ENDBRANCH   1  11
TORSDOF 9
