MODEL 1
REMARK VINA RESULT:      -6.6      0.000      0.000
REMARK  7 active torsions:
REMARK  status: ('A' for Active; 'I' for Inactive)
REMARK    1  A    between atoms: C_2  and  N_4 
REMARK    2  A    between atoms: N_4  and  C_5 
REMARK    3  A    between atoms: C_5  and  C_6 
REMARK    4  A    between atoms: C_6  and  O_7 
REMARK    5  A    between atoms: C_6  and  C_8 
REMARK    6  A    between atoms: C_8  and  O_9 
REMARK    7  A    between atoms: O_9  and  C_10 
ROOT
HETATM    1  O   UNK N   1      36.827  13.535  12.841  0.00  0.00    -0.348 OA
ENDROOT
BRANCH   1   2
HETATM    2  C   UNK N   1      36.276  13.954  11.648  0.00  0.00     0.209 C 
BRANCH   2   3
HETATM    3  C   UNK N   1      36.005  15.442  11.612  0.00  0.00     0.159 C 
BRANCH   3   4
HETATM    4  C   UNK N   1      34.707  15.734  10.890  0.00  0.00     0.147 C 
BRANCH   4   5
HETATM    5  N   UNK N   1      34.763  17.060  10.297  0.00  0.00    -0.415 N 
HETATM    6  H   UNK N   1      34.988  17.928  10.785  0.00  0.00     0.153 HD
BRANCH   5   7
HETATM    7  C   UNK N   1      34.443  16.932   8.882  0.00  0.00     0.068 C 
HETATM    8  C   UNK N   1      34.471  18.293   8.199  0.00  0.00     0.031 C 
HETATM    9  C   UNK N   1      33.053  16.350   8.740  0.00  0.00     0.031 C 
ENDBRANCH   5   7
ENDBRANCH   4   5
ENDBRANCH   3   4
BRANCH   3  10
HETATM   10  O   UNK N   1      37.050  16.053  10.921  0.00  0.00    -0.392 OA
HETATM   11  H   UNK N   1      37.823  16.404  11.390  0.00  0.00     0.210 HD
ENDBRANCH   3  10
ENDBRANCH   2   3
ENDBRANCH   1   2
BRANCH   1  12
HETATM   12  C   UNK N   1      36.094  13.246  13.950  0.00  0.00     0.080 A 
HETATM   13  C   UNK N   1      35.139  12.222  13.852  0.00  0.00     0.037 A 
HETATM   14  C   UNK N   1      34.366  11.849  14.952  0.00  0.00     0.004 A 
HETATM   15  C   UNK N   1      34.527  12.493  16.177  0.00  0.00     0.012 A 
HETATM   16  C   UNK N   1      35.455  13.528  16.308  0.00  0.00    -0.023 A 
HETATM   17  C   UNK N   1      36.243  13.919  15.200  0.00  0.00     0.007 A 
HETATM   18  C   UNK N   1      35.595  14.174  17.540  0.00  0.00     0.012 A 
HETATM   19  C   UNK N   1      37.154  14.981  15.371  0.00  0.00     0.015 A 
HETATM   20  C   UNK N   1      37.286  15.625  16.601  0.00  0.00     0.001 A 
HETATM   21  C   UNK N   1      36.511  15.220  17.686  0.00  0.00     0.001 A 
ENDBRANCH   1  12
TORSDOF 7
ENDMDL
MODEL 2
REMARK VINA RESULT:      -6.6      7.500     10.280
REMARK  7 active torsions:
REMARK  status: ('A' for Active; 'I' for Inactive)
REMARK    1  A    between atoms: C_2  and  N_4 
REMARK    2  A    between atoms: N_4  and  C_5 
REMARK    3  A    between atoms: C_5  and  C_6 
REMARK    4  A    between atoms: C_6  and  O_7 
REMARK    5  A    between atoms: C_6  and  C_8 
REMARK    6  A    between atoms: C_8  and  O_9 
REMARK    7  A    between atoms: O_9  and  C_10 
ROOT
HETATM    1  O   UNK N   1      30.524  17.217   8.652  0.00  0.00    -0.348 OA
ENDROOT
BRANCH   1   2
HETATM    2  C   UNK N   1      29.696  18.266   8.996  0.00  0.00     0.209 C 
BRANCH   2   3
HETATM    3  C   UNK N   1      28.319  18.158   8.379  0.00  0.00     0.159 C 
BRANCH   3   4
HETATM    4  C   UNK N   1      28.063  19.315   7.435  0.00  0.00     0.147 C 
BRANCH   4   5
HETATM    5  N   UNK N   1      27.046  18.940   6.465  0.00  0.00    -0.415 N 
HETATM    6  H   UNK N   1      26.571  18.038   6.410  0.00  0.00     0.153 HD
BRANCH   5   7
HETATM    7  C   UNK N   1      26.824  20.079   5.586  0.00  0.00     0.068 C 
HETATM    8  C   UNK N   1      27.626  19.931   4.300  0.00  0.00     0.031 C 
HETATM    9  C   UNK N   1      27.271  21.342   6.290  0.00  0.00     0.031 C 
ENDBRANCH   5   7
ENDBRANCH   4   5
ENDBRANCH   3   4
BRANCH   3  10
HETATM   10  O   UNK N   1      27.381  18.204   9.408  0.00  0.00    -0.392 OA
HETATM   11  H   UNK N   1      27.487  18.813  10.156  0.00  0.00     0.210 HD
ENDBRANCH   3  10
ENDBRANCH   2   3
ENDBRANCH   1   2
BRANCH   1  12
HETATM   12  C   UNK N   1      31.645  17.359   7.895  0.00  0.00     0.080 A 
HETATM   13  C   UNK N   1      32.856  17.602   8.563  0.00  0.00     0.037 A 
HETATM   14  C   UNK N   1      34.054  17.732   7.860  0.00  0.00     0.004 A 
HETATM   15  C   UNK N   1      34.071  17.627   6.471  0.00  0.00     0.012 A 
HETATM   16  C   UNK N   1      32.883  17.404   5.770  0.00  0.00    -0.023 A 
HETATM   17  C   UNK N   1      31.661  17.272   6.470  0.00  0.00     0.007 A 
HETATM   18  C   UNK N   1      32.914  17.314   4.376  0.00  0.00     0.012 A 
HETATM   19  C   UNK N   1      30.484  17.065   5.723  0.00  0.00     0.015 A 
HETATM   20  C   UNK N   1      30.520  16.983   4.332  0.00  0.00     0.001 A 
HETATM   21  C   UNK N   1      31.733  17.102   3.658  0.00  0.00     0.001 A 
ENDBRANCH   1  12
TORSDOF 7
ENDMDL
MODEL 3
REMARK VINA RESULT:      -6.5      1.771      2.491
REMARK  7 active torsions:
REMARK  status: ('A' for Active; 'I' for Inactive)
REMARK    1  A    between atoms: C_2  and  N_4 
REMARK    2  A    between atoms: N_4  and  C_5 
REMARK    3  A    between atoms: C_5  and  C_6 
REMARK    4  A    between atoms: C_6  and  O_7 
REMARK    5  A    between atoms: C_6  and  C_8 
REMARK    6  A    between atoms: C_8  and  O_9 
REMARK    7  A    between atoms: O_9  and  C_10 
ROOT
HETATM    1  O   UNK N   1      34.769  13.417  14.413  0.00  0.00    -0.348 OA
ENDROOT
BRANCH   1   2
HETATM    2  C   UNK N   1      35.835  13.909  13.688  0.00  0.00     0.209 C 
BRANCH   2   3
HETATM    3  C   UNK N   1      35.521  14.079  12.218  0.00  0.00     0.159 C 
BRANCH   3   4
HETATM    4  C   UNK N   1      35.626  15.534  11.812  0.00  0.00     0.147 C 
BRANCH   4   5
HETATM    5  N   UNK N   1      34.522  15.878  10.929  0.00  0.00    -0.415 N 
HETATM    6  H   UNK N   1      33.538  15.937  11.193  0.00  0.00     0.153 HD
BRANCH   5   7
HETATM    7  C   UNK N   1      35.069  16.122   9.602  0.00  0.00     0.068 C 
HETATM    8  C   UNK N   1      34.450  17.370   8.987  0.00  0.00     0.031 C 
HETATM    9  C   UNK N   1      34.753  14.940   8.712  0.00  0.00     0.031 C 
ENDBRANCH   5   7
ENDBRANCH   4   5
ENDBRANCH   3   4
BRANCH   3  10
HETATM   10  O   UNK N   1      34.214  13.647  12.004  0.00  0.00    -0.392 OA
HETATM   11  H   UNK N   1      33.750  13.108  12.664  0.00  0.00     0.210 HD
ENDBRANCH   3  10
ENDBRANCH   2   3
ENDBRANCH   1   2
BRANCH   1  12
HETATM   12  C   UNK N   1      34.833  12.298  15.182  0.00  0.00     0.080 A 
HETATM   13  C   UNK N   1      34.734  11.056  14.536  0.00  0.00     0.037 A 
HETATM   14  C   UNK N   1      34.818   9.861  15.252  0.00  0.00     0.004 A 
HETATM   15  C   UNK N   1      34.999   9.879  16.634  0.00  0.00     0.012 A 
HETATM   16  C   UNK N   1      35.085  11.096  17.313  0.00  0.00    -0.023 A 
HETATM   17  C   UNK N   1      34.998  12.315  16.600  0.00  0.00     0.007 A 
HETATM   18  C   UNK N   1      35.253  11.098  18.701  0.00  0.00     0.012 A 
HETATM   19  C   UNK N   1      35.071  13.520  17.328  0.00  0.00     0.015 A 
HETATM   20  C   UNK N   1      35.233  13.516  18.713  0.00  0.00     0.001 A 
HETATM   21  C   UNK N   1      35.329  12.307  19.399  0.00  0.00     0.001 A 
ENDBRANCH   1  12
TORSDOF 7
ENDMDL
MODEL 4
REMARK VINA RESULT:      -6.3      1.549      2.166
REMARK  7 active torsions:
REMARK  status: ('A' for Active; 'I' for Inactive)
REMARK    1  A    between atoms: C_2  and  N_4 
REMARK    2  A    between atoms: N_4  and  C_5 
REMARK    3  A    between atoms: C_5  and  C_6 
REMARK    4  A    between atoms: C_6  and  O_7 
REMARK    5  A    between atoms: C_6  and  C_8 
REMARK    6  A    between atoms: C_8  and  O_9 
REMARK    7  A    between atoms: O_9  and  C_10 
ROOT
HETATM    1  O   UNK N   1      36.340  14.022  13.440  0.00  0.00    -0.348 OA
ENDROOT
BRANCH   1   2
HETATM    2  C   UNK N   1      36.094  14.176  12.091  0.00  0.00     0.209 C 
BRANCH   2   3
HETATM    3  C   UNK N   1      35.944  15.624  11.680  0.00  0.00     0.159 C 
BRANCH   3   4
HETATM    4  C   UNK N   1      34.722  15.810  10.806  0.00  0.00     0.147 C 
BRANCH   4   5
HETATM    5  N   UNK N   1      34.777  17.109  10.153  0.00  0.00    -0.415 N 
HETATM    6  H   UNK N   1      35.077  17.984  10.583  0.00  0.00     0.153 HD
BRANCH   5   7
HETATM    7  C   UNK N   1      34.330  16.939   8.778  0.00  0.00     0.068 C 
HETATM    8  C   UNK N   1      33.964  18.282   8.162  0.00  0.00     0.031 C 
HETATM    9  C   UNK N   1      33.104  16.052   8.763  0.00  0.00     0.031 C 
ENDBRANCH   5   7
ENDBRANCH   4   5
ENDBRANCH   3   4
BRANCH   3  10
HETATM   10  O   UNK N   1      37.076  15.984  10.950  0.00  0.00    -0.392 OA
HETATM   11  H   UNK N   1      37.199  16.891  10.631  0.00  0.00     0.210 HD
ENDBRANCH   3  10
ENDBRANCH   2   3
ENDBRANCH   1   2
BRANCH   1  12
HETATM   12  C   UNK N   1      36.618  12.825  14.023  0.00  0.00     0.080 A 
HETATM   13  C   UNK N   1      37.379  11.903  13.288  0.00  0.00     0.037 A 
HETATM   14  C   UNK N   1      37.730  10.665  13.828  0.00  0.00     0.004 A 
HETATM   15  C   UNK N   1      37.324  10.316  15.115  0.00  0.00     0.012 A 
HETATM   16  C   UNK N   1      36.550  11.202  15.869  0.00  0.00    -0.023 A 
HETATM   17  C   UNK N   1      36.186  12.459  15.334  0.00  0.00     0.007 A 
HETATM   18  C   UNK N   1      36.139  10.832  17.154  0.00  0.00     0.012 A 
HETATM   19  C   UNK N   1      35.389  13.314  16.122  0.00  0.00     0.015 A 
HETATM   20  C   UNK N   1      34.977  12.938  17.400  0.00  0.00     0.001 A 
HETATM   21  C   UNK N   1      35.355  11.701  17.918  0.00  0.00     0.001 A 
ENDBRANCH   1  12
TORSDOF 7
ENDMDL
MODEL 5
REMARK VINA RESULT:      -6.3      2.920      3.729
REMARK  7 active torsions:
REMARK  status: ('A' for Active; 'I' for Inactive)
REMARK    1  A    between atoms: C_2  and  N_4 
REMARK    2  A    between atoms: N_4  and  C_5 
REMARK    3  A    between atoms: C_5  and  C_6 
REMARK    4  A    between atoms: C_6  and  O_7 
REMARK    5  A    between atoms: C_6  and  C_8 
REMARK    6  A    between atoms: C_8  and  O_9 
REMARK    7  A    between atoms: O_9  and  C_10 
ROOT
HETATM    1  O   UNK N   1      34.593  12.893  14.446  0.00  0.00    -0.348 OA
ENDROOT
BRANCH   1   2
HETATM    2  C   UNK N   1      35.595  13.483  13.704  0.00  0.00     0.209 C 
BRANCH   2   3
HETATM    3  C   UNK N   1      35.364  13.381  12.212  0.00  0.00     0.159 C 
BRANCH   3   4
HETATM    4  C   UNK N   1      36.488  14.049  11.448  0.00  0.00     0.147 C 
BRANCH   4   5
HETATM    5  N   UNK N   1      37.740  13.358  11.712  0.00  0.00    -0.415 N 
HETATM    6  H   UNK N   1      38.117  13.131  12.632  0.00  0.00     0.153 HD
BRANCH   5   7
HETATM    7  C   UNK N   1      38.358  13.046  10.431  0.00  0.00     0.068 C 
HETATM    8  C   UNK N   1      37.754  13.895   9.321  0.00  0.00     0.031 C 
HETATM    9  C   UNK N   1      38.117  11.587  10.108  0.00  0.00     0.031 C 
ENDBRANCH   5   7
ENDBRANCH   4   5
ENDBRANCH   3   4
BRANCH   3  10
HETATM   10  O   UNK N   1      34.170  14.035  11.916  0.00  0.00    -0.392 OA
HETATM   11  H   UNK N   1      34.076  14.566  11.110  0.00  0.00     0.210 HD
ENDBRANCH   3  10
ENDBRANCH   2   3
ENDBRANCH   1   2
BRANCH   1  12
HETATM   12  C   UNK N   1      34.809  11.893  15.342  0.00  0.00     0.080 A 
HETATM   13  C   UNK N   1      34.850  10.577  14.854  0.00  0.00     0.037 A 
HETATM   14  C   UNK N   1      35.095   9.499  15.706  0.00  0.00     0.004 A 
HETATM   15  C   UNK N   1      35.299   9.710  17.068  0.00  0.00     0.012 A 
HETATM   16  C   UNK N   1      35.248  11.003  17.593  0.00  0.00    -0.023 A 
HETATM   17  C   UNK N   1      34.999  12.105  16.741  0.00  0.00     0.007 A 
HETATM   18  C   UNK N   1      35.442  11.197  18.964  0.00  0.00     0.012 A 
HETATM   19  C   UNK N   1      34.937  13.391  17.315  0.00  0.00     0.015 A 
HETATM   20  C   UNK N   1      35.126  13.577  18.684  0.00  0.00     0.001 A 
HETATM   21  C   UNK N   1      35.382  12.483  19.508  0.00  0.00     0.001 A 
ENDBRANCH   1  12
TORSDOF 7
ENDMDL
MODEL 6
REMARK VINA RESULT:      -6.2      8.427     10.704
REMARK  7 active torsions:
REMARK  status: ('A' for Active; 'I' for Inactive)
REMARK    1  A    between atoms: C_2  and  N_4 
REMARK    2  A    between atoms: N_4  and  C_5 
REMARK    3  A    between atoms: C_5  and  C_6 
REMARK    4  A    between atoms: C_6  and  O_7 
REMARK    5  A    between atoms: C_6  and  C_8 
REMARK    6  A    between atoms: C_8  and  O_9 
REMARK    7  A    between atoms: O_9  and  C_10 
ROOT
HETATM    1  O   UNK N   1      28.033  16.907   6.051  0.00  0.00    -0.348 OA
ENDROOT
BRANCH   1   2
HETATM    2  C   UNK N   1      26.864  16.184   6.172  0.00  0.00     0.209 C 
BRANCH   2   3
HETATM    3  C   UNK N   1      25.784  16.645   5.218  0.00  0.00     0.159 C 
BRANCH   3   4
HETATM    4  C   UNK N   1      26.113  18.012   4.655  0.00  0.00     0.147 C 
BRANCH   4   5
HETATM    5  N   UNK N   1      25.790  19.038   5.634  0.00  0.00    -0.415 N 
HETATM    6  H   UNK N   1      25.165  18.929   6.434  0.00  0.00     0.153 HD
BRANCH   5   7
HETATM    7  C   UNK N   1      26.517  20.246   5.274  0.00  0.00     0.068 C 
HETATM    8  C   UNK N   1      27.728  19.910   4.413  0.00  0.00     0.031 C 
HETATM    9  C   UNK N   1      26.999  20.929   6.536  0.00  0.00     0.031 C 
ENDBRANCH   5   7
ENDBRANCH   4   5
ENDBRANCH   3   4
BRANCH   3  10
HETATM   10  O   UNK N   1      24.589  16.731   5.931  0.00  0.00    -0.392 OA
HETATM   11  H   UNK N   1      23.782  17.074   5.516  0.00  0.00     0.210 HD
ENDBRANCH   3  10
ENDBRANCH   2   3
ENDBRANCH   1   2
BRANCH   1  12
HETATM   12  C   UNK N   1      28.752  17.359   7.114  0.00  0.00     0.080 A 
HETATM   13  C   UNK N   1      28.043  17.781   8.249  0.00  0.00     0.037 A 
HETATM   14  C   UNK N   1      28.709  18.232   9.389  0.00  0.00     0.004 A 
HETATM   15  C   UNK N   1      30.102  18.277   9.421  0.00  0.00     0.012 A 
HETATM   16  C   UNK N   1      30.841  17.882   8.303  0.00  0.00    -0.023 A 
HETATM   17  C   UNK N   1      30.178  17.424   7.140  0.00  0.00     0.007 A 
HETATM   18  C   UNK N   1      32.237  17.945   8.345  0.00  0.00     0.012 A 
HETATM   19  C   UNK N   1      30.962  17.053   6.029  0.00  0.00     0.015 A 
HETATM   20  C   UNK N   1      32.353  17.124   6.074  0.00  0.00     0.001 A 
HETATM   21  C   UNK N   1      32.991  17.564   7.231  0.00  0.00     0.001 A 
ENDBRANCH   1  12
TORSDOF 7
ENDMDL
MODEL 7
REMARK VINA RESULT:      -6.1      3.003      4.720
REMARK  7 active torsions:
REMARK  status: ('A' for Active; 'I' for Inactive)
REMARK    1  A    between atoms: C_2  and  N_4 
REMARK    2  A    between atoms: N_4  and  C_5 
REMARK    3  A    between atoms: C_5  and  C_6 
REMARK    4  A    between atoms: C_6  and  O_7 
REMARK    5  A    between atoms: C_6  and  C_8 
REMARK    6  A    between atoms: C_8  and  O_9 
REMARK    7  A    between atoms: O_9  and  C_10 
ROOT
HETATM    1  O   UNK N   1      36.990  12.998  14.232  0.00  0.00    -0.348 OA
ENDROOT
BRANCH   1   2
HETATM    2  C   UNK N   1      36.406  13.995  13.478  0.00  0.00     0.209 C 
BRANCH   2   3
HETATM    3  C   UNK N   1      36.544  13.767  11.989  0.00  0.00     0.159 C 
BRANCH   3   4
HETATM    4  C   UNK N   1      35.535  12.745  11.507  0.00  0.00     0.147 C 
BRANCH   4   5
HETATM    5  N   UNK N   1      34.600  12.436  12.578  0.00  0.00    -0.415 N 
HETATM    6  H   UNK N   1      34.216  13.101  13.250  0.00  0.00     0.153 HD
BRANCH   5   7
HETATM    7  C   UNK N   1      34.309  11.011  12.521  0.00  0.00     0.068 C 
HETATM    8  C   UNK N   1      33.792  10.513  13.863  0.00  0.00     0.031 C 
HETATM    9  C   UNK N   1      35.580  10.260  12.186  0.00  0.00     0.031 C 
ENDBRANCH   5   7
ENDBRANCH   4   5
ENDBRANCH   3   4
BRANCH   3  10
HETATM   10  O   UNK N   1      37.826  13.280  11.745  0.00  0.00    -0.392 OA
HETATM   11  H   UNK N   1      38.547  13.876  11.488  0.00  0.00     0.210 HD
ENDBRANCH   3  10
ENDBRANCH   2   3
ENDBRANCH   1   2
BRANCH   1  12
HETATM   12  C   UNK N   1      36.484  12.551  15.413  0.00  0.00     0.080 A 
HETATM   13  C   UNK N   1      35.733  13.454  16.183  0.00  0.00     0.037 A 
HETATM   14  C   UNK N   1      35.157  13.063  17.393  0.00  0.00     0.004 A 
HETATM   15  C   UNK N   1      35.322  11.763  17.865  0.00  0.00     0.012 A 
HETATM   16  C   UNK N   1      36.077  10.842  17.134  0.00  0.00    -0.023 A 
HETATM   17  C   UNK N   1      36.668  11.225  15.907  0.00  0.00     0.007 A 
HETATM   18  C   UNK N   1      36.244   9.545  17.626  0.00  0.00     0.012 A 
HETATM   19  C   UNK N   1      37.437  10.270  15.211  0.00  0.00     0.015 A 
HETATM   20  C   UNK N   1      37.605   8.979  15.710  0.00  0.00     0.001 A 
HETATM   21  C   UNK N   1      37.005   8.614  16.913  0.00  0.00     0.001 A 
ENDBRANCH   1  12
TORSDOF 7
ENDMDL
MODEL 8
REMARK VINA RESULT:      -5.9      7.489      9.747
REMARK  7 active torsions:
REMARK  status: ('A' for Active; 'I' for Inactive)
REMARK    1  A    between atoms: C_2  and  N_4 
REMARK    2  A    between atoms: N_4  and  C_5 
REMARK    3  A    between atoms: C_5  and  C_6 
REMARK    4  A    between atoms: C_6  and  O_7 
REMARK    5  A    between atoms: C_6  and  C_8 
REMARK    6  A    between atoms: C_8  and  O_9 
REMARK    7  A    between atoms: O_9  and  C_10 
ROOT
HETATM    1  O   UNK N   1      31.594  16.139   7.293  0.00  0.00    -0.348 OA
ENDROOT
BRANCH   1   2
HETATM    2  C   UNK N   1      32.924  16.450   7.488  0.00  0.00     0.209 C 
BRANCH   2   3
HETATM    3  C   UNK N   1      33.350  17.702   6.753  0.00  0.00     0.159 C 
BRANCH   3   4
HETATM    4  C   UNK N   1      33.430  17.449   5.262  0.00  0.00     0.147 C 
BRANCH   4   5
HETATM    5  N   UNK N   1      33.628  16.029   5.016  0.00  0.00    -0.415 N 
HETATM    6  H   UNK N   1      34.094  15.370   5.641  0.00  0.00     0.153 HD
BRANCH   5   7
HETATM    7  C   UNK N   1      33.043  15.713   3.721  0.00  0.00     0.068 C 
HETATM    8  C   UNK N   1      32.489  16.968   3.060  0.00  0.00     0.031 C 
HETATM    9  C   UNK N   1      31.908  14.731   3.917  0.00  0.00     0.031 C 
ENDBRANCH   5   7
ENDBRANCH   4   5
ENDBRANCH   3   4
BRANCH   3  10
HETATM   10  O   UNK N   1      34.615  18.062   7.215  0.00  0.00    -0.392 OA
HETATM   11  H   UNK N   1      34.766  18.917   7.646  0.00  0.00     0.210 HD
ENDBRANCH   3  10
ENDBRANCH   2   3
ENDBRANCH   1   2
BRANCH   1  12
HETATM   12  C   UNK N   1      30.566  16.931   7.700  0.00  0.00     0.080 A 
HETATM   13  C   UNK N   1      30.424  17.156   9.079  0.00  0.00     0.037 A 
HETATM   14  C   UNK N   1      29.412  17.979   9.574  0.00  0.00     0.004 A 
HETATM   15  C   UNK N   1      28.515  18.595   8.703  0.00  0.00     0.012 A 
HETATM   16  C   UNK N   1      28.615  18.381   7.327  0.00  0.00    -0.023 A 
HETATM   17  C   UNK N   1      29.635  17.547   6.811  0.00  0.00     0.007 A 
HETATM   18  C   UNK N   1      27.700  18.995   6.467  0.00  0.00     0.012 A 
HETATM   19  C   UNK N   1      29.688  17.344   5.417  0.00  0.00     0.015 A 
HETATM   20  C   UNK N   1      28.769  17.954   4.565  0.00  0.00     0.001 A 
HETATM   21  C   UNK N   1      27.779  18.783   5.088  0.00  0.00     0.001 A 
ENDBRANCH   1  12
TORSDOF 7
ENDMDL
MODEL 9
REMARK VINA RESULT:      -5.8      2.778      4.158
REMARK  7 active torsions:
REMARK  status: ('A' for Active; 'I' for Inactive)
REMARK    1  A    between atoms: C_2  and  N_4 
REMARK    2  A    between atoms: N_4  and  C_5 
REMARK    3  A    between atoms: C_5  and  C_6 
REMARK    4  A    between atoms: C_6  and  O_7 
REMARK    5  A    between atoms: C_6  and  C_8 
REMARK    6  A    between atoms: C_8  and  O_9 
REMARK    7  A    between atoms: O_9  and  C_10 
ROOT
HETATM    1  O   UNK N   1      35.206  11.342  14.628  0.00  0.00    -0.348 OA
ENDROOT
BRANCH   1   2
HETATM    2  C   UNK N   1      34.130  11.228  13.772  0.00  0.00     0.209 C 
BRANCH   2   3
HETATM    3  C   UNK N   1      34.533  10.832  12.368  0.00  0.00     0.159 C 
BRANCH   3   4
HETATM    4  C   UNK N   1      35.108  12.017  11.621  0.00  0.00     0.147 C 
BRANCH   4   5
HETATM    5  N   UNK N   1      34.733  13.251  12.294  0.00  0.00    -0.415 N 
HETATM    6  H   UNK N   1      33.822  13.458  12.704  0.00  0.00     0.153 HD
BRANCH   5   7
HETATM    7  C   UNK N   1      35.888  14.138  12.281  0.00  0.00     0.068 C 
HETATM    8  C   UNK N   1      36.329  14.468  13.700  0.00  0.00     0.031 C 
HETATM    9  C   UNK N   1      35.513  15.426  11.581  0.00  0.00     0.031 C 
ENDBRANCH   5   7
ENDBRANCH   4   5
ENDBRANCH   3   4
BRANCH   3  10
HETATM   10  O   UNK N   1      33.392  10.392  11.701  0.00  0.00    -0.392 OA
HETATM   11  H   UNK N   1      32.753   9.805  12.134  0.00  0.00     0.210 HD
ENDBRANCH   3  10
ENDBRANCH   2   3
ENDBRANCH   1   2
BRANCH   1  12
HETATM   12  C   UNK N   1      35.228  10.819  15.884  0.00  0.00     0.080 A 
HETATM   13  C   UNK N   1      35.260   9.421  16.007  0.00  0.00     0.037 A 
HETATM   14  C   UNK N   1      35.312   8.808  17.260  0.00  0.00     0.004 A 
HETATM   15  C   UNK N   1      35.328   9.579  18.421  0.00  0.00     0.012 A 
HETATM   16  C   UNK N   1      35.279  10.972  18.338  0.00  0.00    -0.023 A 
HETATM   17  C   UNK N   1      35.224  11.607  17.075  0.00  0.00     0.007 A 
HETATM   18  C   UNK N   1      35.283  11.731  19.512  0.00  0.00     0.012 A 
HETATM   19  C   UNK N   1      35.157  13.014  17.037  0.00  0.00     0.015 A 
HETATM   20  C   UNK N   1      35.155  13.765  18.211  0.00  0.00     0.001 A 
HETATM   21  C   UNK N   1      35.223  13.127  19.448  0.00  0.00     0.001 A 
ENDBRANCH   1  12
TORSDOF 7
ENDMDL
