MODEL 1
REMARK VINA RESULT:      -4.4      0.000      0.000
REMARK  16 active torsions:
REMARK  status: ('A' for Active; 'I' for Inactive)
REMARK    1  A    between atoms: C_2  and  C_1 
REMARK    2  A    between atoms: C_3  and  C_1 
REMARK    3  A    between atoms: C_4  and  C_2 
REMARK    4  A    between atoms: C_10  and  C_3 
REMARK    5  A    between atoms: C_11  and  C_4 
REMARK    6  A    between atoms: C_7  and  C_5 
REMARK    7  A    between atoms: C_10  and  C_5 
REMARK    8  A    between atoms: C_8  and  C_6 
REMARK    9  A    between atoms: O_13  and  C_6 
REMARK   10  A    between atoms: S_16  and  C_7 
REMARK   11  A    between atoms: S_17  and  C_8 
REMARK   12  A    between atoms: N_12  and  C_9 
REMARK   13  A    between atoms: S_16  and  C_9 
REMARK   14  A    between atoms: C_10  and  S_18 
REMARK   15  A    between atoms: O_15  and  C_11 
REMARK   16  A    between atoms: S_18  and  S_17 
ROOT
HETATM    1  C   UNK N   1      21.119  16.883   3.675  0.00  0.00     0.059 C 
ENDROOT
BRANCH   1   2
HETATM    2  C   UNK N   1      22.417  17.602   4.064  0.00  0.00     0.016 C 
BRANCH   2   3
HETATM    3  C   UNK N   1      22.409  19.085   3.702  0.00  0.00     0.002 C 
BRANCH   3   4
HETATM    4  C   UNK N   1      21.011  19.555   3.343  0.00  0.00     0.010 C 
BRANCH   4   5
HETATM    5  C   UNK N   1      21.098  20.689   2.339  0.00  0.00     0.110 C 
BRANCH   5   6
HETATM    6  C   UNK N   1      20.830  20.220   0.941  0.00  0.00     0.139 C 
HETATM    7  O   UNK N   1      20.629  19.034   0.735  0.00  0.00    -0.650 OA
BRANCH   6   8
HETATM    8  O   UNK N   1      20.804  21.089  -0.090  0.00  0.00    -0.776 OA
HETATM    9  H   UNK N   1      20.645  22.001   0.053  0.00  0.00     0.167 HD
ENDBRANCH   6   8
ENDBRANCH   5   6
ENDBRANCH   4   5
ENDBRANCH   3   4
ENDBRANCH   2   3
ENDBRANCH   1   2
BRANCH   1  10
HETATM   10  C   UNK N   1      21.344  15.818   2.602  0.00  0.00     0.026 C 
BRANCH  10  11
HETATM   11  C   UNK N   1      20.235  15.735   1.564  0.00  0.00     0.076 C 
BRANCH  11  12
HETATM   12  S   UNK N   1      19.369  14.152   1.743  0.00  0.00    -0.150 SA
BRANCH  12  13
HETATM   13  C   UNK N   1      18.523  14.330   0.146  0.00  0.00     0.185 C 
BRANCH  13  14
HETATM   14  N   UNK N   1      18.221  15.730  -0.089  0.00  0.00    -0.422 N 
HETATM   15  H   UNK N   1      17.337  16.238  -0.115  0.00  0.00     0.150 HD
HETATM   16  H   UNK N   1      19.041  16.311  -0.260  0.00  0.00     0.150 HD
ENDBRANCH  13  14
ENDBRANCH  12  13
ENDBRANCH  11  12
ENDBRANCH  10  11
ENDBRANCH   1  10
BRANCH   1  17
HETATM   17  S   UNK N   1      20.168  16.224   5.105  0.00  0.00    -0.093 SA
BRANCH  17  18
HETATM   18  S   UNK N   1      21.532  16.787   6.652  0.00  0.00    -0.095 SA
BRANCH  18  19
HETATM   19  C   UNK N   1      20.309  16.476   7.954  0.00  0.00     0.112 C 
BRANCH  19  20
HETATM   20  C   UNK N   1      19.771  17.798   8.462  0.00  0.00     0.175 C 
BRANCH  20  21
HETATM   21  O   UNK N   1      20.536  18.843   7.948  0.00  0.00    -0.400 OA
HETATM   22  H   UNK N   1      20.146  19.719   7.798  0.00  0.00     0.209 HD
ENDBRANCH  20  21
ENDBRANCH  19  20
ENDBRANCH  18  19
ENDBRANCH  17  18
ENDBRANCH   1  17
TORSDOF 16
ENDMDL
MODEL 2
REMARK VINA RESULT:      -4.3     13.029     14.334
REMARK  16 active torsions:
REMARK  status: ('A' for Active; 'I' for Inactive)
REMARK    1  A    between atoms: C_2  and  C_1 
REMARK    2  A    between atoms: C_3  and  C_1 
REMARK    3  A    between atoms: C_4  and  C_2 
REMARK    4  A    between atoms: C_10  and  C_3 
REMARK    5  A    between atoms: C_11  and  C_4 
REMARK    6  A    between atoms: C_7  and  C_5 
REMARK    7  A    between atoms: C_10  and  C_5 
REMARK    8  A    between atoms: C_8  and  C_6 
REMARK    9  A    between atoms: O_13  and  C_6 
REMARK   10  A    between atoms: S_16  and  C_7 
REMARK   11  A    between atoms: S_17  and  C_8 
REMARK   12  A    between atoms: N_12  and  C_9 
REMARK   13  A    between atoms: S_16  and  C_9 
REMARK   14  A    between atoms: C_10  and  S_18 
REMARK   15  A    between atoms: O_15  and  C_11 
REMARK   16  A    between atoms: S_18  and  S_17 
ROOT
HETATM    1  C   UNK N   1      27.382  23.895  -5.533  0.00  0.00     0.059 C 
ENDROOT
BRANCH   1   2
HETATM    2  C   UNK N   1      28.701  23.502  -4.855  0.00  0.00     0.016 C 
BRANCH   2   3
HETATM    3  C   UNK N   1      29.380  22.308  -5.521  0.00  0.00     0.002 C 
BRANCH   3   4
HETATM    4  C   UNK N   1      30.766  22.073  -4.948  0.00  0.00     0.010 C 
BRANCH   4   5
HETATM    5  C   UNK N   1      31.083  23.151  -3.927  0.00  0.00     0.110 C 
BRANCH   5   6
HETATM    6  C   UNK N   1      31.247  22.586  -2.549  0.00  0.00     0.139 C 
HETATM    7  O   UNK N   1      32.118  21.756  -2.343  0.00  0.00    -0.650 OA
BRANCH   6   8
HETATM    8  O   UNK N   1      30.451  22.982  -1.537  0.00  0.00    -0.776 OA
HETATM    9  H   UNK N   1      30.700  23.690  -0.976  0.00  0.00     0.167 HD
ENDBRANCH   6   8
ENDBRANCH   5   6
ENDBRANCH   4   5
ENDBRANCH   3   4
ENDBRANCH   2   3
ENDBRANCH   1   2
BRANCH   1  10
HETATM   10  C   UNK N   1      26.529  24.812  -4.657  0.00  0.00     0.026 C 
BRANCH  10  11
HETATM   11  C   UNK N   1      26.891  26.285  -4.758  0.00  0.00     0.076 C 
BRANCH  11  12
HETATM   12  S   UNK N   1      25.429  27.225  -5.277  0.00  0.00    -0.150 SA
BRANCH  12  13
HETATM   13  C   UNK N   1      25.675  28.489  -3.997  0.00  0.00     0.185 C 
BRANCH  13  14
HETATM   14  N   UNK N   1      26.021  27.848  -2.742  0.00  0.00    -0.422 N 
HETATM   15  H   UNK N   1      25.618  27.922  -1.808  0.00  0.00     0.150 HD
HETATM   16  H   UNK N   1      26.812  27.208  -2.805  0.00  0.00     0.150 HD
ENDBRANCH  13  14
ENDBRANCH  12  13
ENDBRANCH  11  12
ENDBRANCH  10  11
ENDBRANCH   1  10
BRANCH   1  17
HETATM   17  S   UNK N   1      27.584  24.568  -7.234  0.00  0.00    -0.093 SA
BRANCH  17  18
HETATM   18  S   UNK N   1      25.706  23.929  -8.030  0.00  0.00    -0.095 SA
BRANCH  18  19
HETATM   19  C   UNK N   1      25.846  22.292  -7.261  0.00  0.00     0.112 C 
BRANCH  19  20
HETATM   20  C   UNK N   1      24.788  21.375  -7.838  0.00  0.00     0.175 C 
BRANCH  20  21
HETATM   21  O   UNK N   1      23.663  22.121  -8.188  0.00  0.00    -0.400 OA
HETATM   22  H   UNK N   1      23.111  21.863  -8.944  0.00  0.00     0.209 HD
ENDBRANCH  20  21
ENDBRANCH  19  20
ENDBRANCH  18  19
ENDBRANCH  17  18
ENDBRANCH   1  17
TORSDOF 16
ENDMDL
MODEL 3
REMARK VINA RESULT:      -4.3     11.846     13.236
REMARK  16 active torsions:
REMARK  status: ('A' for Active; 'I' for Inactive)
REMARK    1  A    between atoms: C_2  and  C_1 
REMARK    2  A    between atoms: C_3  and  C_1 
REMARK    3  A    between atoms: C_4  and  C_2 
REMARK    4  A    between atoms: C_10  and  C_3 
REMARK    5  A    between atoms: C_11  and  C_4 
REMARK    6  A    between atoms: C_7  and  C_5 
REMARK    7  A    between atoms: C_10  and  C_5 
REMARK    8  A    between atoms: C_8  and  C_6 
REMARK    9  A    between atoms: O_13  and  C_6 
REMARK   10  A    between atoms: S_16  and  C_7 
REMARK   11  A    between atoms: S_17  and  C_8 
REMARK   12  A    between atoms: N_12  and  C_9 
REMARK   13  A    between atoms: S_16  and  C_9 
REMARK   14  A    between atoms: C_10  and  S_18 
REMARK   15  A    between atoms: O_15  and  C_11 
REMARK   16  A    between atoms: S_18  and  S_17 
ROOT
HETATM    1  C   UNK N   1      33.189  17.314   8.577  0.00  0.00     0.059 C 
ENDROOT
BRANCH   1   2
HETATM    2  C   UNK N   1      34.092  17.858   7.461  0.00  0.00     0.016 C 
BRANCH   2   3
HETATM    3  C   UNK N   1      34.082  16.985   6.209  0.00  0.00     0.002 C 
BRANCH   3   4
HETATM    4  C   UNK N   1      33.118  17.527   5.169  0.00  0.00     0.010 C 
BRANCH   4   5
HETATM    5  C   UNK N   1      32.022  16.508   4.912  0.00  0.00     0.110 C 
BRANCH   5   6
HETATM    6  C   UNK N   1      31.267  16.805   3.652  0.00  0.00     0.139 C 
HETATM    7  O   UNK N   1      30.087  16.507   3.577  0.00  0.00    -0.650 OA
BRANCH   6   8
HETATM    8  O   UNK N   1      31.873  17.397   2.603  0.00  0.00    -0.776 OA
HETATM    9  H   UNK N   1      32.471  18.107   2.730  0.00  0.00     0.167 HD
ENDBRANCH   6   8
ENDBRANCH   5   6
ENDBRANCH   4   5
ENDBRANCH   3   4
ENDBRANCH   2   3
ENDBRANCH   1   2
BRANCH   1  10
HETATM   10  C   UNK N   1      31.779  17.902   8.521  0.00  0.00     0.026 C 
BRANCH  10  11
HETATM   11  C   UNK N   1      30.678  16.865   8.373  0.00  0.00     0.076 C 
BRANCH  11  12
HETATM   12  S   UNK N   1      29.316  17.575   7.407  0.00  0.00    -0.150 SA
BRANCH  12  13
HETATM   13  C   UNK N   1      28.446  18.156   8.891  0.00  0.00     0.185 C 
BRANCH  13  14
HETATM   14  N   UNK N   1      27.437  19.129   8.512  0.00  0.00    -0.422 N 
HETATM   15  H   UNK N   1      27.345  20.125   8.714  0.00  0.00     0.150 HD
HETATM   16  H   UNK N   1      26.684  18.749   7.940  0.00  0.00     0.150 HD
ENDBRANCH  13  14
ENDBRANCH  12  13
ENDBRANCH  11  12
ENDBRANCH  10  11
ENDBRANCH   1  10
BRANCH   1  17
HETATM   17  S   UNK N   1      33.162  15.478   8.692  0.00  0.00    -0.093 SA
BRANCH  17  18
HETATM   18  S   UNK N   1      34.393  15.272  10.427  0.00  0.00    -0.095 SA
BRANCH  18  19
HETATM   19  C   UNK N   1      35.740  14.511   9.479  0.00  0.00     0.112 C 
BRANCH  19  20
HETATM   20  C   UNK N   1      37.052  14.745  10.198  0.00  0.00     0.175 C 
BRANCH  20  21
HETATM   21  O   UNK N   1      37.039  16.002  10.798  0.00  0.00    -0.400 OA
HETATM   22  H   UNK N   1      37.709  16.668  10.574  0.00  0.00     0.209 HD
ENDBRANCH  20  21
ENDBRANCH  19  20
ENDBRANCH  18  19
ENDBRANCH  17  18
ENDBRANCH   1  17
TORSDOF 16
ENDMDL
MODEL 4
REMARK VINA RESULT:      -4.3     10.025     11.731
REMARK  16 active torsions:
REMARK  status: ('A' for Active; 'I' for Inactive)
REMARK    1  A    between atoms: C_2  and  C_1 
REMARK    2  A    between atoms: C_3  and  C_1 
REMARK    3  A    between atoms: C_4  and  C_2 
REMARK    4  A    between atoms: C_10  and  C_3 
REMARK    5  A    between atoms: C_11  and  C_4 
REMARK    6  A    between atoms: C_7  and  C_5 
REMARK    7  A    between atoms: C_10  and  C_5 
REMARK    8  A    between atoms: C_8  and  C_6 
REMARK    9  A    between atoms: O_13  and  C_6 
REMARK   10  A    between atoms: S_16  and  C_7 
REMARK   11  A    between atoms: S_17  and  C_8 
REMARK   12  A    between atoms: N_12  and  C_9 
REMARK   13  A    between atoms: S_16  and  C_9 
REMARK   14  A    between atoms: C_10  and  S_18 
REMARK   15  A    between atoms: O_15  and  C_11 
REMARK   16  A    between atoms: S_18  and  S_17 
ROOT
HETATM    1  C   UNK N   1      29.681  17.523   7.494  0.00  0.00     0.059 C 
ENDROOT
BRANCH   1   2
HETATM    2  C   UNK N   1      30.401  16.791   8.635  0.00  0.00     0.016 C 
BRANCH   2   3
HETATM    3  C   UNK N   1      31.904  16.662   8.404  0.00  0.00     0.002 C 
BRANCH   3   4
HETATM    4  C   UNK N   1      32.517  17.996   8.016  0.00  0.00     0.010 C 
BRANCH   4   5
HETATM    5  C   UNK N   1      33.966  17.792   7.612  0.00  0.00     0.110 C 
BRANCH   5   6
HETATM    6  C   UNK N   1      34.914  18.282   8.663  0.00  0.00     0.139 C 
HETATM    7  O   UNK N   1      35.414  19.390   8.548  0.00  0.00    -0.650 OA
BRANCH   6   8
HETATM    8  O   UNK N   1      35.220  17.521   9.732  0.00  0.00    -0.776 OA
HETATM    9  H   UNK N   1      34.627  16.865  10.043  0.00  0.00     0.167 HD
ENDBRANCH   6   8
ENDBRANCH   5   6
ENDBRANCH   4   5
ENDBRANCH   3   4
ENDBRANCH   2   3
ENDBRANCH   1   2
BRANCH   1  10
HETATM   10  C   UNK N   1      29.190  16.565   6.408  0.00  0.00     0.026 C 
BRANCH  10  11
HETATM   11  C   UNK N   1      30.265  16.140   5.421  0.00  0.00     0.076 C 
BRANCH  11  12
HETATM   12  S   UNK N   1      29.565  16.125   3.747  0.00  0.00    -0.150 SA
BRANCH  12  13
HETATM   13  C   UNK N   1      31.141  16.609   2.985  0.00  0.00     0.185 C 
BRANCH  13  14
HETATM   14  N   UNK N   1      31.726  17.705   3.736  0.00  0.00    -0.422 N 
HETATM   15  H   UNK N   1      32.588  17.773   4.277  0.00  0.00     0.150 HD
HETATM   16  H   UNK N   1      31.176  18.563   3.720  0.00  0.00     0.150 HD
ENDBRANCH  13  14
ENDBRANCH  12  13
ENDBRANCH  11  12
ENDBRANCH  10  11
ENDBRANCH   1  10
BRANCH   1  17
HETATM   17  S   UNK N   1      28.350  18.661   8.055  0.00  0.00    -0.093 SA
BRANCH  17  18
HETATM   18  S   UNK N   1      27.509  19.101   6.140  0.00  0.00    -0.095 SA
BRANCH  18  19
HETATM   19  C   UNK N   1      27.633  20.891   6.407  0.00  0.00     0.112 C 
BRANCH  19  20
HETATM   20  C   UNK N   1      26.263  21.444   6.739  0.00  0.00     0.175 C 
BRANCH  20  21
HETATM   21  O   UNK N   1      25.929  21.110   8.051  0.00  0.00    -0.400 OA
HETATM   22  H   UNK N   1      26.608  20.811   8.676  0.00  0.00     0.209 HD
ENDBRANCH  20  21
ENDBRANCH  19  20
ENDBRANCH  18  19
ENDBRANCH  17  18
ENDBRANCH   1  17
TORSDOF 16
ENDMDL
MODEL 5
REMARK VINA RESULT:      -4.3      4.209      5.680
REMARK  16 active torsions:
REMARK  status: ('A' for Active; 'I' for Inactive)
REMARK    1  A    between atoms: C_2  and  C_1 
REMARK    2  A    between atoms: C_3  and  C_1 
REMARK    3  A    between atoms: C_4  and  C_2 
REMARK    4  A    between atoms: C_10  and  C_3 
REMARK    5  A    between atoms: C_11  and  C_4 
REMARK    6  A    between atoms: C_7  and  C_5 
REMARK    7  A    between atoms: C_10  and  C_5 
REMARK    8  A    between atoms: C_8  and  C_6 
REMARK    9  A    between atoms: O_13  and  C_6 
REMARK   10  A    between atoms: S_16  and  C_7 
REMARK   11  A    between atoms: S_17  and  C_8 
REMARK   12  A    between atoms: N_12  and  C_9 
REMARK   13  A    between atoms: S_16  and  C_9 
REMARK   14  A    between atoms: C_10  and  S_18 
REMARK   15  A    between atoms: O_15  and  C_11 
REMARK   16  A    between atoms: S_18  and  S_17 
ROOT
HETATM    1  C   UNK N   1      21.702  15.999   6.829  0.00  0.00     0.059 C 
ENDROOT
BRANCH   1   2
HETATM    2  C   UNK N   1      22.096  16.421   5.408  0.00  0.00     0.016 C 
BRANCH   2   3
HETATM    3  C   UNK N   1      22.455  17.901   5.304  0.00  0.00     0.002 C 
BRANCH   3   4
HETATM    4  C   UNK N   1      22.516  18.352   3.856  0.00  0.00     0.010 C 
BRANCH   4   5
HETATM    5  C   UNK N   1      21.501  19.457   3.625  0.00  0.00     0.110 C 
BRANCH   5   6
HETATM    6  C   UNK N   1      22.096  20.618   2.887  0.00  0.00     0.139 C 
HETATM    7  O   UNK N   1      23.274  20.584   2.568  0.00  0.00    -0.650 OA
BRANCH   6   8
HETATM    8  O   UNK N   1      21.351  21.694   2.569  0.00  0.00    -0.776 OA
HETATM    9  H   UNK N   1      20.534  21.599   2.120  0.00  0.00     0.167 HD
ENDBRANCH   6   8
ENDBRANCH   5   6
ENDBRANCH   4   5
ENDBRANCH   3   4
ENDBRANCH   2   3
ENDBRANCH   1   2
BRANCH   1  10
HETATM   10  C   UNK N   1      20.699  16.962   7.465  0.00  0.00     0.026 C 
BRANCH  10  11
HETATM   11  C   UNK N   1      20.036  16.429   8.725  0.00  0.00     0.076 C 
BRANCH  11  12
HETATM   12  S   UNK N   1      18.576  17.438   9.103  0.00  0.00    -0.150 SA
BRANCH  12  13
HETATM   13  C   UNK N   1      19.580  18.859   9.623  0.00  0.00     0.185 C 
BRANCH  13  14
HETATM   14  N   UNK N   1      18.881  19.592  10.662  0.00  0.00    -0.422 N 
HETATM   15  H   UNK N   1      18.676  19.362  11.634  0.00  0.00     0.150 HD
HETATM   16  H   UNK N   1      18.531  20.503  10.367  0.00  0.00     0.150 HD
ENDBRANCH  13  14
ENDBRANCH  12  13
ENDBRANCH  11  12
ENDBRANCH  10  11
ENDBRANCH   1  10
BRANCH   1  17
HETATM   17  S   UNK N   1      21.152  14.249   6.967  0.00  0.00    -0.093 SA
BRANCH  17  18
HETATM   18  S   UNK N   1      22.644  13.577   8.343  0.00  0.00    -0.095 SA
BRANCH  18  19
HETATM   19  C   UNK N   1      21.414  12.783   9.414  0.00  0.00     0.112 C 
BRANCH  19  20
HETATM   20  C   UNK N   1      22.110  12.190  10.621  0.00  0.00     0.175 C 
BRANCH  20  21
HETATM   21  O   UNK N   1      21.164  11.851  11.587  0.00  0.00    -0.400 OA
HETATM   22  H   UNK N   1      21.203  12.234  12.478  0.00  0.00     0.209 HD
ENDBRANCH  20  21
ENDBRANCH  19  20
ENDBRANCH  18  19
ENDBRANCH  17  18
ENDBRANCH   1  17
TORSDOF 16
ENDMDL
MODEL 6
REMARK VINA RESULT:      -4.2     11.952     13.797
REMARK  16 active torsions:
REMARK  status: ('A' for Active; 'I' for Inactive)
REMARK    1  A    between atoms: C_2  and  C_1 
REMARK    2  A    between atoms: C_3  and  C_1 
REMARK    3  A    between atoms: C_4  and  C_2 
REMARK    4  A    between atoms: C_10  and  C_3 
REMARK    5  A    between atoms: C_11  and  C_4 
REMARK    6  A    between atoms: C_7  and  C_5 
REMARK    7  A    between atoms: C_10  and  C_5 
REMARK    8  A    between atoms: C_8  and  C_6 
REMARK    9  A    between atoms: O_13  and  C_6 
REMARK   10  A    between atoms: S_16  and  C_7 
REMARK   11  A    between atoms: S_17  and  C_8 
REMARK   12  A    between atoms: N_12  and  C_9 
REMARK   13  A    between atoms: S_16  and  C_9 
REMARK   14  A    between atoms: C_10  and  S_18 
REMARK   15  A    between atoms: O_15  and  C_11 
REMARK   16  A    between atoms: S_18  and  S_17 
ROOT
HETATM    1  C   UNK N   1      32.663  16.816   8.033  0.00  0.00     0.059 C 
ENDROOT
BRANCH   1   2
HETATM    2  C   UNK N   1      32.301  15.353   7.745  0.00  0.00     0.016 C 
BRANCH   2   3
HETATM    3  C   UNK N   1      33.040  14.368   8.647  0.00  0.00     0.002 C 
BRANCH   3   4
HETATM    4  C   UNK N   1      33.583  15.058   9.886  0.00  0.00     0.010 C 
BRANCH   4   5
HETATM    5  C   UNK N   1      35.093  14.906   9.932  0.00  0.00     0.110 C 
BRANCH   5   6
HETATM    6  C   UNK N   1      35.760  16.117  10.511  0.00  0.00     0.139 C 
HETATM    7  O   UNK N   1      35.128  17.156  10.614  0.00  0.00    -0.650 OA
BRANCH   6   8
HETATM    8  O   UNK N   1      37.042  16.073  10.921  0.00  0.00    -0.776 OA
HETATM    9  H   UNK N   1      37.669  16.698  10.613  0.00  0.00     0.167 HD
ENDBRANCH   6   8
ENDBRANCH   5   6
ENDBRANCH   4   5
ENDBRANCH   3   4
ENDBRANCH   2   3
ENDBRANCH   1   2
BRANCH   1  10
HETATM   10  C   UNK N   1      33.483  17.445   6.906  0.00  0.00     0.026 C 
BRANCH  10  11
HETATM   11  C   UNK N   1      33.560  16.598   5.646  0.00  0.00     0.076 C 
BRANCH  11  12
HETATM   12  S   UNK N   1      32.700  17.456   4.298  0.00  0.00    -0.150 SA
BRANCH  12  13
HETATM   13  C   UNK N   1      32.743  15.996   3.219  0.00  0.00     0.185 C 
BRANCH  13  14
HETATM   14  N   UNK N   1      33.861  15.149   3.593  0.00  0.00    -0.422 N 
HETATM   15  H   UNK N   1      34.579  14.688   3.035  0.00  0.00     0.150 HD
HETATM   16  H   UNK N   1      33.944  14.986   4.596  0.00  0.00     0.150 HD
ENDBRANCH  13  14
ENDBRANCH  12  13
ENDBRANCH  11  12
ENDBRANCH  10  11
ENDBRANCH   1  10
BRANCH   1  17
HETATM   17  S   UNK N   1      31.227  17.866   8.503  0.00  0.00    -0.093 SA
BRANCH  17  18
HETATM   18  S   UNK N   1      29.816  17.080   7.102  0.00  0.00    -0.095 SA
BRANCH  18  19
HETATM   19  C   UNK N   1      28.611  18.387   7.462  0.00  0.00     0.112 C 
BRANCH  19  20
HETATM   20  C   UNK N   1      28.420  18.494   8.961  0.00  0.00     0.175 C 
BRANCH  20  21
HETATM   21  O   UNK N   1      27.489  17.547   9.383  0.00  0.00    -0.400 OA
HETATM   22  H   UNK N   1      27.236  17.480  10.317  0.00  0.00     0.209 HD
ENDBRANCH  20  21
ENDBRANCH  19  20
ENDBRANCH  18  19
ENDBRANCH  17  18
ENDBRANCH   1  17
TORSDOF 16
ENDMDL
MODEL 7
REMARK VINA RESULT:      -4.2     11.250     13.376
REMARK  16 active torsions:
REMARK  status: ('A' for Active; 'I' for Inactive)
REMARK    1  A    between atoms: C_2  and  C_1 
REMARK    2  A    between atoms: C_3  and  C_1 
REMARK    3  A    between atoms: C_4  and  C_2 
REMARK    4  A    between atoms: C_10  and  C_3 
REMARK    5  A    between atoms: C_11  and  C_4 
REMARK    6  A    between atoms: C_7  and  C_5 
REMARK    7  A    between atoms: C_10  and  C_5 
REMARK    8  A    between atoms: C_8  and  C_6 
REMARK    9  A    between atoms: O_13  and  C_6 
REMARK   10  A    between atoms: S_16  and  C_7 
REMARK   11  A    between atoms: S_17  and  C_8 
REMARK   12  A    between atoms: N_12  and  C_9 
REMARK   13  A    between atoms: S_16  and  C_9 
REMARK   14  A    between atoms: C_10  and  S_18 
REMARK   15  A    between atoms: O_15  and  C_11 
REMARK   16  A    between atoms: S_18  and  S_17 
ROOT
HETATM    1  C   UNK N   1      33.209  16.691   7.411  0.00  0.00     0.059 C 
ENDROOT
BRANCH   1   2
HETATM    2  C   UNK N   1      32.269  17.603   8.211  0.00  0.00     0.016 C 
BRANCH   2   3
HETATM    3  C   UNK N   1      30.868  17.018   8.374  0.00  0.00     0.002 C 
BRANCH   3   4
HETATM    4  C   UNK N   1      29.898  17.629   7.378  0.00  0.00     0.010 C 
BRANCH   4   5
HETATM    5  C   UNK N   1      28.511  17.055   7.603  0.00  0.00     0.110 C 
BRANCH   5   6
HETATM    6  C   UNK N   1      27.868  17.613   8.837  0.00  0.00     0.139 C 
HETATM    7  O   UNK N   1      27.614  16.866   9.768  0.00  0.00    -0.650 OA
BRANCH   6   8
HETATM    8  O   UNK N   1      27.571  18.923   8.933  0.00  0.00    -0.776 OA
HETATM    9  H   UNK N   1      26.969  19.235   9.580  0.00  0.00     0.167 HD
ENDBRANCH   6   8
ENDBRANCH   5   6
ENDBRANCH   4   5
ENDBRANCH   3   4
ENDBRANCH   2   3
ENDBRANCH   1   2
BRANCH   1  10
HETATM   10  C   UNK N   1      32.781  15.225   7.464  0.00  0.00     0.026 C 
BRANCH  10  11
HETATM   11  C   UNK N   1      33.467  14.415   8.553  0.00  0.00     0.076 C 
BRANCH  11  12
HETATM   12  S   UNK N   1      35.110  15.116   8.870  0.00  0.00    -0.150 SA
BRANCH  12  13
HETATM   13  C   UNK N   1      34.723  15.475  10.607  0.00  0.00     0.185 C 
BRANCH  13  14
HETATM   14  N   UNK N   1      33.362  15.059  10.897  0.00  0.00    -0.422 N 
HETATM   15  H   UNK N   1      32.592  15.536  11.364  0.00  0.00     0.150 HD
HETATM   16  H   UNK N   1      33.136  14.119  10.574  0.00  0.00     0.150 HD
ENDBRANCH  13  14
ENDBRANCH  12  13
ENDBRANCH  11  12
ENDBRANCH  10  11
ENDBRANCH   1  10
BRANCH   1  17
HETATM   17  S   UNK N   1      33.509  17.254   5.685  0.00  0.00    -0.093 SA
BRANCH  17  18
HETATM   18  S   UNK N   1      34.055  15.364   4.848  0.00  0.00    -0.095 SA
BRANCH  18  19
HETATM   19  C   UNK N   1      32.831  15.510   3.517  0.00  0.00     0.112 C 
BRANCH  19  20
HETATM   20  C   UNK N   1      32.690  16.966   3.125  0.00  0.00     0.175 C 
BRANCH  20  21
HETATM   21  O   UNK N   1      31.414  17.189   2.609  0.00  0.00    -0.400 OA
HETATM   22  H   UNK N   1      30.952  16.498   2.108  0.00  0.00     0.209 HD
ENDBRANCH  20  21
ENDBRANCH  19  20
ENDBRANCH  18  19
ENDBRANCH  17  18
ENDBRANCH   1  17
TORSDOF 16
ENDMDL
MODEL 8
REMARK VINA RESULT:      -4.2      4.984      7.609
REMARK  16 active torsions:
REMARK  status: ('A' for Active; 'I' for Inactive)
REMARK    1  A    between atoms: C_2  and  C_1 
REMARK    2  A    between atoms: C_3  and  C_1 
REMARK    3  A    between atoms: C_4  and  C_2 
REMARK    4  A    between atoms: C_10  and  C_3 
REMARK    5  A    between atoms: C_11  and  C_4 
REMARK    6  A    between atoms: C_7  and  C_5 
REMARK    7  A    between atoms: C_10  and  C_5 
REMARK    8  A    between atoms: C_8  and  C_6 
REMARK    9  A    between atoms: O_13  and  C_6 
REMARK   10  A    between atoms: S_16  and  C_7 
REMARK   11  A    between atoms: S_17  and  C_8 
REMARK   12  A    between atoms: N_12  and  C_9 
REMARK   13  A    between atoms: S_16  and  C_9 
REMARK   14  A    between atoms: C_10  and  S_18 
REMARK   15  A    between atoms: O_15  and  C_11 
REMARK   16  A    between atoms: S_18  and  S_17 
ROOT
HETATM    1  C   UNK N   1      25.220  19.678   3.938  0.00  0.00     0.059 C 
ENDROOT
BRANCH   1   2
HETATM    2  C   UNK N   1      26.019  20.573   4.895  0.00  0.00     0.016 C 
BRANCH   2   3
HETATM    3  C   UNK N   1      27.412  20.027   5.196  0.00  0.00     0.002 C 
BRANCH   3   4
HETATM    4  C   UNK N   1      27.651  19.925   6.691  0.00  0.00     0.010 C 
BRANCH   4   5
HETATM    5  C   UNK N   1      28.142  18.530   7.034  0.00  0.00     0.110 C 
BRANCH   5   6
HETATM    6  C   UNK N   1      28.442  18.385   8.495  0.00  0.00     0.139 C 
HETATM    7  O   UNK N   1      29.600  18.436   8.877  0.00  0.00    -0.650 OA
BRANCH   6   8
HETATM    8  O   UNK N   1      27.452  18.203   9.391  0.00  0.00    -0.776 OA
HETATM    9  H   UNK N   1      26.724  18.792   9.432  0.00  0.00     0.167 HD
ENDBRANCH   6   8
ENDBRANCH   5   6
ENDBRANCH   4   5
ENDBRANCH   3   4
ENDBRANCH   2   3
ENDBRANCH   1   2
BRANCH   1  10
HETATM   10  C   UNK N   1      24.571  18.494   4.656  0.00  0.00     0.026 C 
BRANCH  10  11
HETATM   11  C   UNK N   1      25.151  17.141   4.274  0.00  0.00     0.076 C 
BRANCH  11  12
HETATM   12  S   UNK N   1      24.867  15.968   5.628  0.00  0.00    -0.150 SA
BRANCH  12  13
HETATM   13  C   UNK N   1      23.093  16.348   5.707  0.00  0.00     0.185 C 
BRANCH  13  14
HETATM   14  N   UNK N   1      22.392  15.611   4.672  0.00  0.00    -0.422 N 
HETATM   15  H   UNK N   1      22.445  15.655   3.654  0.00  0.00     0.150 HD
HETATM   16  H   UNK N   1      21.727  14.924   5.026  0.00  0.00     0.150 HD
ENDBRANCH  13  14
ENDBRANCH  12  13
ENDBRANCH  11  12
ENDBRANCH  10  11
ENDBRANCH   1  10
BRANCH   1  17
HETATM   17  S   UNK N   1      24.012  20.589   2.892  0.00  0.00    -0.093 SA
BRANCH  17  18
HETATM   18  S   UNK N   1      22.271  19.453   3.391  0.00  0.00    -0.095 SA
BRANCH  18  19
HETATM   19  C   UNK N   1      21.162  20.660   2.614  0.00  0.00     0.112 C 
BRANCH  19  20
HETATM   20  C   UNK N   1      20.949  20.281   1.163  0.00  0.00     0.175 C 
BRANCH  20  21
HETATM   21  O   UNK N   1      20.492  21.390   0.452  0.00  0.00    -0.400 OA
HETATM   22  H   UNK N   1      19.734  21.906   0.769  0.00  0.00     0.209 HD
ENDBRANCH  20  21
ENDBRANCH  19  20
ENDBRANCH  18  19
ENDBRANCH  17  18
ENDBRANCH   1  17
TORSDOF 16
ENDMDL
MODEL 9
REMARK VINA RESULT:      -4.1     17.346     19.445
REMARK  16 active torsions:
REMARK  status: ('A' for Active; 'I' for Inactive)
REMARK    1  A    between atoms: C_2  and  C_1 
REMARK    2  A    between atoms: C_3  and  C_1 
REMARK    3  A    between atoms: C_4  and  C_2 
REMARK    4  A    between atoms: C_10  and  C_3 
REMARK    5  A    between atoms: C_11  and  C_4 
REMARK    6  A    between atoms: C_7  and  C_5 
REMARK    7  A    between atoms: C_10  and  C_5 
REMARK    8  A    between atoms: C_8  and  C_6 
REMARK    9  A    between atoms: O_13  and  C_6 
REMARK   10  A    between atoms: S_16  and  C_7 
REMARK   11  A    between atoms: S_17  and  C_8 
REMARK   12  A    between atoms: N_12  and  C_9 
REMARK   13  A    between atoms: S_16  and  C_9 
REMARK   14  A    between atoms: C_10  and  S_18 
REMARK   15  A    between atoms: O_15  and  C_11 
REMARK   16  A    between atoms: S_18  and  S_17 
ROOT
HETATM    1  C   UNK N   1      35.911  13.218  13.116  0.00  0.00     0.059 C 
ENDROOT
BRANCH   1   2
HETATM    2  C   UNK N   1      36.533  14.230  14.088  0.00  0.00     0.016 C 
BRANCH   2   3
HETATM    3  C   UNK N   1      36.794  13.642  15.472  0.00  0.00     0.002 C 
BRANCH   3   4
HETATM    4  C   UNK N   1      35.742  12.611  15.839  0.00  0.00     0.010 C 
BRANCH   4   5
HETATM    5  C   UNK N   1      34.664  13.265  16.685  0.00  0.00     0.110 C 
BRANCH   5   6
HETATM    6  C   UNK N   1      35.113  13.475  18.099  0.00  0.00     0.139 C 
HETATM    7  O   UNK N   1      35.291  12.507  18.821  0.00  0.00    -0.650 OA
BRANCH   6   8
HETATM    8  O   UNK N   1      35.326  14.714  18.583  0.00  0.00    -0.776 OA
HETATM    9  H   UNK N   1      34.611  15.251  18.866  0.00  0.00     0.167 HD
ENDBRANCH   6   8
ENDBRANCH   5   6
ENDBRANCH   4   5
ENDBRANCH   3   4
ENDBRANCH   2   3
ENDBRANCH   1   2
BRANCH   1  10
HETATM   10  C   UNK N   1      34.982  13.883  12.100  0.00  0.00     0.026 C 
BRANCH  10  11
HETATM   11  C   UNK N   1      35.354  13.619  10.650  0.00  0.00     0.076 C 
BRANCH  11  12
HETATM   12  S   UNK N   1      36.287  15.035  10.006  0.00  0.00    -0.150 SA
BRANCH  12  13
HETATM   13  C   UNK N   1      35.369  16.221  11.029  0.00  0.00     0.185 C 
BRANCH  13  14
HETATM   14  N   UNK N   1      34.620  17.123  10.172  0.00  0.00    -0.422 N 
HETATM   15  H   UNK N   1      33.821  16.967   9.557  0.00  0.00     0.150 HD
HETATM   16  H   UNK N   1      34.952  18.086  10.188  0.00  0.00     0.150 HD
ENDBRANCH  13  14
ENDBRANCH  12  13
ENDBRANCH  11  12
ENDBRANCH  10  11
ENDBRANCH   1  10
BRANCH   1  17
HETATM   17  S   UNK N   1      37.133  12.110  12.303  0.00  0.00    -0.093 SA
BRANCH  17  18
HETATM   18  S   UNK N   1      36.295  10.242  12.919  0.00  0.00    -0.095 SA
BRANCH  18  19
HETATM   19  C   UNK N   1      35.327  10.082  11.393  0.00  0.00     0.112 C 
BRANCH  19  20
HETATM   20  C   UNK N   1      33.862   9.922  11.744  0.00  0.00     0.175 C 
BRANCH  20  21
HETATM   21  O   UNK N   1      33.598  10.565  12.952  0.00  0.00    -0.400 OA
HETATM   22  H   UNK N   1      33.644  10.083  13.793  0.00  0.00     0.209 HD
ENDBRANCH  20  21
ENDBRANCH  19  20
ENDBRANCH  18  19
ENDBRANCH  17  18
ENDBRANCH   1  17
TORSDOF 16
ENDMDL
