MODEL 1
REMARK VINA RESULT:      -4.4      0.000      0.000
REMARK  1 active torsions:
REMARK  status: ('A' for Active; 'I' for Inactive)
REMARK    1  A    between atoms: N_1  and  C_2 
ROOT
HETATM    1  C   UNK N   1      23.641  12.388  10.809  0.00  0.00     0.031 A 
HETATM    2  C   UNK N   1      23.390  13.236   9.726  0.00  0.00     0.071 A 
HETATM    3  C   UNK N   1      22.078  13.601   9.413  0.00  0.00     0.121 A 
HETATM    4  F   UNK N   1      21.836  14.422   8.364  0.00  0.00    -0.206 F 
HETATM    5  C   UNK N   1      21.015  13.118  10.182  0.00  0.00     0.084 A 
HETATM    6  C   UNK N   1      21.265  12.271  11.265  0.00  0.00     0.121 A 
HETATM    7  F   UNK N   1      20.232  11.805  12.009  0.00  0.00    -0.206 F 
HETATM    8  C   UNK N   1      22.578  11.905  11.579  0.00  0.00     0.071 A 
ENDROOT
BRANCH   1   9
HETATM    9  N   UNK N   1      24.965  12.021  11.124  0.00  0.00    -0.399 N 
HETATM   10  H   UNK N   1      25.478  12.546  11.778  0.00  0.00     0.156 HD
HETATM   11  H   UNK N   1      25.374  11.239  10.689  0.00  0.00     0.156 HD
ENDBRANCH   1   9
TORSDOF 1
ENDMDL
MODEL 2
REMARK VINA RESULT:      -4.4      0.017      2.767
REMARK  1 active torsions:
REMARK  status: ('A' for Active; 'I' for Inactive)
REMARK    1  A    between atoms: N_1  and  C_2 
ROOT
HETATM    1  C   UNK N   1      23.647  12.396  10.795  0.00  0.00     0.031 A 
HETATM    2  C   UNK N   1      22.587  11.908  11.565  0.00  0.00     0.071 A 
HETATM    3  C   UNK N   1      21.273  12.275  11.258  0.00  0.00     0.121 A 
HETATM    4  F   UNK N   1      20.247  11.802  12.004  0.00  0.00    -0.206 F 
HETATM    5  C   UNK N   1      21.019  13.129  10.181  0.00  0.00     0.084 A 
HETATM    6  C   UNK N   1      22.078  13.617   9.411  0.00  0.00     0.121 A 
HETATM    7  F   UNK N   1      21.828  14.445   8.367  0.00  0.00    -0.206 F 
HETATM    8  C   UNK N   1      23.393  13.251   9.717  0.00  0.00     0.071 A 
ENDROOT
BRANCH   1   9
HETATM    9  N   UNK N   1      24.971  12.026  11.105  0.00  0.00    -0.399 N 
HETATM   10  H   UNK N   1      25.395  11.274  10.633  0.00  0.00     0.156 HD
HETATM   11  H   UNK N   1      25.470  12.520  11.794  0.00  0.00     0.156 HD
ENDBRANCH   1   9
TORSDOF 1
ENDMDL
MODEL 3
REMARK VINA RESULT:      -4.3      2.227      3.348
REMARK  1 active torsions:
REMARK  status: ('A' for Active; 'I' for Inactive)
REMARK    1  A    between atoms: N_1  and  C_2 
ROOT
HETATM    1  C   UNK N   1      22.188  13.495   9.399  0.00  0.00     0.031 A 
HETATM    2  C   UNK N   1      21.081  13.093  10.152  0.00  0.00     0.071 A 
HETATM    3  C   UNK N   1      21.256  12.284  11.279  0.00  0.00     0.121 A 
HETATM    4  F   UNK N   1      20.183  11.896  12.007  0.00  0.00    -0.206 F 
HETATM    5  C   UNK N   1      22.540  11.876  11.653  0.00  0.00     0.084 A 
HETATM    6  C   UNK N   1      23.648  12.277  10.901  0.00  0.00     0.121 A 
HETATM    7  F   UNK N   1      24.891  11.879  11.267  0.00  0.00    -0.206 F 
HETATM    8  C   UNK N   1      23.473  13.086   9.774  0.00  0.00     0.071 A 
ENDROOT
BRANCH   1   9
HETATM    9  N   UNK N   1      22.010  14.310   8.264  0.00  0.00    -0.399 N 
HETATM   10  H   UNK N   1      21.109  14.620   8.018  0.00  0.00     0.156 HD
HETATM   11  H   UNK N   1      22.787  14.569   7.718  0.00  0.00     0.156 HD
ENDBRANCH   1   9
TORSDOF 1
ENDMDL
MODEL 4
REMARK VINA RESULT:      -4.3      2.222      2.786
REMARK  1 active torsions:
REMARK  status: ('A' for Active; 'I' for Inactive)
REMARK    1  A    between atoms: N_1  and  C_2 
ROOT
HETATM    1  C   UNK N   1      22.200  13.495   9.393  0.00  0.00     0.031 A 
HETATM    2  C   UNK N   1      23.478  13.083   9.780  0.00  0.00     0.071 A 
HETATM    3  C   UNK N   1      23.641  12.274  10.909  0.00  0.00     0.121 A 
HETATM    4  F   UNK N   1      24.880  11.875  11.282  0.00  0.00    -0.206 F 
HETATM    5  C   UNK N   1      22.525  11.876  11.651  0.00  0.00     0.084 A 
HETATM    6  C   UNK N   1      21.246  12.288  11.265  0.00  0.00     0.121 A 
HETATM    7  F   UNK N   1      20.166  11.901  11.987  0.00  0.00    -0.206 F 
HETATM    8  C   UNK N   1      21.083  13.098  10.136  0.00  0.00     0.071 A 
ENDROOT
BRANCH   1   9
HETATM    9  N   UNK N   1      22.037  14.311   8.256  0.00  0.00    -0.399 N 
HETATM   10  H   UNK N   1      21.462  15.108   8.301  0.00  0.00     0.156 HD
HETATM   11  H   UNK N   1      22.498  14.082   7.417  0.00  0.00     0.156 HD
ENDBRANCH   1   9
TORSDOF 1
ENDMDL
MODEL 5
REMARK VINA RESULT:      -4.3      2.284      3.438
REMARK  1 active torsions:
REMARK  status: ('A' for Active; 'I' for Inactive)
REMARK    1  A    between atoms: N_1  and  C_2 
ROOT
HETATM    1  C   UNK N   1      21.479  12.278  11.119  0.00  0.00     0.031 A 
HETATM    2  C   UNK N   1      22.775  11.853  11.425  0.00  0.00     0.071 A 
HETATM    3  C   UNK N   1      23.856  12.290  10.652  0.00  0.00     0.121 A 
HETATM    4  F   UNK N   1      25.110  11.879  10.948  0.00  0.00    -0.206 F 
HETATM    5  C   UNK N   1      23.639  13.152   9.572  0.00  0.00     0.084 A 
HETATM    6  C   UNK N   1      22.343  13.578   9.266  0.00  0.00     0.121 A 
HETATM    7  F   UNK N   1      22.137  14.413   8.219  0.00  0.00    -0.206 F 
HETATM    8  C   UNK N   1      21.262  13.140  10.039  0.00  0.00     0.071 A 
ENDROOT
BRANCH   1   9
HETATM    9  N   UNK N   1      20.391  11.836  11.899  0.00  0.00    -0.399 N 
HETATM   10  H   UNK N   1      19.528  12.305  11.847  0.00  0.00     0.156 HD
HETATM   11  H   UNK N   1      20.496  11.060  12.494  0.00  0.00     0.156 HD
ENDBRANCH   1   9
TORSDOF 1
ENDMDL
MODEL 6
REMARK VINA RESULT:      -4.3      2.282      2.802
REMARK  1 active torsions:
REMARK  status: ('A' for Active; 'I' for Inactive)
REMARK    1  A    between atoms: N_1  and  C_2 
ROOT
HETATM    1  C   UNK N   1      21.502  12.284  11.120  0.00  0.00     0.031 A 
HETATM    2  C   UNK N   1      21.285  13.148  10.042  0.00  0.00     0.071 A 
HETATM    3  C   UNK N   1      22.362  13.580   9.263  0.00  0.00     0.121 A 
HETATM    4  F   UNK N   1      22.151  14.416   8.219  0.00  0.00    -0.206 F 
HETATM    5  C   UNK N   1      23.658  13.148   9.561  0.00  0.00     0.084 A 
HETATM    6  C   UNK N   1      23.877  12.285  10.639  0.00  0.00     0.121 A 
HETATM    7  F   UNK N   1      25.135  11.868  10.925  0.00  0.00    -0.206 F 
HETATM    8  C   UNK N   1      22.799  11.852  11.419  0.00  0.00     0.071 A 
ENDROOT
BRANCH   1   9
HETATM    9  N   UNK N   1      20.416  11.850  11.905  0.00  0.00    -0.399 N 
HETATM   10  H   UNK N   1      19.505  12.159  11.698  0.00  0.00     0.156 HD
HETATM   11  H   UNK N   1      20.569  11.237  12.659  0.00  0.00     0.156 HD
ENDBRANCH   1   9
TORSDOF 1
ENDMDL
MODEL 7
REMARK VINA RESULT:      -4.1     19.680     20.991
REMARK  1 active torsions:
REMARK  status: ('A' for Active; 'I' for Inactive)
REMARK    1  A    between atoms: N_1  and  C_2 
ROOT
HETATM    1  C   UNK N   1      25.896  27.716  -4.017  0.00  0.00     0.031 A 
HETATM    2  C   UNK N   1      26.332  26.614  -3.276  0.00  0.00     0.071 A 
HETATM    3  C   UNK N   1      26.396  25.351  -3.872  0.00  0.00     0.121 A 
HETATM    4  F   UNK N   1      26.819  24.284  -3.154  0.00  0.00    -0.206 F 
HETATM    5  C   UNK N   1      26.024  25.190  -5.210  0.00  0.00     0.084 A 
HETATM    6  C   UNK N   1      25.588  26.292  -5.952  0.00  0.00     0.121 A 
HETATM    7  F   UNK N   1      25.228  26.132  -7.249  0.00  0.00    -0.206 F 
HETATM    8  C   UNK N   1      25.523  27.556  -5.356  0.00  0.00     0.071 A 
ENDROOT
BRANCH   1   9
HETATM    9  N   UNK N   1      25.831  28.989  -3.415  0.00  0.00    -0.399 N 
HETATM   10  H   UNK N   1      26.397  29.193  -2.636  0.00  0.00     0.156 HD
HETATM   11  H   UNK N   1      25.220  29.671  -3.773  0.00  0.00     0.156 HD
ENDBRANCH   1   9
TORSDOF 1
ENDMDL
MODEL 8
REMARK VINA RESULT:      -4.1     14.809     15.690
REMARK  1 active torsions:
REMARK  status: ('A' for Active; 'I' for Inactive)
REMARK    1  A    between atoms: N_1  and  C_2 
ROOT
HETATM    1  C   UNK N   1      35.687  14.281  17.882  0.00  0.00     0.031 A 
HETATM    2  C   UNK N   1      35.507  13.278  16.925  0.00  0.00     0.071 A 
HETATM    3  C   UNK N   1      36.143  13.372  15.684  0.00  0.00     0.121 A 
HETATM    4  F   UNK N   1      35.968  12.401  14.758  0.00  0.00    -0.206 F 
HETATM    5  C   UNK N   1      36.960  14.471  15.399  0.00  0.00     0.084 A 
HETATM    6  C   UNK N   1      37.140  15.475  16.355  0.00  0.00     0.121 A 
HETATM    7  F   UNK N   1      37.933  16.538  16.075  0.00  0.00    -0.206 F 
HETATM    8  C   UNK N   1      36.504  15.380  17.597  0.00  0.00     0.071 A 
ENDROOT
BRANCH   1   9
HETATM    9  N   UNK N   1      35.045  14.185  19.133  0.00  0.00    -0.399 N 
HETATM   10  H   UNK N   1      35.550  14.359  19.959  0.00  0.00     0.156 HD
HETATM   11  H   UNK N   1      34.092  13.944  19.179  0.00  0.00     0.156 HD
ENDBRANCH   1   9
TORSDOF 1
ENDMDL
MODEL 9
REMARK VINA RESULT:      -4.0     14.656     15.482
REMARK  1 active torsions:
REMARK  status: ('A' for Active; 'I' for Inactive)
REMARK    1  A    between atoms: N_1  and  C_2 
ROOT
HETATM    1  C   UNK N   1      35.148  12.745  19.194  0.00  0.00     0.031 A 
HETATM    2  C   UNK N   1      35.527  11.399  19.179  0.00  0.00     0.071 A 
HETATM    3  C   UNK N   1      35.829  10.771  17.967  0.00  0.00     0.121 A 
HETATM    4  F   UNK N   1      36.196   9.468  17.953  0.00  0.00    -0.206 F 
HETATM    5  C   UNK N   1      35.751  11.488  16.769  0.00  0.00     0.084 A 
HETATM    6  C   UNK N   1      35.372  12.833  16.783  0.00  0.00     0.121 A 
HETATM    7  F   UNK N   1      35.298  13.525  15.620  0.00  0.00    -0.206 F 
HETATM    8  C   UNK N   1      35.070  13.463  17.996  0.00  0.00     0.071 A 
ENDROOT
BRANCH   1   9
HETATM    9  N   UNK N   1      34.844  13.377  20.416  0.00  0.00    -0.399 N 
HETATM   10  H   UNK N   1      35.187  14.281  20.600  0.00  0.00     0.156 HD
HETATM   11  H   UNK N   1      34.290  12.915  21.084  0.00  0.00     0.156 HD
ENDBRANCH   1   9
TORSDOF 1
ENDMDL
