REMARK  31 active torsions:
REMARK  status: ('A' for Active; 'I' for Inactive)
REMARK    1  A    between atoms: C_27  and  C_11 
REMARK    2  A    between atoms: O_62  and  C_11 
REMARK    3  A    between atoms: C_36  and  C_12 
REMARK    4  A    between atoms: C_37  and  C_13 
REMARK    5  A    between atoms: C_38  and  C_14 
REMARK    6  A    between atoms: C_39  and  C_15 
REMARK    7  A    between atoms: C_40  and  C_16 
REMARK    8  A    between atoms: O_42  and  C_17 
REMARK    9  A    between atoms: O_43  and  C_18 
REMARK   10  A    between atoms: O_44  and  C_19 
REMARK   11  A    between atoms: O_45  and  C_20 
REMARK   12  A    between atoms: O_46  and  C_21 
REMARK   13  A    between atoms: O_47  and  C_22 
REMARK   14  A    between atoms: O_48  and  C_23 
REMARK   15  A    between atoms: O_49  and  C_24 
REMARK   16  A    between atoms: O_50  and  C_25 
REMARK   17  A    between atoms: O_51  and  C_26 
REMARK   18  A    between atoms: O_52  and  C_28 
REMARK   19  A    between atoms: O_53  and  C_29 
REMARK   20  A    between atoms: O_54  and  C_30 
REMARK   21  A    between atoms: O_55  and  C_31 
REMARK   22  A    between atoms: O_56  and  C_32 
REMARK   23  A    between atoms: C_33  and  O_64 
REMARK   24  A    between atoms: C_34  and  O_65 
REMARK   25  A    between atoms: C_35  and  O_66 
REMARK   26  A    between atoms: O_62  and  C_36 
REMARK   27  A    between atoms: O_64  and  C_37 
REMARK   28  A    between atoms: O_65  and  C_38 
REMARK   29  A    between atoms: O_66  and  C_39 
REMARK   30  A    between atoms: O_67  and  C_40 
REMARK   31  A    between atoms: C_41  and  O_67 
ROOT
HETATM    1  C   UNK N   1      -4.055   3.121   0.194  0.00  0.00     0.181 C 
HETATM    2  C   UNK N   1      -4.128   4.668   0.039  0.00  0.00     0.195 C 
HETATM    3  C   UNK N   1      -5.530   5.091  -0.488  0.00  0.00     0.198 C 
HETATM    4  C   UNK N   1      -6.588   4.439   0.450  0.00  0.00     0.220 C 
HETATM    5  C   UNK N   1      -6.376   2.919   0.386  0.00  0.00     0.302 C 
HETATM    6  O   UNK N   1      -5.126   2.620   0.970  0.00  0.00    -0.348 OA
ENDROOT
BRANCH   1   7
HETATM    7  C   UNK N   1      -2.808   2.706   0.973  0.00  0.00     0.213 C 
BRANCH   7   8
HETATM    8  O   UNK N   1      -1.647   2.702   0.241  0.00  0.00    -0.315 OA
BRANCH   8   9
HETATM    9  C   UNK N   1      -0.928   1.561   0.051  0.00  0.00     0.293 C 
HETATM   10  O   UNK N   1       0.286   1.649  -0.046  0.00  0.00    -0.259 OA
BRANCH   9  11
HETATM   11  C   UNK N   1      -1.569   0.214  -0.069  0.00  0.00     0.045 A 
HETATM   12  C   UNK N   1      -0.766  -0.935  -0.156  0.00  0.00     0.057 A 
HETATM   13  C   UNK N   1      -1.345  -2.198  -0.322  0.00  0.00     0.102 A 
HETATM   14  C   UNK N   1      -2.736  -2.324  -0.418  0.00  0.00     0.132 A 
HETATM   15  C   UNK N   1      -3.543  -1.187  -0.340  0.00  0.00     0.102 A 
HETATM   16  C   UNK N   1      -2.962   0.071  -0.163  0.00  0.00     0.057 A 
BRANCH  13  17
HETATM   17  O   UNK N   1      -0.560  -3.285  -0.400  0.00  0.00    -0.358 OA
HETATM   18  H   UNK N   1      -0.943  -4.139  -0.454  0.00  0.00     0.217 HD
ENDBRANCH  13  17
BRANCH  14  19
HETATM   19  O   UNK N   1      -3.296  -3.536  -0.593  0.00  0.00    -0.356 OA
HETATM   20  H   UNK N   1      -4.221  -3.620  -0.714  0.00  0.00     0.218 HD
ENDBRANCH  14  19
BRANCH  15  21
HETATM   21  O   UNK N   1      -4.876  -1.299  -0.450  0.00  0.00    -0.358 OA
HETATM   22  H   UNK N   1      -5.409  -0.532  -0.527  0.00  0.00     0.217 HD
ENDBRANCH  15  21
ENDBRANCH   9  11
ENDBRANCH   8   9
ENDBRANCH   7   8
ENDBRANCH   1   7
BRANCH   2  23
HETATM   23  O   UNK N   1      -3.905   5.262   1.277  0.00  0.00    -0.307 OA
BRANCH  23  24
HETATM   24  C   UNK N   1      -3.556   6.567   1.443  0.00  0.00     0.294 C 
HETATM   25  O   UNK N   1      -4.234   7.266   2.181  0.00  0.00    -0.259 OA
BRANCH  24  26
HETATM   26  C   UNK N   1      -2.348   7.145   0.799  0.00  0.00     0.045 A 
HETATM   27  C   UNK N   1      -2.098   8.522   0.884  0.00  0.00     0.057 A 
HETATM   28  C   UNK N   1      -0.947   9.072   0.312  0.00  0.00     0.102 A 
HETATM   29  C   UNK N   1      -0.023   8.243  -0.340  0.00  0.00     0.132 A 
HETATM   30  C   UNK N   1      -0.261   6.865  -0.420  0.00  0.00     0.102 A 
HETATM   31  C   UNK N   1      -1.417   6.323   0.147  0.00  0.00     0.057 A 
BRANCH  28  32
HETATM   32  O   UNK N   1      -0.729  10.396   0.394  0.00  0.00    -0.358 OA
HETATM   33  H   UNK N   1       0.146  10.726   0.452  0.00  0.00     0.217 HD
ENDBRANCH  28  32
BRANCH  29  34
HETATM   34  O   UNK N   1       1.089   8.768  -0.885  0.00  0.00    -0.356 OA
HETATM   35  H   UNK N   1       1.794   8.280  -1.264  0.00  0.00     0.218 HD
ENDBRANCH  29  34
BRANCH  30  36
HETATM   36  O   UNK N   1       0.619   6.058  -1.037  0.00  0.00    -0.358 OA
HETATM   37  H   UNK N   1       0.438   5.245  -1.466  0.00  0.00     0.217 HD
ENDBRANCH  30  36
ENDBRANCH  24  26
ENDBRANCH  23  24
ENDBRANCH   2  23
BRANCH   3  38
HETATM   38  O   UNK N   1      -5.617   6.481  -0.502  0.00  0.00    -0.306 OA
BRANCH  38  39
HETATM   39  C   UNK N   1      -6.681   7.218  -0.938  0.00  0.00     0.294 C 
HETATM   40  O   UNK N   1      -7.585   6.702  -1.574  0.00  0.00    -0.259 OA
BRANCH  39  41
HETATM   41  C   UNK N   1      -6.757   8.647  -0.591  0.00  0.00     0.045 A 
HETATM   42  C   UNK N   1      -7.980   9.331  -0.671  0.00  0.00     0.057 A 
HETATM   43  C   UNK N   1      -8.060  10.677  -0.301  0.00  0.00     0.102 A 
HETATM   44  C   UNK N   1      -6.909  11.356   0.121  0.00  0.00     0.132 A 
HETATM   45  C   UNK N   1      -5.683  10.677   0.188  0.00  0.00     0.102 A 
HETATM   46  C   UNK N   1      -5.616   9.323  -0.149  0.00  0.00     0.057 A 
BRANCH  43  47
HETATM   47  O   UNK N   1      -9.244  11.312  -0.349  0.00  0.00    -0.358 OA
HETATM   48  H   UNK N   1      -9.273  12.248  -0.383  0.00  0.00     0.217 HD
ENDBRANCH  43  47
BRANCH  44  49
HETATM   49  O   UNK N   1      -6.978  12.655   0.462  0.00  0.00    -0.356 OA
HETATM   50  H   UNK N   1      -6.219  13.150   0.700  0.00  0.00     0.218 HD
ENDBRANCH  44  49
BRANCH  45  51
HETATM   51  O   UNK N   1      -4.570  11.320   0.576  0.00  0.00    -0.358 OA
HETATM   52  H   UNK N   1      -3.793  10.872   0.847  0.00  0.00     0.217 HD
ENDBRANCH  45  51
ENDBRANCH  39  41
ENDBRANCH  38  39
ENDBRANCH   3  38
BRANCH   5  53
HETATM   53  O   UNK N   1      -7.374   2.256   1.074  0.00  0.00    -0.283 OA
BRANCH  53  54
HETATM   54  C   UNK N   1      -7.458   0.903   1.078  0.00  0.00     0.295 C 
HETATM   55  O   UNK N   1      -6.443   0.220   1.094  0.00  0.00    -0.259 OA
BRANCH  54  56
HETATM   56  C   UNK N   1      -8.768   0.267   0.881  0.00  0.00     0.045 A 
HETATM   57  C   UNK N   1      -8.859  -1.090   0.545  0.00  0.00     0.057 A 
HETATM   58  C   UNK N   1     -10.097  -1.655   0.230  0.00  0.00     0.102 A 
HETATM   59  C   UNK N   1     -11.256  -0.865   0.259  0.00  0.00     0.132 A 
HETATM   60  C   UNK N   1     -11.168   0.489   0.609  0.00  0.00     0.102 A 
HETATM   61  C   UNK N   1      -9.928   1.051   0.908  0.00  0.00     0.057 A 
BRANCH  58  62
HETATM   62  O   UNK N   1     -10.168  -2.952  -0.115  0.00  0.00    -0.358 OA
HETATM   63  H   UNK N   1     -10.976  -3.361  -0.356  0.00  0.00     0.217 HD
ENDBRANCH  58  62
BRANCH  59  64
HETATM   64  O   UNK N   1     -12.448  -1.404  -0.053  0.00  0.00    -0.356 OA
HETATM   65  H   UNK N   1     -13.189  -0.872  -0.270  0.00  0.00     0.218 HD
ENDBRANCH  59  64
BRANCH  60  66
HETATM   66  O   UNK N   1     -12.270   1.257   0.644  0.00  0.00    -0.358 OA
HETATM   67  H   UNK N   1     -12.190   2.191   0.668  0.00  0.00     0.217 HD
ENDBRANCH  60  66
ENDBRANCH  54  56
ENDBRANCH  53  54
ENDBRANCH   5  53
BRANCH   4  68
HETATM   68  O   UNK N   1      -7.863   4.894   0.160  0.00  0.00    -0.304 OA
BRANCH  68  69
HETATM   69  C   UNK N   1      -8.980   4.303  -0.338  0.00  0.00     0.294 C 
HETATM   70  O   UNK N   1      -8.939   3.206  -0.874  0.00  0.00    -0.259 OA
BRANCH  69  71
HETATM   71  C   UNK N   1     -10.242   5.060  -0.263  0.00  0.00     0.045 A 
HETATM   72  C   UNK N   1     -11.446   4.539  -0.754  0.00  0.00     0.057 A 
HETATM   73  C   UNK N   1     -12.623   5.294  -0.671  0.00  0.00     0.102 A 
HETATM   74  C   UNK N   1     -12.598   6.575  -0.097  0.00  0.00     0.132 A 
HETATM   75  C   UNK N   1     -11.395   7.094   0.396  0.00  0.00     0.102 A 
HETATM   76  C   UNK N   1     -10.229   6.337   0.313  0.00  0.00     0.057 A 
BRANCH  73  77
HETATM   77  O   UNK N   1     -13.774   4.787  -1.144  0.00  0.00    -0.358 OA
HETATM   78  H   UNK N   1     -14.481   5.305  -1.475  0.00  0.00     0.217 HD
ENDBRANCH  73  77
BRANCH  74  79
HETATM   79  O   UNK N   1     -13.726   7.304  -0.021  0.00  0.00    -0.356 OA
HETATM   80  H   UNK N   1     -13.679   8.238   0.032  0.00  0.00     0.218 HD
ENDBRANCH  74  79
BRANCH  75  81
HETATM   81  O   UNK N   1     -11.355   8.319   0.947  0.00  0.00    -0.358 OA
HETATM   82  H   UNK N   1     -10.601   8.722   1.332  0.00  0.00     0.217 HD
ENDBRANCH  75  81
ENDBRANCH  69  71
ENDBRANCH  68  69
ENDBRANCH   4  68
TORSDOF 31
