MODEL 1
REMARK VINA RESULT:     -14.8      0.000      0.000
REMARK  9 active torsions:
REMARK  status: ('A' for Active; 'I' for Inactive)
REMARK    1  A    between atoms: C_17  and  C_10 
REMARK    2  A    between atoms: C_11  and  N_24 
REMARK    3  A    between atoms: C_18  and  C_12 
REMARK    4  A    between atoms: C_15  and  C_14 
REMARK    5  A    between atoms: C_20  and  O_37 
REMARK    6  A    between atoms: O_40  and  C_20 
REMARK    7  A    between atoms: O_41  and  C_21 
REMARK    8  A    between atoms: O_43  and  C_23 
REMARK    9  A    between atoms: C_23  and  O_44 
ROOT
HETATM    1  C   UNK N   1      32.619  17.485   5.977  0.00  0.00     0.097 A 
HETATM    2  C   UNK N   1      34.162  17.522   8.150  0.00  0.00     0.114 A 
HETATM    3  C   UNK N   1      32.285  14.431   7.846  0.00  0.00     0.198 A 
HETATM    4  C   UNK N   1      33.579  14.414   9.706  0.00  0.00     0.198 A 
HETATM    5  C   UNK N   1      34.397  14.111  11.106  0.00  0.00     0.198 A 
HETATM    6  C   UNK N   1      32.334  16.730   6.150  0.00  0.00     0.107 A 
HETATM    7  C   UNK N   1      33.965  17.630   7.786  0.00  0.00     0.149 A 
HETATM    8  C   UNK N   1      32.760  14.898   8.165  0.00  0.00     0.173 A 
HETATM    9  C   UNK N   1      34.446  15.446  10.149  0.00  0.00     0.179 A 
HETATM   10  C   UNK N   1      34.806  13.960  11.806  0.00  0.00     0.180 A 
HETATM   11  C   UNK N   1      33.490  17.163   7.467  0.00  0.00     0.144 A 
HETATM   12  C   UNK N   1      33.116  15.545   8.177  0.00  0.00     0.180 A 
HETATM   13  C   UNK N   1      34.205  15.694   9.616  0.00  0.00     0.181 A 
HETATM   14  C   UNK N   1      36.083  14.842  12.950  0.00  0.00     0.183 A 
HETATM   15  C   UNK N   1      35.974  14.125  13.345  0.00  0.00     0.204 A 
HETATM   16  C   UNK N   1      35.292  16.863  10.269  0.00  0.00     0.205 A 
HETATM   17  C   UNK N   1      35.483  15.280  11.759  0.00  0.00     0.187 A 
HETATM   18  C   UNK N   1      33.402  16.300   8.004  0.00  0.00     0.182 A 
HETATM   19  C   UNK N   1      35.072  16.728  10.060  0.00  0.00     0.190 A 
HETATM   20  C   UNK N   1      35.107  13.092  12.901  0.00  0.00     0.288 A 
HETATM   21  C   UNK N   1      35.183  16.147  10.664  0.00  0.00     0.292 A 
HETATM   22  C   UNK N   1      35.009  18.584   8.544  0.00  0.00     0.205 A 
HETATM   23  C   UNK N   1      34.582  17.882   8.473  0.00  0.00     0.256 A 
HETATM   24  N   UNK N   1      32.595  16.335   6.825  0.00  0.00    -0.365 N 
ATOM     25  HN  UNK N   1      32.307  15.405   7.129  1.00  0.00     0.161 HD
HETATM   26  O   UNK N   1      32.736  13.748   9.013  0.00  0.00    -0.398 OA
HETATM   27  O   UNK N   1      33.280  13.984   9.609  0.00  0.00    -0.398 OA
HETATM   28  O   UNK N   1      34.228  14.014  10.939  0.00  0.00    -0.398 OA
HETATM   29  O   UNK N   1      31.788  16.371   5.646  0.00  0.00    -0.350 OA
HETATM   30  O   UNK N   1      33.704  18.025   7.111  0.00  0.00    -0.393 OA
HETATM   31  O   UNK N   1      32.499  15.294   7.489  0.00  0.00    -0.391 OA
HETATM   32  O   UNK N   1      33.727  15.618   8.991  0.00  0.00    -0.390 OA
HETATM   33  O   UNK N   1      34.145  16.314   9.055  0.00  0.00    -0.390 OA
HETATM   34  O   UNK N   1      36.411  15.694  12.764  0.00  0.00    -0.390 OA
HETATM   35  O   UNK N   1      36.034  13.506  13.906  0.00  0.00    -0.388 OA
HETATM   36  O   UNK N   1      35.810  17.428  10.574  0.00  0.00    -0.388 OA
HETATM   37  O   UNK N   1      35.518  18.695   9.185  0.00  0.00    -0.646 OA
HETATM   38  O   UNK N   1      34.929  19.176   7.975  0.00  0.00    -0.772 OA
HETATM   39  O   UNK N   1      34.698  13.244  12.201  0.00  0.00    -0.349 OA
HETATM   40  O   UNK N   1      34.665  15.582  10.358  0.00  0.00    -0.348 OA
HETATM   41  O   UNK N   1      35.592  15.996  11.364  0.00  0.00    -0.348 OA
HETATM   42  O   UNK N   1      33.948  16.659   8.507  0.00  0.00    -0.336 OA
HETATM   43  O   UNK N   1      34.642  17.263   9.035  0.00  0.00    -0.336 OA
HETATM   44  H   UNK N   1      33.378  14.172   9.605  0.00  0.00     0.209 HD
HETATM   45  H   UNK N   1      33.303  13.231  10.220  0.00  0.00     0.209 HD
HETATM   46  H   UNK N   1      33.856  13.131  11.086  0.00  0.00     0.209 HD
HETATM   47  H   UNK N   1      31.465  15.514   5.843  0.00  0.00     0.219 HD
HETATM   48  H   UNK N   1      33.062  17.602   6.519  0.00  0.00     0.210 HD
HETATM   49  H   UNK N   1      31.857  14.871   6.897  0.00  0.00     0.210 HD
HETATM   50  H   UNK N   1      34.255  16.419   9.131  0.00  0.00     0.210 HD
HETATM   51  H   UNK N   1      33.558  16.218   8.289  0.00  0.00     0.210 HD
HETATM   52  H   UNK N   1      36.110  16.167  11.972  0.00  0.00     0.210 HD
HETATM   53  H   UNK N   1      36.622  13.601  14.673  0.00  0.00     0.210 HD
HETATM   54  H   UNK N   1      35.938  18.270  10.110  0.00  0.00     0.210 HD
HETATM   55  H   UNK N   1      34.351  19.049   7.247  0.00  0.00     0.167 HD
ENDROOT
BRANCH  20  56
HETATM   56  O   UNK N   1      34.998  12.377  13.296  0.00  0.00    -0.369 OA
HETATM   57  H   UNK N   1      35.635  12.093  13.970  0.00  0.00     0.212 HD
ENDBRANCH  20  56
TORSDOF 9
ENDMDL
MODEL 2
REMARK VINA RESULT:     -14.3      4.438      8.200
REMARK  9 active torsions:
REMARK  status: ('A' for Active; 'I' for Inactive)
REMARK    1  A    between atoms: C_17  and  C_10 
REMARK    2  A    between atoms: C_11  and  N_24 
REMARK    3  A    between atoms: C_18  and  C_12 
REMARK    4  A    between atoms: C_15  and  C_14 
REMARK    5  A    between atoms: C_20  and  O_37 
REMARK    6  A    between atoms: O_40  and  C_20 
REMARK    7  A    between atoms: O_41  and  C_21 
REMARK    8  A    between atoms: O_43  and  C_23 
REMARK    9  A    between atoms: C_23  and  O_44 
ROOT
HETATM    1  C   UNK N   1      32.191  15.796   8.802  0.00  0.00     0.097 A 
HETATM    2  C   UNK N   1      30.029  17.354   8.767  0.00  0.00     0.114 A 
HETATM    3  C   UNK N   1      31.293  16.679   5.433  0.00  0.00     0.198 A 
HETATM    4  C   UNK N   1      29.458  18.005   5.351  0.00  0.00     0.198 A 
HETATM    5  C   UNK N   1      28.167  18.960   4.976  0.00  0.00     0.198 A 
HETATM    6  C   UNK N   1      32.256  15.807   7.979  0.00  0.00     0.107 A 
HETATM    7  C   UNK N   1      30.356  17.110   8.896  0.00  0.00     0.149 A 
HETATM    8  C   UNK N   1      30.832  16.976   5.928  0.00  0.00     0.173 A 
HETATM    9  C   UNK N   1      28.697  18.475   6.453  0.00  0.00     0.179 A 
HETATM   10  C   UNK N   1      27.521  19.439   4.788  0.00  0.00     0.180 A 
HETATM   11  C   UNK N   1      30.817  16.813   8.402  0.00  0.00     0.144 A 
HETATM   12  C   UNK N   1      30.619  17.080   6.627  0.00  0.00     0.180 A 
HETATM   13  C   UNK N   1      29.148  18.130   6.740  0.00  0.00     0.181 A 
HETATM   14  C   UNK N   1      26.114  20.387   5.703  0.00  0.00     0.183 A 
HETATM   15  C   UNK N   1      25.946  20.562   4.915  0.00  0.00     0.204 A 
HETATM   16  C   UNK N   1      28.137  18.770   7.982  0.00  0.00     0.205 A 
HETATM   17  C   UNK N   1      27.157  19.600   6.218  0.00  0.00     0.187 A 
HETATM   18  C   UNK N   1      30.555  17.068   7.450  0.00  0.00     0.182 A 
HETATM   19  C   UNK N   1      28.387  18.600   7.843  0.00  0.00     0.190 A 
HETATM   20  C   UNK N   1      26.707  20.093   3.813  0.00  0.00     0.288 A 
HETATM   21  C   UNK N   1      27.970  18.946   7.194  0.00  0.00     0.292 A 
HETATM   22  C   UNK N   1      29.309  17.792   9.903  0.00  0.00     0.205 A 
HETATM   23  C   UNK N   1      29.597  17.638   9.146  0.00  0.00     0.256 A 
HETATM   24  N   UNK N   1      31.710  16.232   7.528  0.00  0.00    -0.365 N 
ATOM     25  HN  UNK N   1      31.699  16.311   6.512  1.00  0.00     0.161 HD
HETATM   26  O   UNK N   1      30.351  17.412   4.655  0.00  0.00    -0.398 OA
HETATM   27  O   UNK N   1      29.687  17.872   4.890  0.00  0.00    -0.398 OA
HETATM   28  O   UNK N   1      28.362  18.827   4.876  0.00  0.00    -0.398 OA
HETATM   29  O   UNK N   1      32.866  15.394   7.607  0.00  0.00    -0.350 OA
HETATM   30  O   UNK N   1      30.901  16.685   9.347  0.00  0.00    -0.393 OA
HETATM   31  O   UNK N   1      31.378  16.552   6.379  0.00  0.00    -0.391 OA
HETATM   32  O   UNK N   1      29.790  17.673   6.679  0.00  0.00    -0.390 OA
HETATM   33  O   UNK N   1      29.511  17.821   7.429  0.00  0.00    -0.390 OA
HETATM   34  O   UNK N   1      26.033  20.379   6.632  0.00  0.00    -0.390 OA
HETATM   35  O   UNK N   1      25.584  20.872   4.226  0.00  0.00    -0.388 OA
HETATM   36  O   UNK N   1      27.660  19.072   8.583  0.00  0.00    -0.388 OA
HETATM   37  O   UNK N   1      28.640  18.266  10.001  0.00  0.00    -0.646 OA
HETATM   38  O   UNK N   1      29.688  17.473  10.562  0.00  0.00    -0.772 OA
HETATM   39  O   UNK N   1      27.353  19.615   4.000  0.00  0.00    -0.349 OA
HETATM   40  O   UNK N   1      28.448  18.644   6.593  0.00  0.00    -0.348 OA
HETATM   41  O   UNK N   1      27.324  19.424   7.007  0.00  0.00    -0.348 OA
HETATM   42  O   UNK N   1      29.944  17.481   7.821  0.00  0.00    -0.336 OA
HETATM   43  O   UNK N   1      29.234  17.948   8.456  0.00  0.00    -0.336 OA
HETATM   44  H   UNK N   1      29.633  17.897   5.093  0.00  0.00     0.209 HD
HETATM   45  H   UNK N   1      29.318  18.197   4.054  0.00  0.00     0.209 HD
HETATM   46  H   UNK N   1      28.491  18.802   3.916  0.00  0.00     0.209 HD
HETATM   47  H   UNK N   1      32.938  15.408   6.673  0.00  0.00     0.219 HD
HETATM   48  H   UNK N   1      31.618  16.200   8.910  0.00  0.00     0.210 HD
HETATM   49  H   UNK N   1      32.095  16.066   5.941  0.00  0.00     0.210 HD
HETATM   50  H   UNK N   1      29.402  17.891   7.540  0.00  0.00     0.210 HD
HETATM   51  H   UNK N   1      30.298  17.260   7.352  0.00  0.00     0.210 HD
HETATM   52  H   UNK N   1      26.669  19.884   7.171  0.00  0.00     0.210 HD
HETATM   53  H   UNK N   1      24.796  21.433   4.303  0.00  0.00     0.210 HD
HETATM   54  H   UNK N   1      27.857  18.865   9.510  0.00  0.00     0.210 HD
HETATM   55  H   UNK N   1      30.447  16.935  10.451  0.00  0.00     0.167 HD
ENDROOT
BRANCH  20  56
HETATM   56  O   UNK N   1      26.539  20.269   3.024  0.00  0.00    -0.369 OA
HETATM   57  H   UNK N   1      25.773  19.865   2.589  0.00  0.00     0.212 HD
ENDBRANCH  20  56
TORSDOF 9
ENDMDL
MODEL 3
REMARK VINA RESULT:     -14.0     15.378     16.827
REMARK  9 active torsions:
REMARK  status: ('A' for Active; 'I' for Inactive)
REMARK    1  A    between atoms: C_17  and  C_10 
REMARK    2  A    between atoms: C_11  and  N_24 
REMARK    3  A    between atoms: C_18  and  C_12 
REMARK    4  A    between atoms: C_15  and  C_14 
REMARK    5  A    between atoms: C_20  and  O_37 
REMARK    6  A    between atoms: O_40  and  C_20 
REMARK    7  A    between atoms: O_41  and  C_21 
REMARK    8  A    between atoms: O_43  and  C_23 
REMARK    9  A    between atoms: C_23  and  O_44 
ROOT
HETATM    1  C   UNK N   1      18.923  12.552   3.724  0.00  0.00     0.097 A 
HETATM    2  C   UNK N   1      19.378  14.483   1.944  0.00  0.00     0.114 A 
HETATM    3  C   UNK N   1      19.642  15.672   5.363  0.00  0.00     0.198 A 
HETATM    4  C   UNK N   1      20.036  17.347   3.890  0.00  0.00     0.198 A 
HETATM    5  C   UNK N   1      20.364  18.745   3.078  0.00  0.00     0.198 A 
HETATM    6  C   UNK N   1      19.039  13.064   4.361  0.00  0.00     0.107 A 
HETATM    7  C   UNK N   1      19.290  14.106   2.125  0.00  0.00     0.149 A 
HETATM    8  C   UNK N   1      19.659  15.736   4.627  0.00  0.00     0.173 A 
HETATM    9  C   UNK N   1      20.021  17.257   2.474  0.00  0.00     0.179 A 
HETATM   10  C   UNK N   1      20.528  19.445   2.672  0.00  0.00     0.180 A 
HETATM   11  C   UNK N   1      19.272  14.040   2.861  0.00  0.00     0.144 A 
HETATM   12  C   UNK N   1      19.593  15.442   3.954  0.00  0.00     0.180 A 
HETATM   13  C   UNK N   1      19.882  16.661   2.647  0.00  0.00     0.181 A 
HETATM   14  C   UNK N   1      20.677  20.054   0.849  0.00  0.00     0.183 A 
HETATM   15  C   UNK N   1      20.836  20.746   1.269  0.00  0.00     0.204 A 
HETATM   16  C   UNK N   1      19.896  16.694   0.922  0.00  0.00     0.205 A 
HETATM   17  C   UNK N   1      20.378  18.778   1.355  0.00  0.00     0.187 A 
HETATM   18  C   UNK N   1      19.477  14.930   3.317  0.00  0.00     0.182 A 
HETATM   19  C   UNK N   1      19.866  16.571   1.229  0.00  0.00     0.190 A 
HETATM   20  C   UNK N   1      20.852  20.837   2.685  0.00  0.00     0.288 A 
HETATM   21  C   UNK N   1      20.055  17.387   1.341  0.00  0.00     0.292 A 
HETATM   22  C   UNK N   1      19.349  14.334   0.538  0.00  0.00     0.205 A 
HETATM   23  C   UNK N   1      19.408  14.603   1.315  0.00  0.00     0.256 A 
HETATM   24  N   UNK N   1      19.224  13.857   4.225  0.00  0.00    -0.365 N 
ATOM     25  HN  UNK N   1      19.387  14.568   4.937  1.00  0.00     0.161 HD
HETATM   26  O   UNK N   1      19.961  17.041   5.129  0.00  0.00    -0.398 OA
HETATM   27  O   UNK N   1      20.061  17.463   4.408  0.00  0.00    -0.398 OA
HETATM   28  O   UNK N   1      20.339  18.642   3.312  0.00  0.00    -0.398 OA
HETATM   29  O   UNK N   1      18.971  12.782   5.133  0.00  0.00    -0.350 OA
HETATM   30  O   UNK N   1      19.105  13.313   2.261  0.00  0.00    -0.393 OA
HETATM   31  O   UNK N   1      19.475  14.944   4.763  0.00  0.00    -0.391 OA
HETATM   32  O   UNK N   1      19.758  16.137   3.225  0.00  0.00    -0.390 OA
HETATM   33  O   UNK N   1      19.697  15.865   2.461  0.00  0.00    -0.390 OA
HETATM   34  O   UNK N   1      20.547  19.484   0.124  0.00  0.00    -0.390 OA
HETATM   35  O   UNK N   1      21.020  21.542   1.455  0.00  0.00    -0.388 OA
HETATM   36  O   UNK N   1      19.900  16.701   0.098  0.00  0.00    -0.388 OA
HETATM   37  O   UNK N   1      19.473  14.856  -0.090  0.00  0.00    -0.646 OA
HETATM   38  O   UNK N   1      19.166  13.544   0.386  0.00  0.00    -0.772 OA
HETATM   39  O   UNK N   1      20.688  20.138   3.091  0.00  0.00    -0.349 OA
HETATM   40  O   UNK N   1      20.050  17.379   2.167  0.00  0.00    -0.348 OA
HETATM   41  O   UNK N   1      20.219  18.086   0.935  0.00  0.00    -0.348 OA
HETATM   42  O   UNK N   1      19.545  15.211   2.544  0.00  0.00    -0.336 OA
HETATM   43  O   UNK N   1      19.593  15.399   1.501  0.00  0.00    -0.336 OA
HETATM   44  H   UNK N   1      20.041  17.371   4.219  0.00  0.00     0.209 HD
HETATM   45  H   UNK N   1      20.270  18.367   4.693  0.00  0.00     0.209 HD
HETATM   46  H   UNK N   1      20.464  19.192   4.101  0.00  0.00     0.209 HD
HETATM   47  H   UNK N   1      19.103  13.364   5.856  0.00  0.00     0.219 HD
HETATM   48  H   UNK N   1      19.025  12.983   3.170  0.00  0.00     0.210 HD
HETATM   49  H   UNK N   1      19.394  14.613   5.671  0.00  0.00     0.210 HD
HETATM   50  H   UNK N   1      19.702  15.884   2.291  0.00  0.00     0.210 HD
HETATM   51  H   UNK N   1      19.546  15.224   3.172  0.00  0.00     0.210 HD
HETATM   52  H   UNK N   1      20.330  18.550   0.273  0.00  0.00     0.210 HD
HETATM   53  H   UNK N   1      21.172  22.184   0.743  0.00  0.00     0.210 HD
HETATM   54  H   UNK N   1      19.713  15.886  -0.395  0.00  0.00     0.210 HD
HETATM   55  H   UNK N   1      19.026  12.952   1.099  0.00  0.00     0.167 HD
ENDROOT
BRANCH  20  56
HETATM   56  O   UNK N   1      21.011  21.529   3.104  0.00  0.00    -0.369 OA
HETATM   57  H   UNK N   1      20.658  21.647   3.999  0.00  0.00     0.212 HD
ENDBRANCH  20  56
TORSDOF 9
ENDMDL
MODEL 4
REMARK VINA RESULT:     -14.0     10.537     13.553
REMARK  9 active torsions:
REMARK  status: ('A' for Active; 'I' for Inactive)
REMARK    1  A    between atoms: C_17  and  C_10 
REMARK    2  A    between atoms: C_11  and  N_24 
REMARK    3  A    between atoms: C_18  and  C_12 
REMARK    4  A    between atoms: C_15  and  C_14 
REMARK    5  A    between atoms: C_20  and  O_37 
REMARK    6  A    between atoms: O_40  and  C_20 
REMARK    7  A    between atoms: O_41  and  C_21 
REMARK    8  A    between atoms: O_43  and  C_23 
REMARK    9  A    between atoms: C_23  and  O_44 
ROOT
HETATM    1  C   UNK N   1      23.847  11.739  11.994  0.00  0.00     0.097 A 
HETATM    2  C   UNK N   1      21.836  12.774  10.583  0.00  0.00     0.114 A 
HETATM    3  C   UNK N   1      25.061  13.370   9.027  0.00  0.00     0.198 A 
HETATM    4  C   UNK N   1      23.387  14.267   7.793  0.00  0.00     0.198 A 
HETATM    5  C   UNK N   1      22.403  15.012   6.698  0.00  0.00     0.198 A 
HETATM    6  C   UNK N   1      24.410  12.003  11.451  0.00  0.00     0.107 A 
HETATM    7  C   UNK N   1      22.065  12.573  10.884  0.00  0.00     0.149 A 
HETATM    8  C   UNK N   1      24.325  13.411   9.083  0.00  0.00     0.173 A 
HETATM    9  C   UNK N   1      21.999  14.232   8.087  0.00  0.00     0.179 A 
HETATM   10  C   UNK N   1      21.910  15.385   6.150  0.00  0.00     0.180 A 
HETATM   11  C   UNK N   1      22.800  12.532  10.829  0.00  0.00     0.144 A 
HETATM   12  C   UNK N   1      23.698  13.261   9.442  0.00  0.00     0.180 A 
HETATM   13  C   UNK N   1      22.247  13.916   8.579  0.00  0.00     0.181 A 
HETATM   14  C   UNK N   1      20.029  15.723   5.898  0.00  0.00     0.183 A 
HETATM   15  C   UNK N   1      20.354  16.084   5.231  0.00  0.00     0.204 A 
HETATM   16  C   UNK N   1      20.539  13.949   8.813  0.00  0.00     0.205 A 
HETATM   17  C   UNK N   1      20.695  15.045   6.932  0.00  0.00     0.187 A 
HETATM   18  C   UNK N   1      23.135  12.997   9.985  0.00  0.00     0.182 A 
HETATM   19  C   UNK N   1      20.858  13.881   8.874  0.00  0.00     0.190 A 
HETATM   20  C   UNK N   1      21.742  16.119   4.936  0.00  0.00     0.288 A 
HETATM   21  C   UNK N   1      20.862  14.311   8.146  0.00  0.00     0.292 A 
HETATM   22  C   UNK N   1      20.466  12.708  10.927  0.00  0.00     0.205 A 
HETATM   23  C   UNK N   1      21.199  12.842  10.575  0.00  0.00     0.256 A 
HETATM   24  N   UNK N   1      24.173  12.423  10.782  0.00  0.00    -0.365 N 
ATOM     25  HN  UNK N   1      24.783  12.792  10.054  1.00  0.00     0.161 HD
HETATM   26  O   UNK N   1      24.651  14.095   7.871  0.00  0.00    -0.398 OA
HETATM   27  O   UNK N   1      23.884  14.324   7.612  0.00  0.00    -0.398 OA
HETATM   28  O   UNK N   1      22.647  14.956   6.753  0.00  0.00    -0.398 OA
HETATM   29  O   UNK N   1      25.210  11.848  11.579  0.00  0.00    -0.350 OA
HETATM   30  O   UNK N   1      22.302  12.154  11.554  0.00  0.00    -0.393 OA
HETATM   31  O   UNK N   1      24.563  12.991   9.753  0.00  0.00    -0.391 OA
HETATM   32  O   UNK N   1      22.887  13.635   8.947  0.00  0.00    -0.390 OA
HETATM   33  O   UNK N   1      22.167  13.498   9.301  0.00  0.00    -0.390 OA
HETATM   34  O   UNK N   1      19.386  15.428   6.505  0.00  0.00    -0.390 OA
HETATM   35  O   UNK N   1      20.434  16.502   4.509  0.00  0.00    -0.388 OA
HETATM   36  O   UNK N   1      19.723  13.960   8.933  0.00  0.00    -0.388 OA
HETATM   37  O   UNK N   1      19.778  12.989  10.568  0.00  0.00    -0.646 OA
HETATM   38  O   UNK N   1      20.419  12.292  11.638  0.00  0.00    -0.772 OA
HETATM   39  O   UNK N   1      22.234  15.747   5.484  0.00  0.00    -0.349 OA
HETATM   40  O   UNK N   1      21.679  14.300   8.027  0.00  0.00    -0.348 OA
HETATM   41  O   UNK N   1      20.370  14.683   7.599  0.00  0.00    -0.348 OA
HETATM   42  O   UNK N   1      22.335  13.152   9.858  0.00  0.00    -0.336 OA
HETATM   43  O   UNK N   1      21.279  13.261   9.853  0.00  0.00    -0.336 OA
HETATM   44  H   UNK N   1      23.709  14.277   7.721  0.00  0.00     0.209 HD
HETATM   45  H   UNK N   1      24.047  14.798   6.782  0.00  0.00     0.209 HD
HETATM   46  H   UNK N   1      23.355  15.239   6.154  0.00  0.00     0.209 HD
HETATM   47  H   UNK N   1      25.849  12.148  10.963  0.00  0.00     0.219 HD
HETATM   48  H   UNK N   1      23.243  11.971  11.703  0.00  0.00     0.210 HD
HETATM   49  H   UNK N   1      25.503  12.809   9.903  0.00  0.00     0.210 HD
HETATM   50  H   UNK N   1      21.997  13.510   9.310  0.00  0.00     0.210 HD
HETATM   51  H   UNK N   1      22.953  13.154   9.751  0.00  0.00     0.210 HD
HETATM   52  H   UNK N   1      19.655  14.934   7.295  0.00  0.00     0.210 HD
HETATM   53  H   UNK N   1      19.647  16.848   4.058  0.00  0.00     0.210 HD
HETATM   54  H   UNK N   1      19.342  13.535   9.717  0.00  0.00     0.210 HD
HETATM   55  H   UNK N   1      21.201  11.973  12.046  0.00  0.00     0.167 HD
ENDROOT
BRANCH  20  56
HETATM   56  O   UNK N   1      22.065  16.481   4.269  0.00  0.00    -0.369 OA
HETATM   57  H   UNK N   1      21.806  16.186   3.383  0.00  0.00     0.212 HD
ENDBRANCH  20  56
TORSDOF 9
ENDMDL
MODEL 5
REMARK VINA RESULT:     -13.8      0.794      2.924
REMARK  9 active torsions:
REMARK  status: ('A' for Active; 'I' for Inactive)
REMARK    1  A    between atoms: C_17  and  C_10 
REMARK    2  A    between atoms: C_11  and  N_24 
REMARK    3  A    between atoms: C_18  and  C_12 
REMARK    4  A    between atoms: C_15  and  C_14 
REMARK    5  A    between atoms: C_20  and  O_37 
REMARK    6  A    between atoms: O_40  and  C_20 
REMARK    7  A    between atoms: O_41  and  C_21 
REMARK    8  A    between atoms: O_43  and  C_23 
REMARK    9  A    between atoms: C_23  and  O_44 
ROOT
HETATM    1  C   UNK N   1      32.965  17.020   5.875  0.00  0.00     0.097 A 
HETATM    2  C   UNK N   1      33.171  15.094   7.706  0.00  0.00     0.114 A 
HETATM    3  C   UNK N   1      34.979  18.094   8.655  0.00  0.00     0.198 A 
HETATM    4  C   UNK N   1      35.184  16.488  10.240  0.00  0.00     0.198 A 
HETATM    5  C   UNK N   1      35.511  15.536  11.546  0.00  0.00     0.198 A 
HETATM    6  C   UNK N   1      33.432  17.538   6.317  0.00  0.00     0.107 A 
HETATM    7  C   UNK N   1      33.068  15.316   7.355  0.00  0.00     0.149 A 
HETATM    8  C   UNK N   1      34.734  17.402   8.742  0.00  0.00     0.173 A 
HETATM    9  C   UNK N   1      34.616  15.188  10.213  0.00  0.00     0.179 A 
HETATM   10  C   UNK N   1      35.675  15.059  12.200  0.00  0.00     0.180 A 
HETATM   11  C   UNK N   1      33.313  16.007   7.266  0.00  0.00     0.144 A 
HETATM   12  C   UNK N   1      34.351  16.820   8.500  0.00  0.00     0.180 A 
HETATM   13  C   UNK N   1      34.412  15.434   9.663  0.00  0.00     0.181 A 
HETATM   14  C   UNK N   1      35.270  13.282  12.827  0.00  0.00     0.183 A 
HETATM   15  C   UNK N   1      35.738  13.572  13.442  0.00  0.00     0.204 A 
HETATM   16  C   UNK N   1      33.785  13.830   9.762  0.00  0.00     0.205 A 
HETATM   17  C   UNK N   1      34.884  13.933  11.645  0.00  0.00     0.187 A 
HETATM   18  C   UNK N   1      33.883  16.302   8.059  0.00  0.00     0.182 A 
HETATM   19  C   UNK N   1      33.844  14.133   9.637  0.00  0.00     0.190 A 
HETATM   20  C   UNK N   1      36.306  14.873  13.468  0.00  0.00     0.288 A 
HETATM   21  C   UNK N   1      34.253  14.119  10.377  0.00  0.00     0.292 A 
HETATM   22  C   UNK N   1      32.580  13.811   7.626  0.00  0.00     0.205 A 
HETATM   23  C   UNK N   1      32.990  14.493   7.840  0.00  0.00     0.256 A 
HETATM   24  N   UNK N   1      33.739  17.298   7.045  0.00  0.00    -0.365 N 
ATOM     25  HN  UNK N   1      34.324  17.856   7.665  1.00  0.00     0.161 HD
HETATM   26  O   UNK N   1      35.508  17.681   9.912  0.00  0.00    -0.398 OA
HETATM   27  O   UNK N   1      35.430  16.952  10.325  0.00  0.00    -0.398 OA
HETATM   28  O   UNK N   1      35.552  15.767  11.443  0.00  0.00    -0.398 OA
HETATM   29  O   UNK N   1      33.593  18.294   6.030  0.00  0.00    -0.350 OA
HETATM   30  O   UNK N   1      32.762  15.555   6.627  0.00  0.00    -0.393 OA
HETATM   31  O   UNK N   1      34.428  17.641   8.015  0.00  0.00    -0.391 OA
HETATM   32  O   UNK N   1      34.392  16.045   9.163  0.00  0.00    -0.390 OA
HETATM   33  O   UNK N   1      33.985  15.375   8.945  0.00  0.00    -0.390 OA
HETATM   34  O   UNK N   1      34.743  12.691  12.336  0.00  0.00    -0.390 OA
HETATM   35  O   UNK N   1      36.165  13.631  14.160  0.00  0.00    -0.388 OA
HETATM   36  O   UNK N   1      33.481  13.065   9.800  0.00  0.00    -0.388 OA
HETATM   37  O   UNK N   1      32.581  13.154   8.126  0.00  0.00    -0.646 OA
HETATM   38  O   UNK N   1      32.168  13.784   6.911  0.00  0.00    -0.772 OA
HETATM   39  O   UNK N   1      36.143  15.349  12.815  0.00  0.00    -0.349 OA
HETATM   40  O   UNK N   1      34.557  14.886  10.337  0.00  0.00    -0.348 OA
HETATM   41  O   UNK N   1      34.416  13.643  11.030  0.00  0.00    -0.348 OA
HETATM   42  O   UNK N   1      33.722  15.546   8.346  0.00  0.00    -0.336 OA
HETATM   43  O   UNK N   1      33.418  14.552   8.559  0.00  0.00    -0.336 OA
HETATM   44  H   UNK N   1      35.318  16.790  10.249  0.00  0.00     0.209 HD
HETATM   45  H   UNK N   1      35.942  17.087  11.138  0.00  0.00     0.209 HD
HETATM   46  H   UNK N   1      36.093  16.420  11.913  0.00  0.00     0.209 HD
HETATM   47  H   UNK N   1      34.124  18.881   6.531  0.00  0.00     0.219 HD
HETATM   48  H   UNK N   1      32.952  16.444   6.290  0.00  0.00     0.210 HD
HETATM   49  H   UNK N   1      34.618  18.531   7.677  0.00  0.00     0.210 HD
HETATM   50  H   UNK N   1      33.930  15.215   8.969  0.00  0.00     0.210 HD
HETATM   51  H   UNK N   1      33.961  16.126   8.333  0.00  0.00     0.210 HD
HETATM   52  H   UNK N   1      34.378  12.962  11.479  0.00  0.00     0.210 HD
HETATM   53  H   UNK N   1      36.189  12.879  14.773  0.00  0.00     0.210 HD
HETATM   54  H   UNK N   1      32.930  12.724   9.077  0.00  0.00     0.210 HD
HETATM   55  H   UNK N   1      32.167  14.529   6.343  0.00  0.00     0.167 HD
ENDROOT
BRANCH  20  56
HETATM   56  O   UNK N   1      36.774  15.162  14.083  0.00  0.00    -0.369 OA
HETATM   57  H   UNK N   1      37.473  15.807  13.899  0.00  0.00     0.212 HD
ENDBRANCH  20  56
TORSDOF 9
ENDMDL
MODEL 6
REMARK VINA RESULT:     -13.8      3.293      5.379
REMARK  9 active torsions:
REMARK  status: ('A' for Active; 'I' for Inactive)
REMARK    1  A    between atoms: C_17  and  C_10 
REMARK    2  A    between atoms: C_11  and  N_24 
REMARK    3  A    between atoms: C_18  and  C_12 
REMARK    4  A    between atoms: C_15  and  C_14 
REMARK    5  A    between atoms: C_20  and  O_37 
REMARK    6  A    between atoms: O_40  and  C_20 
REMARK    7  A    between atoms: O_41  and  C_21 
REMARK    8  A    between atoms: O_43  and  C_23 
REMARK    9  A    between atoms: C_23  and  O_44 
ROOT
HETATM    1  C   UNK N   1      26.859  18.768   5.688  0.00  0.00     0.097 A 
HETATM    2  C   UNK N   1      28.516  18.003   7.630  0.00  0.00     0.114 A 
HETATM    3  C   UNK N   1      29.979  17.598   4.334  0.00  0.00     0.198 A 
HETATM    4  C   UNK N   1      31.423  16.935   5.949  0.00  0.00     0.198 A 
HETATM    5  C   UNK N   1      32.669  16.388   6.881  0.00  0.00     0.198 A 
HETATM    6  C   UNK N   1      27.407  18.581   5.099  0.00  0.00     0.107 A 
HETATM    7  C   UNK N   1      28.176  18.150   7.417  0.00  0.00     0.149 A 
HETATM    8  C   UNK N   1      29.968  17.562   5.072  0.00  0.00     0.173 A 
HETATM    9  C   UNK N   1      31.198  16.949   7.350  0.00  0.00     0.179 A 
HETATM   10  C   UNK N   1      33.293  16.114   7.347  0.00  0.00     0.180 A 
HETATM   11  C   UNK N   1      28.186  18.186   6.679  0.00  0.00     0.144 A 
HETATM   12  C   UNK N   1      29.622  17.665   5.716  0.00  0.00     0.180 A 
HETATM   13  C   UNK N   1      30.650  17.180   7.125  0.00  0.00     0.181 A 
HETATM   14  C   UNK N   1      33.692  15.855   9.215  0.00  0.00     0.183 A 
HETATM   15  C   UNK N   1      34.390  15.596   8.859  0.00  0.00     0.204 A 
HETATM   16  C   UNK N   1      30.512  17.142   8.844  0.00  0.00     0.205 A 
HETATM   17  C   UNK N   1      32.532  16.350   8.599  0.00  0.00     0.187 A 
HETATM   18  C   UNK N   1      29.074  17.852   6.304  0.00  0.00     0.182 A 
HETATM   19  C   UNK N   1      30.425  17.194   8.527  0.00  0.00     0.190 A 
HETATM   20  C   UNK N   1      34.615  15.582   7.458  0.00  0.00     0.288 A 
HETATM   21  C   UNK N   1      31.210  16.883   8.489  0.00  0.00     0.292 A 
HETATM   22  C   UNK N   1      28.236  18.040   9.016  0.00  0.00     0.205 A 
HETATM   23  C   UNK N   1      28.567  17.948   8.267  0.00  0.00     0.256 A 
HETATM   24  N   UNK N   1      28.146  18.276   5.305  0.00  0.00    -0.365 N 
ATOM     25  HN  UNK N   1      28.891  18.014   4.660  1.00  0.00     0.161 HD
HETATM   26  O   UNK N   1      31.255  17.070   4.689  0.00  0.00    -0.398 OA
HETATM   27  O   UNK N   1      31.584  16.898   5.443  0.00  0.00    -0.398 OA
HETATM   28  O   UNK N   1      32.595  16.431   6.639  0.00  0.00    -0.398 OA
HETATM   29  O   UNK N   1      27.216  18.700   4.305  0.00  0.00    -0.350 OA
HETATM   30  O   UNK N   1      27.437  18.455   7.211  0.00  0.00    -0.393 OA
HETATM   31  O   UNK N   1      29.230  17.868   4.866  0.00  0.00    -0.391 OA
HETATM   32  O   UNK N   1      30.211  17.389   6.503  0.00  0.00    -0.390 OA
HETATM   33  O   UNK N   1      29.877  17.482   7.239  0.00  0.00    -0.390 OA
HETATM   34  O   UNK N   1      33.080  16.062   9.887  0.00  0.00    -0.390 OA
HETATM   35  O   UNK N   1      35.163  15.294   8.745  0.00  0.00    -0.388 OA
HETATM   36  O   UNK N   1      30.437  17.127   9.665  0.00  0.00    -0.388 OA
HETATM   37  O   UNK N   1      28.669  17.831   9.688  0.00  0.00    -0.646 OA
HETATM   38  O   UNK N   1      27.472  18.340   9.097  0.00  0.00    -0.772 OA
HETATM   39  O   UNK N   1      33.991  15.855   6.992  0.00  0.00    -0.349 OA
HETATM   40  O   UNK N   1      31.285  16.898   7.667  0.00  0.00    -0.348 OA
HETATM   41  O   UNK N   1      31.833  16.609   8.955  0.00  0.00    -0.348 OA
HETATM   42  O   UNK N   1      29.265  17.733   7.098  0.00  0.00    -0.336 OA
HETATM   43  O   UNK N   1      29.341  17.646   8.153  0.00  0.00    -0.336 OA
HETATM   44  H   UNK N   1      31.479  16.931   5.623  0.00  0.00     0.209 HD
HETATM   45  H   UNK N   1      32.469  16.556   5.241  0.00  0.00     0.209 HD
HETATM   46  H   UNK N   1      33.193  16.232   5.903  0.00  0.00     0.209 HD
HETATM   47  H   UNK N   1      27.838  18.488   3.638  0.00  0.00     0.219 HD
HETATM   48  H   UNK N   1      27.213  18.595   6.278  0.00  0.00     0.210 HD
HETATM   49  H   UNK N   1      29.006  18.007   3.933  0.00  0.00     0.210 HD
HETATM   50  H   UNK N   1      29.878  17.472   7.410  0.00  0.00     0.210 HD
HETATM   51  H   UNK N   1      29.339  17.737   6.475  0.00  0.00     0.210 HD
HETATM   52  H   UNK N   1      32.209  16.422   9.655  0.00  0.00     0.210 HD
HETATM   53  H   UNK N   1      35.702  15.038   9.511  0.00  0.00     0.210 HD
HETATM   54  H   UNK N   1      29.617  17.432  10.083  0.00  0.00     0.210 HD
HETATM   55  H   UNK N   1      26.980  18.577   8.335  0.00  0.00     0.167 HD
ENDROOT
BRANCH  20  56
HETATM   56  O   UNK N   1      35.313  15.323   7.103  0.00  0.00    -0.369 OA
HETATM   57  H   UNK N   1      35.283  14.877   6.243  0.00  0.00     0.212 HD
ENDBRANCH  20  56
TORSDOF 9
ENDMDL
MODEL 7
REMARK VINA RESULT:     -13.3      1.446      5.477
REMARK  9 active torsions:
REMARK  status: ('A' for Active; 'I' for Inactive)
REMARK    1  A    between atoms: C_17  and  C_10 
REMARK    2  A    between atoms: C_11  and  N_24 
REMARK    3  A    between atoms: C_18  and  C_12 
REMARK    4  A    between atoms: C_15  and  C_14 
REMARK    5  A    between atoms: C_20  and  O_37 
REMARK    6  A    between atoms: O_40  and  C_20 
REMARK    7  A    between atoms: O_41  and  C_21 
REMARK    8  A    between atoms: O_43  and  C_23 
REMARK    9  A    between atoms: C_23  and  O_44 
ROOT
HETATM    1  C   UNK N   1      34.745  14.880  11.562  0.00  0.00     0.097 A 
HETATM    2  C   UNK N   1      34.620  16.528   9.471  0.00  0.00     0.114 A 
HETATM    3  C   UNK N   1      32.777  13.452   8.911  0.00  0.00     0.198 A 
HETATM    4  C   UNK N   1      32.641  14.818   7.109  0.00  0.00     0.198 A 
HETATM    5  C   UNK N   1      32.364  15.579   5.672  0.00  0.00     0.198 A 
HETATM    6  C   UNK N   1      34.278  14.312  11.186  0.00  0.00     0.107 A 
HETATM    7  C   UNK N   1      34.709  16.357   9.853  0.00  0.00     0.149 A 
HETATM    8  C   UNK N   1      33.038  14.120   8.733  0.00  0.00     0.173 A 
HETATM    9  C   UNK N   1      33.233  16.099   6.965  0.00  0.00     0.179 A 
HETATM   10  C   UNK N   1      32.225  15.960   4.953  0.00  0.00     0.180 A 
HETATM   11  C   UNK N   1      34.450  15.689  10.032  0.00  0.00     0.144 A 
HETATM   12  C   UNK N   1      33.426  14.725   8.899  0.00  0.00     0.180 A 
HETATM   13  C   UNK N   1      33.419  15.932   7.550  0.00  0.00     0.181 A 
HETATM   14  C   UNK N   1      32.679  17.623   4.091  0.00  0.00     0.183 A 
HETATM   15  C   UNK N   1      32.220  17.255   3.511  0.00  0.00     0.204 A 
HETATM   16  C   UNK N   1      34.079  17.495   7.241  0.00  0.00     0.205 A 
HETATM   17  C   UNK N   1      33.024  17.141   5.363  0.00  0.00     0.187 A 
HETATM   18  C   UNK N   1      33.893  15.293   9.275  0.00  0.00     0.182 A 
HETATM   19  C   UNK N   1      34.012  17.214   7.406  0.00  0.00     0.190 A 
HETATM   20  C   UNK N   1      31.628  15.974   3.655  0.00  0.00     0.288 A 
HETATM   21  C   UNK N   1      33.621  17.128   6.661  0.00  0.00     0.292 A 
HETATM   22  C   UNK N   1      35.233  17.800   9.384  0.00  0.00     0.205 A 
HETATM   23  C   UNK N   1      34.815  17.100   9.258  0.00  0.00     0.256 A 
HETATM   24  N   UNK N   1      33.994  14.449  10.424  0.00  0.00    -0.365 N 
ATOM     25  HN  UNK N   1      33.413  13.818   9.874  1.00  0.00     0.161 HD
HETATM   26  O   UNK N   1      32.287  13.690   7.595  0.00  0.00    -0.398 OA
HETATM   27  O   UNK N   1      32.389  14.350   7.084  0.00  0.00    -0.398 OA
HETATM   28  O   UNK N   1      32.316  15.365   5.806  0.00  0.00    -0.398 OA
HETATM   29  O   UNK N   1      34.096  13.607  11.574  0.00  0.00    -0.350 OA
HETATM   30  O   UNK N   1      34.993  16.219  10.615  0.00  0.00    -0.393 OA
HETATM   31  O   UNK N   1      33.322  13.982   9.495  0.00  0.00    -0.391 OA
HETATM   32  O   UNK N   1      33.416  15.398   8.132  0.00  0.00    -0.390 OA
HETATM   33  O   UNK N   1      33.830  16.086   8.263  0.00  0.00    -0.390 OA
HETATM   34  O   UNK N   1      33.205  18.270   4.506  0.00  0.00    -0.390 OA
HETATM   35  O   UNK N   1      31.809  17.101   2.798  0.00  0.00    -0.388 OA
HETATM   36  O   UNK N   1      34.399  18.242   7.102  0.00  0.00    -0.388 OA
HETATM   37  O   UNK N   1      35.257  18.378   8.795  0.00  0.00    -0.646 OA
HETATM   38  O   UNK N   1      35.628  17.922  10.097  0.00  0.00    -0.772 OA
HETATM   39  O   UNK N   1      31.767  15.593   4.373  0.00  0.00    -0.349 OA
HETATM   40  O   UNK N   1      33.301  16.380   6.801  0.00  0.00    -0.348 OA
HETATM   41  O   UNK N   1      33.482  17.509   5.943  0.00  0.00    -0.348 OA
HETATM   42  O   UNK N   1      34.076  15.998   8.888  0.00  0.00    -0.336 OA
HETATM   43  O   UNK N   1      34.404  16.946   8.544  0.00  0.00    -0.336 OA
HETATM   44  H   UNK N   1      32.502  14.520   7.139  0.00  0.00     0.209 HD
HETATM   45  H   UNK N   1      31.894  14.109   6.285  0.00  0.00     0.209 HD
HETATM   46  H   UNK N   1      31.774  14.660   5.420  0.00  0.00     0.209 HD
HETATM   47  H   UNK N   1      33.566  12.962  11.147  0.00  0.00     0.219 HD
HETATM   48  H   UNK N   1      34.779  15.390  11.070  0.00  0.00     0.210 HD
HETATM   49  H   UNK N   1      33.107  13.153   9.950  0.00  0.00     0.210 HD
HETATM   50  H   UNK N   1      33.889  16.239   8.218  0.00  0.00     0.210 HD
HETATM   51  H   UNK N   1      33.825  15.429   8.977  0.00  0.00     0.210 HD
HETATM   52  H   UNK N   1      33.544  18.118   5.402  0.00  0.00     0.210 HD
HETATM   53  H   UNK N   1      31.815  17.759   2.083  0.00  0.00     0.210 HD
HETATM   54  H   UNK N   1      34.938  18.674   7.784  0.00  0.00     0.210 HD
HETATM   55  H   UNK N   1      35.602  17.265  10.766  0.00  0.00     0.167 HD
ENDROOT
BRANCH  20  56
HETATM   56  O   UNK N   1      31.170  15.607   3.075  0.00  0.00    -0.369 OA
HETATM   57  H   UNK N   1      30.675  16.143   2.437  0.00  0.00     0.212 HD
ENDBRANCH  20  56
TORSDOF 9
ENDMDL
MODEL 8
REMARK VINA RESULT:     -13.1      2.993      6.902
REMARK  9 active torsions:
REMARK  status: ('A' for Active; 'I' for Inactive)
REMARK    1  A    between atoms: C_17  and  C_10 
REMARK    2  A    between atoms: C_11  and  N_24 
REMARK    3  A    between atoms: C_18  and  C_12 
REMARK    4  A    between atoms: C_15  and  C_14 
REMARK    5  A    between atoms: C_20  and  O_37 
REMARK    6  A    between atoms: O_40  and  C_20 
REMARK    7  A    between atoms: O_41  and  C_21 
REMARK    8  A    between atoms: O_43  and  C_23 
REMARK    9  A    between atoms: C_23  and  O_44 
ROOT
HETATM    1  C   UNK N   1      35.406  11.618  17.411  0.00  0.00     0.097 A 
HETATM    2  C   UNK N   1      36.136  13.427  15.595  0.00  0.00     0.114 A 
HETATM    3  C   UNK N   1      34.101  10.784  14.165  0.00  0.00     0.198 A 
HETATM    4  C   UNK N   1      34.695  12.295  12.585  0.00  0.00     0.198 A 
HETATM    5  C   UNK N   1      34.961  13.207  11.237  0.00  0.00     0.198 A 
HETATM    6  C   UNK N   1      34.989  11.175  16.853  0.00  0.00     0.107 A 
HETATM    7  C   UNK N   1      36.085  13.212  15.961  0.00  0.00     0.149 A 
HETATM    8  C   UNK N   1      34.497  11.407  14.152  0.00  0.00     0.173 A 
HETATM    9  C   UNK N   1      35.486  13.458  12.773  0.00  0.00     0.179 A 
HETATM   10  C   UNK N   1      35.093  13.664  10.562  0.00  0.00     0.180 A 
HETATM   11  C   UNK N   1      35.689  12.589  15.976  0.00  0.00     0.144 A 
HETATM   12  C   UNK N   1      34.906  11.918  14.494  0.00  0.00     0.180 A 
HETATM   13  C   UNK N   1      35.468  13.212  13.360  0.00  0.00     0.181 A 
HETATM   14  C   UNK N   1      36.018  15.284  10.077  0.00  0.00     0.183 A 
HETATM   15  C   UNK N   1      35.697  15.053   9.352  0.00  0.00     0.204 A 
HETATM   16  C   UNK N   1      36.412  14.653  13.445  0.00  0.00     0.205 A 
HETATM   17  C   UNK N   1      35.905  14.647  11.322  0.00  0.00     0.187 A 
HETATM   18  C   UNK N   1      35.323  12.361  15.052  0.00  0.00     0.182 A 
HETATM   19  C   UNK N   1      36.259  14.376  13.548  0.00  0.00     0.190 A 
HETATM   20  C   UNK N   1      34.906  13.889   9.164  0.00  0.00     0.288 A 
HETATM   21  C   UNK N   1      36.092  14.422  12.721  0.00  0.00     0.292 A 
HETATM   22  C   UNK N   1      36.929  14.572  15.842  0.00  0.00     0.205 A 
HETATM   23  C   UNK N   1      36.467  13.971  15.519  0.00  0.00     0.256 A 
HETATM   24  N   UNK N   1      34.962  11.422  16.067  0.00  0.00    -0.365 N 
ATOM     25  HN  UNK N   1      34.478  10.951  15.303  1.00  0.00     0.161 HD
HETATM   26  O   UNK N   1      34.053  11.212  12.807  0.00  0.00    -0.398 OA
HETATM   27  O   UNK N   1      34.394  11.883  12.432  0.00  0.00    -0.398 OA
HETATM   28  O   UNK N   1      34.845  12.995  11.324  0.00  0.00    -0.398 OA
HETATM   29  O   UNK N   1      34.601  10.484  17.083  0.00  0.00    -0.350 OA
HETATM   30  O   UNK N   1      36.113  12.965  16.748  0.00  0.00    -0.393 OA
HETATM   31  O   UNK N   1      34.525  11.160  14.938  0.00  0.00    -0.391 OA
HETATM   32  O   UNK N   1      35.217  12.642  13.846  0.00  0.00    -0.390 OA
HETATM   33  O   UNK N   1      35.673  13.232  14.172  0.00  0.00    -0.390 OA
HETATM   34  O   UNK N   1      36.491  15.791  10.699  0.00  0.00    -0.390 OA
HETATM   35  O   UNK N   1      35.492  15.033   8.540  0.00  0.00    -0.388 OA
HETATM   36  O   UNK N   1      36.865  15.340  13.496  0.00  0.00    -0.388 OA
HETATM   37  O   UNK N   1      37.207  15.183  15.361  0.00  0.00    -0.646 OA
HETATM   38  O   UNK N   1      37.115  14.564  16.645  0.00  0.00    -0.772 OA
HETATM   39  O   UNK N   1      34.774  13.433   9.838  0.00  0.00    -0.349 OA
HETATM   40  O   UNK N   1      35.639  13.734  12.671  0.00  0.00    -0.348 OA
HETATM   41  O   UNK N   1      36.225  14.879  12.047  0.00  0.00    -0.348 OA
HETATM   42  O   UNK N   1      35.712  13.051  14.823  0.00  0.00    -0.336 OA
HETATM   43  O   UNK N   1      36.261  13.951  14.706  0.00  0.00    -0.336 OA
HETATM   44  H   UNK N   1      34.510  12.025  12.538  0.00  0.00     0.209 HD
HETATM   45  H   UNK N   1      34.121  11.800  11.505  0.00  0.00     0.209 HD
HETATM   46  H   UNK N   1      34.340  12.432  10.718  0.00  0.00     0.209 HD
HETATM   47  H   UNK N   1      34.128   9.982  16.449  0.00  0.00     0.219 HD
HETATM   48  H   UNK N   1      35.656  12.153  17.017  0.00  0.00     0.210 HD
HETATM   49  H   UNK N   1      34.068  10.348  15.207  0.00  0.00     0.210 HD
HETATM   50  H   UNK N   1      35.764  13.376  14.165  0.00  0.00     0.210 HD
HETATM   51  H   UNK N   1      35.365  12.531  14.766  0.00  0.00     0.210 HD
HETATM   52  H   UNK N   1      36.530  15.509  11.626  0.00  0.00     0.210 HD
HETATM   53  H   UNK N   1      35.801  15.735   7.945  0.00  0.00     0.210 HD
HETATM   54  H   UNK N   1      37.242  15.612  14.347  0.00  0.00     0.210 HD
HETATM   55  H   UNK N   1      36.799  13.870  17.191  0.00  0.00     0.167 HD
ENDROOT
BRANCH  20  56
HETATM   56  O   UNK N   1      34.586  13.659   8.439  0.00  0.00    -0.369 OA
HETATM   57  H   UNK N   1      33.782  13.119   8.414  0.00  0.00     0.212 HD
ENDBRANCH  20  56
TORSDOF 9
ENDMDL
MODEL 9
REMARK VINA RESULT:     -13.0      3.231      5.451
REMARK  9 active torsions:
REMARK  status: ('A' for Active; 'I' for Inactive)
REMARK    1  A    between atoms: C_17  and  C_10 
REMARK    2  A    between atoms: C_11  and  N_24 
REMARK    3  A    between atoms: C_18  and  C_12 
REMARK    4  A    between atoms: C_15  and  C_14 
REMARK    5  A    between atoms: C_20  and  O_37 
REMARK    6  A    between atoms: O_40  and  C_20 
REMARK    7  A    between atoms: O_41  and  C_21 
REMARK    8  A    between atoms: O_43  and  C_23 
REMARK    9  A    between atoms: C_23  and  O_44 
ROOT
HETATM    1  C   UNK N   1      27.212  19.675   6.147  0.00  0.00     0.097 A 
HETATM    2  C   UNK N   1      29.110  17.860   5.691  0.00  0.00     0.114 A 
HETATM    3  C   UNK N   1      28.788  18.659   9.216  0.00  0.00     0.198 A 
HETATM    4  C   UNK N   1      30.410  17.114   8.880  0.00  0.00     0.198 A 
HETATM    5  C   UNK N   1      31.627  16.002   8.952  0.00  0.00     0.198 A 
HETATM    6  C   UNK N   1      27.350  19.665   6.961  0.00  0.00     0.107 A 
HETATM    7  C   UNK N   1      28.794  18.144   5.639  0.00  0.00     0.149 A 
HETATM    8  C   UNK N   1      29.075  18.311   8.631  0.00  0.00     0.173 A 
HETATM    9  C   UNK N   1      30.817  16.562   7.637  0.00  0.00     0.179 A 
HETATM   10  C   UNK N   1      32.235  15.445   8.988  0.00  0.00     0.180 A 
HETATM   11  C   UNK N   1      28.507  18.492   6.224  0.00  0.00     0.144 A 
HETATM   12  C   UNK N   1      29.097  18.187   7.903  0.00  0.00     0.180 A 
HETATM   13  C   UNK N   1      30.355  16.962   7.461  0.00  0.00     0.181 A 
HETATM   14  C   UNK N   1      33.250  14.337   7.780  0.00  0.00     0.183 A 
HETATM   15  C   UNK N   1      33.581  14.135   8.508  0.00  0.00     0.204 A 
HETATM   16  C   UNK N   1      30.947  16.212   6.025  0.00  0.00     0.205 A 
HETATM   17  C   UNK N   1      32.218  15.252   7.517  0.00  0.00     0.187 A 
HETATM   18  C   UNK N   1      28.960  18.197   7.089  0.00  0.00     0.182 A 
HETATM   19  C   UNK N   1      30.761  16.410   6.217  0.00  0.00     0.190 A 
HETATM   20  C   UNK N   1      33.175  14.687   9.751  0.00  0.00     0.288 A 
HETATM   21  C   UNK N   1      31.278  16.010   6.752  0.00  0.00     0.292 A 
HETATM   22  C   UNK N   1      29.473  17.345   4.424  0.00  0.00     0.205 A 
HETATM   23  C   UNK N   1      29.398  17.527   5.225  0.00  0.00     0.256 A 
HETATM   24  N   UNK N   1      27.932  19.172   7.275  0.00  0.00    -0.365 N 
ATOM     25  HN  UNK N   1      28.180  19.083   8.260  1.00  0.00     0.161 HD
HETATM   26  O   UNK N   1      29.794  17.807   9.759  0.00  0.00    -0.398 OA
HETATM   27  O   UNK N   1      30.318  17.270   9.380  0.00  0.00    -0.398 OA
HETATM   28  O   UNK N   1      31.480  16.157   9.093  0.00  0.00    -0.398 OA
HETATM   29  O   UNK N   1      26.904  20.147   7.460  0.00  0.00    -0.350 OA
HETATM   30  O   UNK N   1      28.212  18.637   5.325  0.00  0.00    -0.393 OA
HETATM   31  O   UNK N   1      28.492  18.803   8.317  0.00  0.00    -0.391 OA
HETATM   32  O   UNK N   1      29.809  17.495   7.665  0.00  0.00    -0.390 OA
HETATM   33  O   UNK N   1      29.877  17.320   6.873  0.00  0.00    -0.390 OA
HETATM   34  O   UNK N   1      33.103  14.342   6.860  0.00  0.00    -0.390 OA
HETATM   35  O   UNK N   1      34.060  13.777   9.096  0.00  0.00    -0.388 OA
HETATM   36  O   UNK N   1      31.223  15.859   5.333  0.00  0.00    -0.388 OA
HETATM   37  O   UNK N   1      30.034  16.792   4.177  0.00  0.00    -0.646 OA
HETATM   38  O   UNK N   1      28.987  17.714   3.869  0.00  0.00    -0.772 OA
HETATM   39  O   UNK N   1      32.567  15.243   9.715  0.00  0.00    -0.349 OA
HETATM   40  O   UNK N   1      31.001  16.364   7.444  0.00  0.00    -0.348 OA
HETATM   41  O   UNK N   1      31.886  15.454   6.788  0.00  0.00    -0.348 OA
HETATM   42  O   UNK N   1      29.406  17.715   6.590  0.00  0.00    -0.336 OA
HETATM   43  O   UNK N   1      29.877  17.169   5.812  0.00  0.00    -0.336 OA
HETATM   44  H   UNK N   1      30.318  17.240   9.171  0.00  0.00     0.209 HD
HETATM   45  H   UNK N   1      30.838  16.894  10.108  0.00  0.00     0.209 HD
HETATM   46  H   UNK N   1      31.592  16.190  10.055  0.00  0.00     0.209 HD
HETATM   47  H   UNK N   1      27.060  20.135   8.384  0.00  0.00     0.219 HD
HETATM   48  H   UNK N   1      27.688  19.204   5.913  0.00  0.00     0.210 HD
HETATM   49  H   UNK N   1      27.968  19.370   8.904  0.00  0.00     0.210 HD
HETATM   50  H   UNK N   1      29.945  17.238   6.741  0.00  0.00     0.210 HD
HETATM   51  H   UNK N   1      29.207  17.974   7.126  0.00  0.00     0.210 HD
HETATM   52  H   UNK N   1      32.420  14.918   6.481  0.00  0.00     0.210 HD
HETATM   53  H   UNK N   1      34.730  13.122   8.842  0.00  0.00     0.210 HD
HETATM   54  H   UNK N   1      30.833  16.096   4.477  0.00  0.00     0.210 HD
HETATM   55  H   UNK N   1      28.350  18.342   4.150  0.00  0.00     0.167 HD
ENDROOT
BRANCH  20  56
HETATM   56  O   UNK N   1      33.507  14.484  10.479  0.00  0.00    -0.369 OA
HETATM   57  H   UNK N   1      33.120  14.824  11.300  0.00  0.00     0.212 HD
ENDBRANCH  20  56
TORSDOF 9
ENDMDL
