MODEL 1
REMARK VINA RESULT:      -3.8      0.000      0.000
REMARK  2 active torsions:
REMARK  status: ('A' for Active; 'I' for Inactive)
REMARK    1  A    between atoms: N_1  and  C_2 
REMARK    2  A    between atoms: C_3  and  C_2 
ROOT
HETATM    1  C   UNK N   1      23.041  12.369  10.915  0.00  0.00     0.093 A 
HETATM    2  C   UNK N   1      22.505  13.325   9.896  0.00  0.00     0.028 A 
HETATM    3  C   UNK N   1      21.014  13.264  10.115  0.00  0.00     0.021 A 
HETATM    4  C   UNK N   1      20.758  12.275  11.251  0.00  0.00     0.114 A 
HETATM    5  N   UNK N   1      22.025  11.734  11.730  0.00  0.00    -0.415 N 
HETATM    6  H   UNK N   1      22.165  11.054  12.479  0.00  0.00     0.153 HD
ENDROOT
BRANCH   1   7
HETATM    7  C   UNK N   1      24.517  12.061  11.111  0.00  0.00     0.135 C 
BRANCH   7   8
HETATM    8  N   UNK N   1      25.340  13.177  10.679  0.00  0.00    -0.428 N 
HETATM    9  H   UNK N   1      26.181  13.424  11.202  0.00  0.00     0.149 HD
HETATM   10  H   UNK N   1      25.077  13.715   9.853  0.00  0.00     0.149 HD
ENDBRANCH   7   8
ENDBRANCH   1   7
TORSDOF 2
ENDMDL
MODEL 2
REMARK VINA RESULT:      -3.4     23.145     23.850
REMARK  2 active torsions:
REMARK  status: ('A' for Active; 'I' for Inactive)
REMARK    1  A    between atoms: N_1  and  C_2 
REMARK    2  A    between atoms: C_3  and  C_2 
ROOT
HETATM    1  C   UNK N   1      43.164  22.201   3.517  0.00  0.00     0.093 A 
HETATM    2  C   UNK N   1      42.313  21.079   3.009  0.00  0.00     0.028 A 
HETATM    3  C   UNK N   1      41.447  21.744   1.969  0.00  0.00     0.021 A 
HETATM    4  C   UNK N   1      41.838  23.220   1.924  0.00  0.00     0.114 A 
HETATM    5  N   UNK N   1      42.901  23.480   2.889  0.00  0.00    -0.415 N 
HETATM    6  H   UNK N   1      43.361  24.372   3.081  0.00  0.00     0.153 HD
ENDROOT
BRANCH   1   7
HETATM    7  C   UNK N   1      44.225  22.054   4.597  0.00  0.00     0.135 C 
BRANCH   7   8
HETATM    8  N   UNK N   1      45.548  22.326   4.062  0.00  0.00    -0.428 N 
HETATM    9  H   UNK N   1      45.680  23.084   3.390  0.00  0.00     0.149 HD
HETATM   10  H   UNK N   1      46.343  21.761   4.357  0.00  0.00     0.149 HD
ENDBRANCH   7   8
ENDBRANCH   1   7
TORSDOF 2
ENDMDL
MODEL 3
REMARK VINA RESULT:      -3.3      8.691      9.669
REMARK  2 active torsions:
REMARK  status: ('A' for Active; 'I' for Inactive)
REMARK    1  A    between atoms: N_1  and  C_2 
REMARK    2  A    between atoms: C_3  and  C_2 
ROOT
HETATM    1  C   UNK N   1      27.776  19.304   6.663  0.00  0.00     0.093 A 
HETATM    2  C   UNK N   1      28.118  19.215   5.208  0.00  0.00     0.028 A 
HETATM    3  C   UNK N   1      27.220  20.248   4.577  0.00  0.00     0.021 A 
HETATM    4  C   UNK N   1      26.400  20.888   5.696  0.00  0.00     0.114 A 
HETATM    5  N   UNK N   1      26.759  20.289   6.977  0.00  0.00    -0.415 N 
HETATM    6  H   UNK N   1      26.378  20.515   7.896  0.00  0.00     0.153 HD
ENDROOT
BRANCH   1   7
HETATM    7  C   UNK N   1      28.414  18.454   7.750  0.00  0.00     0.135 C 
BRANCH   7   8
HETATM    8  N   UNK N   1      27.670  18.561   8.993  0.00  0.00    -0.428 N 
HETATM    9  H   UNK N   1      27.805  17.867   9.730  0.00  0.00     0.149 HD
HETATM   10  H   UNK N   1      27.013  19.328   9.130  0.00  0.00     0.149 HD
ENDBRANCH   7   8
ENDBRANCH   1   7
TORSDOF 2
ENDMDL
MODEL 4
REMARK VINA RESULT:      -3.2     10.422     11.222
REMARK  2 active torsions:
REMARK  status: ('A' for Active; 'I' for Inactive)
REMARK    1  A    between atoms: N_1  and  C_2 
REMARK    2  A    between atoms: C_3  and  C_2 
ROOT
HETATM    1  C   UNK N   1      20.630  19.685   2.465  0.00  0.00     0.093 A 
HETATM    2  C   UNK N   1      21.669  19.098   3.369  0.00  0.00     0.028 A 
HETATM    3  C   UNK N   1      21.038  17.809   3.831  0.00  0.00     0.021 A 
HETATM    4  C   UNK N   1      19.663  17.710   3.173  0.00  0.00     0.114 A 
HETATM    5  N   UNK N   1      19.431  18.880   2.333  0.00  0.00    -0.415 N 
HETATM    6  H   UNK N   1      18.604  19.088   1.772  0.00  0.00     0.153 HD
ENDROOT
BRANCH   1   7
HETATM    7  C   UNK N   1      20.779  21.007   1.729  0.00  0.00     0.135 C 
BRANCH   7   8
HETATM    8  N   UNK N   1      20.483  20.848   0.316  0.00  0.00    -0.428 N 
HETATM    9  H   UNK N   1      20.015  20.004  -0.016  0.00  0.00     0.149 HD
HETATM   10  H   UNK N   1      20.745  21.580  -0.345  0.00  0.00     0.149 HD
ENDBRANCH   7   8
ENDBRANCH   1   7
TORSDOF 2
ENDMDL
MODEL 5
REMARK VINA RESULT:      -3.2      8.123      9.712
REMARK  2 active torsions:
REMARK  status: ('A' for Active; 'I' for Inactive)
REMARK    1  A    between atoms: N_1  and  C_2 
REMARK    2  A    between atoms: C_3  and  C_2 
ROOT
HETATM    1  C   UNK N   1      29.717  17.541   8.615  0.00  0.00     0.093 A 
HETATM    2  C   UNK N   1      29.838  17.094   7.192  0.00  0.00     0.028 A 
HETATM    3  C   UNK N   1      31.323  17.152   6.935  0.00  0.00     0.021 A 
HETATM    4  C   UNK N   1      31.991  17.630   8.223  0.00  0.00     0.114 A 
HETATM    5  N   UNK N   1      30.981  17.864   9.248  0.00  0.00    -0.415 N 
HETATM    6  H   UNK N   1      31.130  18.186  10.205  0.00  0.00     0.153 HD
ENDROOT
BRANCH   1   7
HETATM    7  C   UNK N   1      28.402  17.660   9.370  0.00  0.00     0.135 C 
BRANCH   7   8
HETATM    8  N   UNK N   1      27.592  18.738   8.829  0.00  0.00    -0.428 N 
HETATM    9  H   UNK N   1      28.034  19.498   8.311  0.00  0.00     0.149 HD
HETATM   10  H   UNK N   1      26.582  18.734   8.967  0.00  0.00     0.149 HD
ENDBRANCH   7   8
ENDBRANCH   1   7
TORSDOF 2
ENDMDL
MODEL 6
REMARK VINA RESULT:      -3.2     12.704     13.440
REMARK  2 active torsions:
REMARK  status: ('A' for Active; 'I' for Inactive)
REMARK    1  A    between atoms: N_1  and  C_2 
REMARK    2  A    between atoms: C_3  and  C_2 
ROOT
HETATM    1  C   UNK N   1      35.870  14.914  11.989  0.00  0.00     0.093 A 
HETATM    2  C   UNK N   1      35.022  13.692  11.818  0.00  0.00     0.028 A 
HETATM    3  C   UNK N   1      35.129  13.006  13.156  0.00  0.00     0.021 A 
HETATM    4  C   UNK N   1      36.033  13.864  14.039  0.00  0.00     0.114 A 
HETATM    5  N   UNK N   1      36.480  15.038  13.298  0.00  0.00    -0.415 N 
HETATM    6  H   UNK N   1      37.091  15.786  13.629  0.00  0.00     0.153 HD
ENDROOT
BRANCH   1   7
HETATM    7  C   UNK N   1      36.097  15.960  10.909  0.00  0.00     0.135 C 
BRANCH   7   8
HETATM    8  N   UNK N   1      35.021  16.936  10.900  0.00  0.00    -0.428 N 
HETATM    9  H   UNK N   1      35.090  17.766  10.310  0.00  0.00     0.149 HD
HETATM   10  H   UNK N   1      34.196  16.790  11.481  0.00  0.00     0.149 HD
ENDBRANCH   7   8
ENDBRANCH   1   7
TORSDOF 2
ENDMDL
MODEL 7
REMARK VINA RESULT:      -3.2     21.528     22.767
REMARK  2 active torsions:
REMARK  status: ('A' for Active; 'I' for Inactive)
REMARK    1  A    between atoms: N_1  and  C_2 
REMARK    2  A    between atoms: C_3  and  C_2 
ROOT
HETATM    1  C   UNK N   1      42.247  21.994   2.698  0.00  0.00     0.093 A 
HETATM    2  C   UNK N   1      40.954  22.254   1.989  0.00  0.00     0.028 A 
HETATM    3  C   UNK N   1      40.130  21.032   2.312  0.00  0.00     0.021 A 
HETATM    4  C   UNK N   1      40.986  20.123   3.191  0.00  0.00     0.114 A 
HETATM    5  N   UNK N   1      42.289  20.736   3.417  0.00  0.00    -0.415 N 
HETATM    6  H   UNK N   1      43.065  20.361   3.965  0.00  0.00     0.153 HD
ENDROOT
BRANCH   1   7
HETATM    7  C   UNK N   1      43.437  22.940   2.689  0.00  0.00     0.135 C 
BRANCH   7   8
HETATM    8  N   UNK N   1      43.500  23.703   3.924  0.00  0.00    -0.428 N 
HETATM    9  H   UNK N   1      44.405  23.923   4.341  0.00  0.00     0.149 HD
HETATM   10  H   UNK N   1      42.640  24.017   4.373  0.00  0.00     0.149 HD
ENDBRANCH   7   8
ENDBRANCH   1   7
TORSDOF 2
ENDMDL
MODEL 8
REMARK VINA RESULT:      -3.1     13.454     14.173
REMARK  2 active torsions:
REMARK  status: ('A' for Active; 'I' for Inactive)
REMARK    1  A    between atoms: N_1  and  C_2 
REMARK    2  A    between atoms: C_3  and  C_2 
ROOT
HETATM    1  C   UNK N   1      35.977  14.186  13.489  0.00  0.00     0.093 A 
HETATM    2  C   UNK N   1      35.425  13.034  14.270  0.00  0.00     0.028 A 
HETATM    3  C   UNK N   1      36.094  13.174  15.614  0.00  0.00     0.021 A 
HETATM    4  C   UNK N   1      37.002  14.401  15.548  0.00  0.00     0.114 A 
HETATM    5  N   UNK N   1      36.914  15.011  14.226  0.00  0.00    -0.415 N 
HETATM    6  H   UNK N   1      37.407  15.840  13.891  0.00  0.00     0.153 HD
ENDROOT
BRANCH   1   7
HETATM    7  C   UNK N   1      35.613  14.499  12.047  0.00  0.00     0.135 C 
BRANCH   7   8
HETATM    8  N   UNK N   1      36.437  15.578  11.529  0.00  0.00    -0.428 N 
HETATM    9  H   UNK N   1      37.449  15.555  11.661  0.00  0.00     0.149 HD
HETATM   10  H   UNK N   1      36.005  16.357  11.034  0.00  0.00     0.149 HD
ENDBRANCH   7   8
ENDBRANCH   1   7
TORSDOF 2
ENDMDL
MODEL 9
REMARK VINA RESULT:      -3.1     10.953     12.036
REMARK  2 active torsions:
REMARK  status: ('A' for Active; 'I' for Inactive)
REMARK    1  A    between atoms: N_1  and  C_2 
REMARK    2  A    between atoms: C_3  and  C_2 
ROOT
HETATM    1  C   UNK N   1      33.819  16.685   8.878  0.00  0.00     0.093 A 
HETATM    2  C   UNK N   1      34.343  17.089   7.535  0.00  0.00     0.028 A 
HETATM    3  C   UNK N   1      33.125  17.646   6.842  0.00  0.00     0.021 A 
HETATM    4  C   UNK N   1      31.953  17.536   7.816  0.00  0.00     0.114 A 
HETATM    5  N   UNK N   1      32.405  16.940   9.068  0.00  0.00    -0.415 N 
HETATM    6  H   UNK N   1      31.846  16.744   9.899  0.00  0.00     0.153 HD
ENDROOT
BRANCH   1   7
HETATM    7  C   UNK N   1      34.663  16.057   9.976  0.00  0.00     0.135 C 
BRANCH   7   8
HETATM    8  N   UNK N   1      35.162  17.072  10.888  0.00  0.00    -0.428 N 
HETATM    9  H   UNK N   1      34.571  17.408  11.650  0.00  0.00     0.149 HD
HETATM   10  H   UNK N   1      36.101  17.449  10.767  0.00  0.00     0.149 HD
ENDBRANCH   7   8
ENDBRANCH   1   7
TORSDOF 2
ENDMDL
