REMARK  7 active torsions:
REMARK  status: ('A' for Active; 'I' for Inactive)
REMARK    1  A    between atoms: C_2  and  O_1 
REMARK    2  A    between atoms: C_2  and  C_3 
REMARK    3  A    between atoms: C_2  and  C_9 
REMARK    4  A    between atoms: C_3  and  C_4 
REMARK    5  A    between atoms: C_4  and  C_6 
REMARK    6  A    between atoms: C_9  and  O_10 
REMARK    7  A    between atoms: C_9  and  C_11 
ROOT
HETATM    1  C   UNK N   1       4.125   1.243   0.149  0.00  0.00     0.165 C 
ENDROOT
BRANCH   1   2
HETATM    2  O   UNK N   1       4.159  -0.150   0.049  0.00  0.00    -0.392 OA
HETATM    3  H   UNK N   1       3.333  -0.654  -0.021  0.00  0.00     0.210 HD
ENDBRANCH   1   2
BRANCH   1   4
HETATM    4  C   UNK N   1       2.962   1.772  -0.686  0.00  0.00     0.125 C 
BRANCH   4   5
HETATM    5  C   UNK N   1       1.607   1.391  -0.168  0.00  0.00     0.227 C 
HETATM    6  O   UNK N   1       1.307   0.212  -0.048  0.00  0.00    -0.286 OA
BRANCH   5   7
HETATM    7  C   UNK N   1       0.610   2.436   0.132  0.00  0.00     0.246 C 
HETATM    8  O   UNK N   1      -0.631   2.094   0.524  0.00  0.00    -0.642 OA
HETATM    9  O   UNK N   1       0.900   3.617   0.007  0.00  0.00    -0.642 OA
ENDBRANCH   5   7
ENDBRANCH   4   5
ENDBRANCH   1   4
BRANCH   1  10
HETATM   10  C   UNK N   1       5.409   1.856  -0.423  0.00  0.00     0.247 C 
BRANCH  10  11
HETATM   11  O   UNK N   1       5.415   3.231  -0.169  0.00  0.00    -0.382 OA
HETATM   12  H   UNK N   1       6.244   3.704   0.007  0.00  0.00     0.210 HD
ENDBRANCH  10  11
BRANCH  10  13
HETATM   13  C   UNK N   1       6.681   1.230   0.086  0.00  0.00     0.205 C 
HETATM   14  O   UNK N   1       7.618   1.986   0.693  0.00  0.00    -0.646 OA
HETATM   15  O   UNK N   1       6.897   0.044  -0.105  0.00  0.00    -0.646 OA
ENDBRANCH  10  13
ENDBRANCH   1  10
TORSDOF 7
