MODEL 1
REMARK VINA RESULT:      -6.7      0.000      0.000
REMARK  5 active torsions:
REMARK  status: ('A' for Active; 'I' for Inactive)
REMARK    1  A    between atoms: C_3  and  C_1 
REMARK    2  A    between atoms: O_19  and  C_1 
REMARK    3  A    between atoms: O_20  and  C_8 
REMARK    4  A    between atoms: C_9  and  N_18 
REMARK       I    between atoms: N_11  and  C_10 
REMARK    5  A    between atoms: P_25  and  O_21 
ROOT
HETATM    1  C   UNK N   1      30.273  17.724   9.171  0.00  0.00     0.188 A 
HETATM    2  C   UNK N   1      28.815  18.632   7.892  0.00  0.00     0.130 A 
HETATM    3  C   UNK N   1      29.660  17.916   7.129  0.00  0.00     0.157 A 
HETATM    4  C   UNK N   1      27.752  19.304   7.305  0.00  0.00     0.186 A 
HETATM    5  C   UNK N   1      28.491  18.484   5.188  0.00  0.00     0.679 A 
HETATM    6  N   UNK N   1      28.341  18.424   3.921  0.00  0.00    -0.234 N 
ATOM      7  HN  UNK N   1      27.560  18.909   3.482  1.00  0.00     0.174 HD
HETATM    8  N   UNK N   1      29.176  18.537   9.185  0.00  0.00    -0.346 N 
ATOM      9  HN  UNK N   1      28.731  18.974   9.993  1.00  0.00     0.167 HD
HETATM   10  N   UNK N   1      29.526  17.817   5.785  0.00  0.00    -0.174 N 
HETATM   11  N   UNK N   1      27.612  19.220   5.948  0.00  0.00    -0.168 N 
ATOM     12  HN  UNK N   1      26.841  19.709   5.492  1.00  0.00     0.186 HD
HETATM   13  N   UNK N   1      30.590  17.344   7.905  0.00  0.00    -0.297 N 
HETATM   14  H   UNK N   1      28.973  17.913   3.365  0.00  0.00     0.174 HD
HETATM   15  H   UNK N   1      30.156  17.280   5.251  0.00  0.00     0.186 HD
ENDROOT
BRANCH  13  16
HETATM   16  C   UNK N   1      31.616  16.392   7.473  0.00  0.00     0.263 C 
HETATM   17  C   UNK N   1      32.663  16.078   8.534  0.00  0.00     0.213 C 
HETATM   18  C   UNK N   1      33.603  15.425   7.666  0.00  0.00     0.196 C 
HETATM   19  O   UNK N   1      32.398  15.153   9.530  0.00  0.00    -0.301 OA
HETATM   20  C   UNK N   1      33.712  16.492   6.594  0.00  0.00     0.180 C 
HETATM   21  O   UNK N   1      34.656  15.141   8.500  0.00  0.00    -0.303 OA
HETATM   22  O   UNK N   1      32.369  16.911   6.379  0.00  0.00    -0.353 OA
HETATM   23  P   UNK N   1      33.892  14.191   9.795  0.00  0.00     0.327 P 
HETATM   24  S   UNK N   1      35.219  15.047  10.595  0.00  0.00    -0.007 SA
BRANCH  20  25
HETATM   25  C   UNK N   1      34.316  15.918   5.319  0.00  0.00     0.198 C 
BRANCH  25  26
HETATM   26  O   UNK N   1      35.577  15.380   5.584  0.00  0.00    -0.398 OA
HETATM   27  H   UNK N   1      36.328  15.936   5.842  0.00  0.00     0.209 HD
ENDBRANCH  25  26
ENDBRANCH  20  25
BRANCH  23  28
HETATM   28  O   UNK N   1      33.387  14.986  11.253  0.00  0.00    -0.324 OA
HETATM   29  H   UNK N   1      32.901  14.602  12.000  0.00  0.00     0.220 HD
ENDBRANCH  23  28
ENDBRANCH  13  16
BRANCH   4  30
HETATM   30  O   UNK N   1      26.880  20.011   8.042  0.00  0.00    -0.344 OA
HETATM   31  H   UNK N   1      27.123  20.341   8.884  0.00  0.00     0.219 HD
ENDBRANCH   4  30
TORSDOF 5
ENDMDL
MODEL 2
REMARK VINA RESULT:      -6.7      4.349      6.124
REMARK  5 active torsions:
REMARK  status: ('A' for Active; 'I' for Inactive)
REMARK    1  A    between atoms: C_3  and  C_1 
REMARK    2  A    between atoms: O_19  and  C_1 
REMARK    3  A    between atoms: O_20  and  C_8 
REMARK    4  A    between atoms: C_9  and  N_18 
REMARK       I    between atoms: N_11  and  C_10 
REMARK    5  A    between atoms: P_25  and  O_21 
ROOT
HETATM    1  C   UNK N   1      35.547  16.190  11.249  0.00  0.00     0.188 A 
HETATM    2  C   UNK N   1      34.796  17.086   9.454  0.00  0.00     0.130 A 
HETATM    3  C   UNK N   1      34.306  15.836   9.540  0.00  0.00     0.157 A 
HETATM    4  C   UNK N   1      34.437  17.898   8.389  0.00  0.00     0.186 A 
HETATM    5  C   UNK N   1      33.109  16.099   7.552  0.00  0.00     0.679 A 
HETATM    6  N   UNK N   1      32.326  15.637   6.655  0.00  0.00    -0.234 N 
ATOM      7  HN  UNK N   1      32.052  16.229   5.871  1.00  0.00     0.174 HD
HETATM    8  N   UNK N   1      35.587  17.339  10.513  0.00  0.00    -0.346 N 
ATOM      9  HN  UNK N   1      36.100  18.197  10.719  1.00  0.00     0.167 HD
HETATM   10  N   UNK N   1      33.463  15.316   8.617  0.00  0.00    -0.174 N 
HETATM   11  N   UNK N   1      33.594  17.382   7.444  0.00  0.00    -0.168 N 
ATOM     12  HN  UNK N   1      33.319  17.957   6.648  1.00  0.00     0.186 HD
HETATM   13  N   UNK N   1      34.770  15.248  10.651  0.00  0.00    -0.297 N 
HETATM   14  H   UNK N   1      31.984  14.715   6.713  0.00  0.00     0.174 HD
HETATM   15  H   UNK N   1      33.114  14.400   8.708  0.00  0.00     0.186 HD
ENDROOT
BRANCH  13  16
HETATM   16  C   UNK N   1      34.379  13.934  11.166  0.00  0.00     0.263 C 
HETATM   17  C   UNK N   1      35.263  13.417  12.293  0.00  0.00     0.213 C 
HETATM   18  C   UNK N   1      34.789  12.060  12.281  0.00  0.00     0.196 C 
HETATM   19  O   UNK N   1      35.067  13.849  13.595  0.00  0.00    -0.301 OA
HETATM   20  C   UNK N   1      34.963  11.765  10.805  0.00  0.00     0.180 C 
HETATM   21  O   UNK N   1      35.569  11.446  13.229  0.00  0.00    -0.303 OA
HETATM   22  O   UNK N   1      34.480  12.935  10.154  0.00  0.00    -0.353 OA
HETATM   23  P   UNK N   1      35.284  12.434  14.680  0.00  0.00     0.327 P 
HETATM   24  S   UNK N   1      36.948  11.855  14.856  0.00  0.00    -0.007 SA
BRANCH  20  25
HETATM   25  C   UNK N   1      34.153  10.541  10.398  0.00  0.00     0.198 C 
BRANCH  25  26
HETATM   26  O   UNK N   1      33.292  10.169  11.433  0.00  0.00    -0.398 OA
HETATM   27  H   UNK N   1      32.433   9.754  11.261  0.00  0.00     0.209 HD
ENDBRANCH  25  26
ENDBRANCH  20  25
BRANCH  23  28
HETATM   28  O   UNK N   1      36.394  13.709  15.077  0.00  0.00    -0.324 OA
HETATM   29  H   UNK N   1      36.552  14.108  15.947  0.00  0.00     0.220 HD
ENDBRANCH  23  28
ENDBRANCH  13  16
BRANCH   4  30
HETATM   30  O   UNK N   1      34.893  19.157   8.285  0.00  0.00    -0.344 OA
HETATM   31  H   UNK N   1      34.962  19.705   9.042  0.00  0.00     0.219 HD
ENDBRANCH   4  30
TORSDOF 5
ENDMDL
MODEL 3
REMARK VINA RESULT:      -6.5      9.482     11.878
REMARK  5 active torsions:
REMARK  status: ('A' for Active; 'I' for Inactive)
REMARK    1  A    between atoms: C_3  and  C_1 
REMARK    2  A    between atoms: O_19  and  C_1 
REMARK    3  A    between atoms: O_20  and  C_8 
REMARK    4  A    between atoms: C_9  and  N_18 
REMARK       I    between atoms: N_11  and  C_10 
REMARK    5  A    between atoms: P_25  and  O_21 
ROOT
HETATM    1  C   UNK N   1      24.611  13.795   8.046  0.00  0.00     0.188 A 
HETATM    2  C   UNK N   1      24.163  12.808   9.893  0.00  0.00     0.130 A 
HETATM    3  C   UNK N   1      23.003  13.157   9.309  0.00  0.00     0.157 A 
HETATM    4  C   UNK N   1      24.151  12.123  11.100  0.00  0.00     0.186 A 
HETATM    5  C   UNK N   1      21.766  12.209  11.048  0.00  0.00     0.679 A 
HETATM    6  N   UNK N   1      20.645  11.934  11.596  0.00  0.00    -0.234 N 
ATOM      7  HN  UNK N   1      20.627  11.427  12.480  1.00  0.00     0.174 HD
HETATM    8  N   UNK N   1      25.197  13.200   9.126  0.00  0.00    -0.346 N 
ATOM      9  HN  UNK N   1      26.193  13.080   9.310  1.00  0.00     0.167 HD
HETATM   10  N   UNK N   1      21.795  12.872   9.851  0.00  0.00    -0.174 N 
HETATM   11  N   UNK N   1      22.939  11.838  11.663  0.00  0.00    -0.168 N 
ATOM     12  HN  UNK N   1      22.904  11.340  12.553  1.00  0.00     0.186 HD
HETATM   13  N   UNK N   1      23.255  13.787   8.154  0.00  0.00    -0.297 N 
HETATM   14  H   UNK N   1      19.799  12.208  11.173  0.00  0.00     0.174 HD
HETATM   15  H   UNK N   1      20.962  13.134   9.398  0.00  0.00     0.186 HD
ENDROOT
BRANCH  13  16
HETATM   16  C   UNK N   1      22.265  14.218   7.165  0.00  0.00     0.263 C 
HETATM   17  C   UNK N   1      21.141  15.072   7.738  0.00  0.00     0.213 C 
HETATM   18  C   UNK N   1      20.268  15.003   6.598  0.00  0.00     0.196 C 
HETATM   19  O   UNK N   1      21.331  16.427   7.957  0.00  0.00    -0.301 OA
HETATM   20  C   UNK N   1      20.240  13.498   6.417  0.00  0.00     0.180 C 
HETATM   21  O   UNK N   1      19.156  15.693   7.011  0.00  0.00    -0.303 OA
HETATM   22  O   UNK N   1      21.596  13.099   6.587  0.00  0.00    -0.353 OA
HETATM   23  P   UNK N   1      19.821  17.276   7.479  0.00  0.00     0.327 P 
HETATM   24  S   UNK N   1      18.437  17.038   8.557  0.00  0.00    -0.007 SA
BRANCH  20  25
HETATM   25  C   UNK N   1      19.734  13.130   5.029  0.00  0.00     0.198 C 
BRANCH  25  26
HETATM   26  O   UNK N   1      18.428  13.593   4.854  0.00  0.00    -0.398 OA
HETATM   27  H   UNK N   1      18.043  13.724   3.974  0.00  0.00     0.209 HD
ENDBRANCH  25  26
ENDBRANCH  20  25
BRANCH  23  28
HETATM   28  O   UNK N   1      20.215  17.578   9.142  0.00  0.00    -0.324 OA
HETATM   29  H   UNK N   1      20.061  18.391   9.649  0.00  0.00     0.220 HD
ENDBRANCH  23  28
ENDBRANCH  13  16
BRANCH   4  30
HETATM   30  O   UNK N   1      25.292  11.743  11.698  0.00  0.00    -0.344 OA
HETATM   31  H   UNK N   1      25.378  10.884  12.062  0.00  0.00     0.219 HD
ENDBRANCH   4  30
TORSDOF 5
ENDMDL
MODEL 4
REMARK VINA RESULT:      -6.5      1.804      2.182
REMARK  5 active torsions:
REMARK  status: ('A' for Active; 'I' for Inactive)
REMARK    1  A    between atoms: C_3  and  C_1 
REMARK    2  A    between atoms: O_19  and  C_1 
REMARK    3  A    between atoms: O_20  and  C_8 
REMARK    4  A    between atoms: C_9  and  N_18 
REMARK       I    between atoms: N_11  and  C_10 
REMARK    5  A    between atoms: P_25  and  O_21 
ROOT
HETATM    1  C   UNK N   1      28.881  18.056   8.500  0.00  0.00     0.188 A 
HETATM    2  C   UNK N   1      27.627  19.437   7.448  0.00  0.00     0.130 A 
HETATM    3  C   UNK N   1      28.403  18.803   6.551  0.00  0.00     0.157 A 
HETATM    4  C   UNK N   1      26.696  20.373   7.020  0.00  0.00     0.186 A 
HETATM    5  C   UNK N   1      27.421  19.969   4.781  0.00  0.00     0.679 A 
HETATM    6  N   UNK N   1      27.328  20.226   3.533  0.00  0.00    -0.234 N 
ATOM      7  HN  UNK N   1      26.643  20.908   3.209  1.00  0.00     0.174 HD
HETATM    8  N   UNK N   1      27.907  18.993   8.687  0.00  0.00    -0.346 N 
ATOM      9  HN  UNK N   1      27.485  19.291   9.568  1.00  0.00     0.167 HD
HETATM   10  N   UNK N   1      28.324  19.039   5.219  0.00  0.00    -0.174 N 
HETATM   11  N   UNK N   1      26.613  20.627   5.679  0.00  0.00    -0.168 N 
ATOM     12  HN  UNK N   1      25.941  21.315   5.339  1.00  0.00     0.186 HD
HETATM   13  N   UNK N   1      29.207  17.939   7.185  0.00  0.00    -0.297 N 
HETATM   14  H   UNK N   1      27.910  19.772   2.882  0.00  0.00     0.174 HD
HETATM   15  H   UNK N   1      28.900  18.555   4.584  0.00  0.00     0.186 HD
ENDROOT
BRANCH  13  16
HETATM   16  C   UNK N   1      30.113  16.975   6.557  0.00  0.00     0.263 C 
HETATM   17  C   UNK N   1      31.448  16.816   7.273  0.00  0.00     0.213 C 
HETATM   18  C   UNK N   1      32.123  16.096   6.228  0.00  0.00     0.196 C 
HETATM   19  O   UNK N   1      31.554  16.002   8.389  0.00  0.00    -0.301 OA
HETATM   20  C   UNK N   1      31.838  17.037   5.074  0.00  0.00     0.180 C 
HETATM   21  O   UNK N   1      33.394  15.940   6.724  0.00  0.00    -0.303 OA
HETATM   22  O   UNK N   1      30.468  17.388   5.239  0.00  0.00    -0.353 OA
HETATM   23  P   UNK N   1      33.116  15.121   8.279  0.00  0.00     0.327 P 
HETATM   24  S   UNK N   1      34.566  16.102   8.545  0.00  0.00    -0.007 SA
BRANCH  20  25
HETATM   25  C   UNK N   1      32.065  16.340   3.739  0.00  0.00     0.198 C 
BRANCH  25  26
HETATM   26  O   UNK N   1      31.710  17.187   2.688  0.00  0.00    -0.398 OA
HETATM   27  H   UNK N   1      31.026  17.867   2.785  0.00  0.00     0.209 HD
ENDBRANCH  25  26
ENDBRANCH  20  25
BRANCH  23  28
HETATM   28  O   UNK N   1      33.024  16.062   9.735  0.00  0.00    -0.324 OA
HETATM   29  H   UNK N   1      32.656  16.954   9.842  0.00  0.00     0.220 HD
ENDBRANCH  23  28
ENDBRANCH  13  16
BRANCH   4  30
HETATM   30  O   UNK N   1      25.893  21.008   7.888  0.00  0.00    -0.344 OA
HETATM   31  H   UNK N   1      25.189  21.546   7.585  0.00  0.00     0.219 HD
ENDBRANCH   4  30
TORSDOF 5
ENDMDL
MODEL 5
REMARK VINA RESULT:      -6.4      8.840     10.782
REMARK  5 active torsions:
REMARK  status: ('A' for Active; 'I' for Inactive)
REMARK    1  A    between atoms: C_3  and  C_1 
REMARK    2  A    between atoms: O_19  and  C_1 
REMARK    3  A    between atoms: O_20  and  C_8 
REMARK    4  A    between atoms: C_9  and  N_18 
REMARK       I    between atoms: N_11  and  C_10 
REMARK    5  A    between atoms: P_25  and  O_21 
ROOT
HETATM    1  C   UNK N   1      21.787  14.813   5.400  0.00  0.00     0.188 A 
HETATM    2  C   UNK N   1      20.800  15.165   7.268  0.00  0.00     0.130 A 
HETATM    3  C   UNK N   1      20.999  16.350   6.665  0.00  0.00     0.157 A 
HETATM    4  C   UNK N   1      20.149  15.111   8.492  0.00  0.00     0.186 A 
HETATM    5  C   UNK N   1      19.958  17.489   8.418  0.00  0.00     0.679 A 
HETATM    6  N   UNK N   1      19.568  18.577   8.963  0.00  0.00    -0.234 N 
ATOM      7  HN  UNK N   1      19.084  18.547   9.860  1.00  0.00     0.174 HD
HETATM    8  N   UNK N   1      21.291  14.174   6.500  0.00  0.00    -0.346 N 
ATOM      9  HN  UNK N   1      21.291  13.173   6.696  1.00  0.00     0.167 HD
HETATM   10  N   UNK N   1      20.589  17.523   7.205  0.00  0.00    -0.174 N 
HETATM   11  N   UNK N   1      19.739  16.289   9.052  0.00  0.00    -0.168 N 
ATOM     12  HN  UNK N   1      19.263  16.276   9.955  1.00  0.00     0.186 HD
HETATM   13  N   UNK N   1      21.625  16.160   5.497  0.00  0.00    -0.297 N 
HETATM   14  H   UNK N   1      19.732  19.444   8.526  0.00  0.00     0.174 HD
HETATM   15  H   UNK N   1      20.742  18.376   6.738  0.00  0.00     0.186 HD
ENDROOT
BRANCH  13  16
HETATM   16  C   UNK N   1      21.915  17.182   4.489  0.00  0.00     0.263 C 
HETATM   17  C   UNK N   1      23.131  18.043   4.804  0.00  0.00     0.213 C 
HETATM   18  C   UNK N   1      22.885  19.062   3.821  0.00  0.00     0.196 C 
HETATM   19  O   UNK N   1      24.408  17.584   4.525  0.00  0.00    -0.301 OA
HETATM   20  C   UNK N   1      21.447  19.387   4.176  0.00  0.00     0.180 C 
HETATM   21  O   UNK N   1      23.896  19.964   4.043  0.00  0.00    -0.303 OA
HETATM   22  O   UNK N   1      20.841  18.115   4.382  0.00  0.00    -0.353 OA
HETATM   23  P   UNK N   1      25.360  18.966   3.886  0.00  0.00     0.327 P 
HETATM   24  S   UNK N   1      25.794  20.208   5.070  0.00  0.00    -0.007 SA
BRANCH  20  25
HETATM   25  C   UNK N   1      20.766  20.137   3.039  0.00  0.00     0.198 C 
BRANCH  25  26
HETATM   26  O   UNK N   1      21.471  21.305   2.743  0.00  0.00    -0.398 OA
HETATM   27  H   UNK N   1      21.411  21.735   1.876  0.00  0.00     0.209 HD
ENDBRANCH  25  26
ENDBRANCH  20  25
BRANCH  23  28
HETATM   28  O   UNK N   1      26.096  18.299   5.310  0.00  0.00    -0.324 OA
HETATM   29  H   UNK N   1      26.966  17.878   5.385  0.00  0.00     0.220 HD
ENDBRANCH  23  28
ENDBRANCH  13  16
BRANCH   4  30
HETATM   30  O   UNK N   1      19.918  13.941   9.110  0.00  0.00    -0.344 OA
HETATM   31  H   UNK N   1      20.604  13.498   9.568  0.00  0.00     0.219 HD
ENDBRANCH   4  30
TORSDOF 5
ENDMDL
MODEL 6
REMARK VINA RESULT:      -6.4      3.564      5.218
REMARK  5 active torsions:
REMARK  status: ('A' for Active; 'I' for Inactive)
REMARK    1  A    between atoms: C_3  and  C_1 
REMARK    2  A    between atoms: O_19  and  C_1 
REMARK    3  A    between atoms: O_20  and  C_8 
REMARK    4  A    between atoms: C_9  and  N_18 
REMARK       I    between atoms: N_11  and  C_10 
REMARK    5  A    between atoms: P_25  and  O_21 
ROOT
HETATM    1  C   UNK N   1      32.866  13.640   8.287  0.00  0.00     0.188 A 
HETATM    2  C   UNK N   1      32.568  15.725   7.899  0.00  0.00     0.130 A 
HETATM    3  C   UNK N   1      33.776  15.570   8.468  0.00  0.00     0.157 A 
HETATM    4  C   UNK N   1      32.138  16.989   7.520  0.00  0.00     0.186 A 
HETATM    5  C   UNK N   1      34.201  17.863   8.344  0.00  0.00     0.679 A 
HETATM    6  N   UNK N   1      34.961  18.868   8.559  0.00  0.00    -0.234 N 
ATOM      7  HN  UNK N   1      34.656  19.799   8.279  1.00  0.00     0.174 HD
HETATM    8  N   UNK N   1      31.965  14.528   7.775  0.00  0.00    -0.346 N 
ATOM      9  HN  UNK N   1      31.042  14.331   7.386  1.00  0.00     0.167 HD
HETATM   10  N   UNK N   1      34.615  16.608   8.699  0.00  0.00    -0.174 N 
HETATM   11  N   UNK N   1      32.971  18.047   7.757  0.00  0.00    -0.168 N 
ATOM     12  HN  UNK N   1      32.676  18.987   7.493  1.00  0.00     0.186 HD
HETATM   13  N   UNK N   1      33.985  14.273   8.731  0.00  0.00    -0.297 N 
HETATM   14  H   UNK N   1      35.838  18.751   8.992  0.00  0.00     0.174 HD
HETATM   15  H   UNK N   1      35.497  16.464   9.111  0.00  0.00     0.186 HD
ENDROOT
BRANCH  13  16
HETATM   16  C   UNK N   1      35.222  13.677   9.238  0.00  0.00     0.263 C 
HETATM   17  C   UNK N   1      35.364  13.725  10.754  0.00  0.00     0.213 C 
HETATM   18  C   UNK N   1      36.757  13.377  10.812  0.00  0.00     0.196 C 
HETATM   19  O   UNK N   1      34.730  12.783  11.548  0.00  0.00    -0.301 OA
HETATM   20  C   UNK N   1      37.295  14.404   9.835  0.00  0.00     0.180 C 
HETATM   21  O   UNK N   1      37.043  13.450  12.153  0.00  0.00    -0.303 OA
HETATM   22  O   UNK N   1      36.366  14.382   8.757  0.00  0.00    -0.353 OA
HETATM   23  P   UNK N   1      35.858  12.336  12.874  0.00  0.00     0.327 P 
HETATM   24  S   UNK N   1      36.111  13.577  14.110  0.00  0.00    -0.007 SA
BRANCH  20  25
HETATM   25  C   UNK N   1      38.690  14.020   9.360  0.00  0.00     0.198 C 
BRANCH  25  26
HETATM   26  O   UNK N   1      39.249  13.077  10.225  0.00  0.00    -0.398 OA
HETATM   27  H   UNK N   1      40.117  13.209  10.636  0.00  0.00     0.209 HD
ENDBRANCH  25  26
ENDBRANCH  20  25
BRANCH  23  28
HETATM   28  O   UNK N   1      34.366  12.965  13.500  0.00  0.00    -0.324 OA
HETATM   29  H   UNK N   1      34.232  13.788  13.996  0.00  0.00     0.220 HD
ENDBRANCH  23  28
ENDBRANCH  13  16
BRANCH   4  30
HETATM   30  O   UNK N   1      30.946  17.174   6.932  0.00  0.00    -0.344 OA
HETATM   31  H   UNK N   1      30.604  18.037   6.803  0.00  0.00     0.219 HD
ENDBRANCH   4  30
TORSDOF 5
ENDMDL
MODEL 7
REMARK VINA RESULT:      -6.3     10.471     11.531
REMARK  5 active torsions:
REMARK  status: ('A' for Active; 'I' for Inactive)
REMARK    1  A    between atoms: C_3  and  C_1 
REMARK    2  A    between atoms: O_19  and  C_1 
REMARK    3  A    between atoms: O_20  and  C_8 
REMARK    4  A    between atoms: C_9  and  N_18 
REMARK       I    between atoms: N_11  and  C_10 
REMARK    5  A    between atoms: P_25  and  O_21 
ROOT
HETATM    1  C   UNK N   1      20.611  15.528   3.468  0.00  0.00     0.188 A 
HETATM    2  C   UNK N   1      20.491  17.188   2.120  0.00  0.00     0.130 A 
HETATM    3  C   UNK N   1      20.685  17.665   3.362  0.00  0.00     0.157 A 
HETATM    4  C   UNK N   1      20.405  18.063   1.047  0.00  0.00     0.186 A 
HETATM    5  C   UNK N   1      20.705  19.867   2.582  0.00  0.00     0.679 A 
HETATM    6  N   UNK N   1      20.796  21.123   2.796  0.00  0.00    -0.234 N 
ATOM      7  HN  UNK N   1      20.740  21.773   2.013  1.00  0.00     0.174 HD
HETATM    8  N   UNK N   1      20.434  15.843   2.152  0.00  0.00    -0.346 N 
ATOM      9  HN  UNK N   1      20.291  15.205   1.369  1.00  0.00     0.167 HD
HETATM   10  N   UNK N   1      20.801  18.989   3.627  0.00  0.00    -0.174 N 
HETATM   11  N   UNK N   1      20.511  19.402   1.302  0.00  0.00    -0.168 N 
ATOM     12  HN  UNK N   1      20.445  20.067   0.531  1.00  0.00     0.186 HD
HETATM   13  N   UNK N   1      20.754  16.646   4.228  0.00  0.00    -0.297 N 
HETATM   14  H   UNK N   1      20.921  21.469   3.710  0.00  0.00     0.174 HD
HETATM   15  H   UNK N   1      20.949  19.310   4.545  0.00  0.00     0.186 HD
ENDROOT
BRANCH  13  16
HETATM   16  C   UNK N   1      21.075  16.738   5.654  0.00  0.00     0.263 C 
HETATM   17  C   UNK N   1      21.216  15.392   6.351  0.00  0.00     0.213 C 
HETATM   18  C   UNK N   1      21.193  15.888   7.700  0.00  0.00     0.196 C 
HETATM   19  O   UNK N   1      22.396  14.673   6.258  0.00  0.00    -0.301 OA
HETATM   20  C   UNK N   1      19.930  16.723   7.621  0.00  0.00     0.180 C 
HETATM   21  O   UNK N   1      21.246  14.744   8.457  0.00  0.00    -0.303 OA
HETATM   22  O   UNK N   1      20.035  17.399   6.373  0.00  0.00    -0.353 OA
HETATM   23  P   UNK N   1      22.723  13.946   7.868  0.00  0.00     0.327 P 
HETATM   24  S   UNK N   1      21.655  12.614   8.336  0.00  0.00    -0.007 SA
BRANCH  20  25
HETATM   25  C   UNK N   1      19.864  17.714   8.775  0.00  0.00     0.198 C 
BRANCH  25  26
HETATM   26  O   UNK N   1      20.332  18.964   8.362  0.00  0.00    -0.398 OA
HETATM   27  H   UNK N   1      20.096  19.780   8.831  0.00  0.00     0.209 HD
ENDBRANCH  25  26
ENDBRANCH  20  25
BRANCH  23  28
HETATM   28  O   UNK N   1      22.603  12.726   6.639  0.00  0.00    -0.324 OA
HETATM   29  H   UNK N   1      22.947  11.820   6.667  0.00  0.00     0.220 HD
ENDBRANCH  23  28
ENDBRANCH  13  16
BRANCH   4  30
HETATM   30  O   UNK N   1      20.232  17.616  -0.207  0.00  0.00    -0.344 OA
HETATM   31  H   UNK N   1      20.743  16.904  -0.536  0.00  0.00     0.219 HD
ENDBRANCH   4  30
TORSDOF 5
ENDMDL
MODEL 8
REMARK VINA RESULT:      -6.3      4.746      6.738
REMARK  5 active torsions:
REMARK  status: ('A' for Active; 'I' for Inactive)
REMARK    1  A    between atoms: C_3  and  C_1 
REMARK    2  A    between atoms: O_19  and  C_1 
REMARK    3  A    between atoms: O_20  and  C_8 
REMARK    4  A    between atoms: C_9  and  N_18 
REMARK       I    between atoms: N_11  and  C_10 
REMARK    5  A    between atoms: P_25  and  O_21 
ROOT
HETATM    1  C   UNK N   1      26.494  20.525   3.116  0.00  0.00     0.188 A 
HETATM    2  C   UNK N   1      24.437  19.972   3.341  0.00  0.00     0.130 A 
HETATM    3  C   UNK N   1      25.161  19.287   4.245  0.00  0.00     0.157 A 
HETATM    4  C   UNK N   1      23.060  19.815   3.294  0.00  0.00     0.186 A 
HETATM    5  C   UNK N   1      23.245  18.253   5.090  0.00  0.00     0.679 A 
HETATM    6  N   UNK N   1      22.684  17.443   5.903  0.00  0.00    -0.234 N 
ATOM      7  HN  UNK N   1      21.671  17.326   5.880  1.00  0.00     0.174 HD
HETATM    8  N   UNK N   1      25.249  20.758   2.609  0.00  0.00    -0.346 N 
ATOM      9  HN  UNK N   1      24.990  21.386   1.846  1.00  0.00     0.167 HD
HETATM   10  N   UNK N   1      24.601  18.430   5.131  0.00  0.00    -0.174 N 
HETATM   11  N   UNK N   1      22.483  18.945   4.177  0.00  0.00    -0.168 N 
ATOM     12  HN  UNK N   1      21.473  18.808   4.159  1.00  0.00     0.186 HD
HETATM   13  N   UNK N   1      26.455  19.607   4.119  0.00  0.00    -0.297 N 
HETATM   14  H   UNK N   1      23.219  16.931   6.551  0.00  0.00     0.174 HD
HETATM   15  H   UNK N   1      25.154  17.947   5.787  0.00  0.00     0.186 HD
ENDROOT
BRANCH  13  16
HETATM   16  C   UNK N   1      27.547  19.171   4.991  0.00  0.00     0.263 C 
HETATM   17  C   UNK N   1      27.970  17.722   4.787  0.00  0.00     0.213 C 
HETATM   18  C   UNK N   1      28.766  17.601   5.977  0.00  0.00     0.196 C 
HETATM   19  O   UNK N   1      28.825  17.380   3.752  0.00  0.00    -0.301 OA
HETATM   20  C   UNK N   1      27.752  18.099   6.988  0.00  0.00     0.180 C 
HETATM   21  O   UNK N   1      29.166  16.288   5.955  0.00  0.00    -0.303 OA
HETATM   22  O   UNK N   1      27.164  19.235   6.364  0.00  0.00    -0.353 OA
HETATM   23  P   UNK N   1      29.971  16.144   4.375  0.00  0.00     0.327 P 
HETATM   24  S   UNK N   1      29.279  14.541   4.670  0.00  0.00    -0.007 SA
BRANCH  20  25
HETATM   25  C   UNK N   1      28.436  18.487   8.293  0.00  0.00     0.198 C 
BRANCH  25  26
HETATM   26  O   UNK N   1      27.569  18.284   9.369  0.00  0.00    -0.398 OA
HETATM   27  H   UNK N   1      27.891  18.210  10.280  0.00  0.00     0.209 HD
ENDBRANCH  25  26
ENDBRANCH  20  25
BRANCH  23  28
HETATM   28  O   UNK N   1      29.076  15.545   3.013  0.00  0.00    -0.324 OA
HETATM   29  H   UNK N   1      28.841  16.023   2.202  0.00  0.00     0.220 HD
ENDBRANCH  23  28
ENDBRANCH  13  16
BRANCH   4  30
HETATM   30  O   UNK N   1      22.308  20.500   2.417  0.00  0.00    -0.344 OA
HETATM   31  H   UNK N   1      22.502  20.477   1.500  0.00  0.00     0.219 HD
ENDBRANCH   4  30
TORSDOF 5
ENDMDL
MODEL 9
REMARK VINA RESULT:      -6.3      9.425     11.226
REMARK  5 active torsions:
REMARK  status: ('A' for Active; 'I' for Inactive)
REMARK    1  A    between atoms: C_3  and  C_1 
REMARK    2  A    between atoms: O_19  and  C_1 
REMARK    3  A    between atoms: O_20  and  C_8 
REMARK    4  A    between atoms: C_9  and  N_18 
REMARK       I    between atoms: N_11  and  C_10 
REMARK    5  A    between atoms: P_25  and  O_21 
ROOT
HETATM    1  C   UNK N   1      22.931  15.825   4.960  0.00  0.00     0.188 A 
HETATM    2  C   UNK N   1      21.470  15.462   6.484  0.00  0.00     0.130 A 
HETATM    3  C   UNK N   1      21.664  16.790   6.391  0.00  0.00     0.157 A 
HETATM    4  C   UNK N   1      20.544  14.959   7.386  0.00  0.00     0.186 A 
HETATM    5  C   UNK N   1      20.081  17.202   8.058  0.00  0.00     0.679 A 
HETATM    6  N   UNK N   1      19.434  18.014   8.803  0.00  0.00    -0.234 N 
ATOM      7  HN  UNK N   1      18.748  17.654   9.465  1.00  0.00     0.174 HD
HETATM    8  N   UNK N   1      22.258  14.823   5.598  0.00  0.00    -0.346 N 
ATOM      9  HN  UNK N   1      22.335  13.818   5.441  1.00  0.00     0.167 HD
HETATM   10  N   UNK N   1      20.988  17.682   7.153  0.00  0.00    -0.174 N 
HETATM   11  N   UNK N   1      19.863  15.849   8.168  0.00  0.00    -0.168 N 
ATOM     12  HN  UNK N   1      19.180  15.503   8.843  1.00  0.00     0.186 HD
HETATM   13  N   UNK N   1      22.583  17.044   5.450  0.00  0.00    -0.297 N 
HETATM   14  H   UNK N   1      19.592  18.984   8.744  0.00  0.00     0.174 HD
HETATM   15  H   UNK N   1      21.145  18.650   7.060  0.00  0.00     0.186 HD
ENDROOT
BRANCH  13  16
HETATM   16  C   UNK N   1      22.986  18.366   4.964  0.00  0.00     0.263 C 
HETATM   17  C   UNK N   1      22.238  18.829   3.722  0.00  0.00     0.213 C 
HETATM   18  C   UNK N   1      23.102  19.930   3.396  0.00  0.00     0.196 C 
HETATM   19  O   UNK N   1      20.976  19.390   3.830  0.00  0.00    -0.301 OA
HETATM   20  C   UNK N   1      24.430  19.199   3.415  0.00  0.00     0.180 C 
HETATM   21  O   UNK N   1      22.570  20.412   2.226  0.00  0.00    -0.303 OA
HETATM   22  O   UNK N   1      24.357  18.372   4.572  0.00  0.00    -0.353 OA
HETATM   23  P   UNK N   1      20.883  20.758   2.668  0.00  0.00     0.327 P 
HETATM   24  S   UNK N   1      20.809  20.304   0.959  0.00  0.00    -0.007 SA
BRANCH  20  25
HETATM   25  C   UNK N   1      25.588  20.182   3.520  0.00  0.00     0.198 C 
BRANCH  25  26
HETATM   26  O   UNK N   1      25.688  20.934   2.348  0.00  0.00    -0.398 OA
HETATM   27  H   UNK N   1      26.545  21.186   1.971  0.00  0.00     0.209 HD
ENDBRANCH  25  26
ENDBRANCH  20  25
BRANCH  23  28
HETATM   28  O   UNK N   1      19.655  19.573   2.347  0.00  0.00    -0.324 OA
HETATM   29  H   UNK N   1      19.126  19.472   1.540  0.00  0.00     0.220 HD
ENDBRANCH  23  28
ENDBRANCH  13  16
BRANCH   4  30
HETATM   30  O   UNK N   1      20.314  13.640   7.488  0.00  0.00    -0.344 OA
HETATM   31  H   UNK N   1      20.903  13.086   7.960  0.00  0.00     0.219 HD
ENDBRANCH   4  30
TORSDOF 5
ENDMDL
