MODEL 1
REMARK VINA RESULT:      -5.0      0.000      0.000
REMARK  4 active torsions:
REMARK  status: ('A' for Active; 'I' for Inactive)
REMARK    1  A    between atoms: O_1  and  P_2 
REMARK    2  A    between atoms: P_2  and  O_3 
REMARK    3  A    between atoms: P_2  and  O_5 
REMARK    4  A    between atoms: O_5  and  C_6 
ROOT
HETATM    1  O   UNK N   1      35.308  13.462  15.594  0.00  0.00    -0.255 OA
ENDROOT
BRANCH   1   2
HETATM    2  P   UNK N   1      36.296  13.055  14.232  0.00  0.00     0.396 P 
HETATM    3  O   UNK N   1      35.007  13.599  13.561  0.00  0.00    -0.631 OA
BRANCH   2   4
HETATM    4  O   UNK N   1      36.858  14.246  13.101  0.00  0.00    -0.307 OA
HETATM    5  H   UNK N   1      36.492  14.514  12.245  0.00  0.00     0.222 HD
ENDBRANCH   2   4
BRANCH   2   6
HETATM    6  O   UNK N   1      37.124  14.371  15.013  0.00  0.00    -0.307 OA
HETATM    7  H   UNK N   1      37.162  15.297  15.302  0.00  0.00     0.222 HD
ENDBRANCH   2   6
ENDBRANCH   1   2
BRANCH   1   8
HETATM    8  C   UNK N   1      35.356  12.846  16.805  0.00  0.00     0.081 A 
HETATM    9  C   UNK N   1      35.149  13.608  17.961  0.00  0.00     0.037 A 
HETATM   10  C   UNK N   1      35.181  13.001  19.221  0.00  0.00     0.003 A 
HETATM   11  C   UNK N   1      35.429  11.631  19.332  0.00  0.00     0.000 A 
HETATM   12  C   UNK N   1      35.640  10.864  18.183  0.00  0.00     0.003 A 
HETATM   13  C   UNK N   1      35.599  11.467  16.923  0.00  0.00     0.037 A 
ENDBRANCH   1   8
TORSDOF 4
ENDMDL
MODEL 2
REMARK VINA RESULT:      -4.9     15.764     16.568
REMARK  4 active torsions:
REMARK  status: ('A' for Active; 'I' for Inactive)
REMARK    1  A    between atoms: O_1  and  P_2 
REMARK    2  A    between atoms: P_2  and  O_3 
REMARK    3  A    between atoms: P_2  and  O_5 
REMARK    4  A    between atoms: O_5  and  C_6 
ROOT
HETATM    1  O   UNK N   1      20.013  13.982   9.100  0.00  0.00    -0.255 OA
ENDROOT
BRANCH   1   2
HETATM    2  P   UNK N   1      20.053  15.635   8.588  0.00  0.00     0.396 P 
HETATM    3  O   UNK N   1      19.883  14.872   7.247  0.00  0.00    -0.631 OA
BRANCH   2   4
HETATM    4  O   UNK N   1      18.702  16.402   7.813  0.00  0.00    -0.307 OA
HETATM    5  H   UNK N   1      17.766  16.152   7.803  0.00  0.00     0.222 HD
ENDBRANCH   2   4
BRANCH   2   6
HETATM    6  O   UNK N   1      18.587  15.485   9.512  0.00  0.00    -0.307 OA
HETATM    7  H   UNK N   1      17.660  15.209   9.593  0.00  0.00     0.222 HD
ENDBRANCH   2   6
ENDBRANCH   1   2
BRANCH   1   8
HETATM    8  C   UNK N   1      20.977  13.370   9.838  0.00  0.00     0.081 A 
HETATM    9  C   UNK N   1      20.598  12.612  10.953  0.00  0.00     0.037 A 
HETATM   10  C   UNK N   1      21.565  11.962  11.726  0.00  0.00     0.003 A 
HETATM   11  C   UNK N   1      22.918  12.073  11.394  0.00  0.00     0.000 A 
HETATM   12  C   UNK N   1      23.305  12.830  10.285  0.00  0.00     0.003 A 
HETATM   13  C   UNK N   1      22.339  13.473   9.506  0.00  0.00     0.037 A 
ENDBRANCH   1   8
TORSDOF 4
ENDMDL
MODEL 3
REMARK VINA RESULT:      -4.8     10.724     11.882
REMARK  4 active torsions:
REMARK  status: ('A' for Active; 'I' for Inactive)
REMARK    1  A    between atoms: O_1  and  P_2 
REMARK    2  A    between atoms: P_2  and  O_3 
REMARK    3  A    between atoms: P_2  and  O_5 
REMARK    4  A    between atoms: O_5  and  C_6 
ROOT
HETATM    1  O   UNK N   1      34.209  17.798   6.826  0.00  0.00    -0.255 OA
ENDROOT
BRANCH   1   2
HETATM    2  P   UNK N   1      34.045  17.671   8.545  0.00  0.00     0.396 P 
HETATM    3  O   UNK N   1      34.885  16.414   8.193  0.00  0.00    -0.631 OA
BRANCH   2   4
HETATM    4  O   UNK N   1      35.408  17.739   9.617  0.00  0.00    -0.307 OA
HETATM    5  H   UNK N   1      36.357  17.770   9.418  0.00  0.00     0.222 HD
ENDBRANCH   2   4
BRANCH   2   6
HETATM    6  O   UNK N   1      35.018  19.089   8.289  0.00  0.00    -0.307 OA
HETATM    7  H   UNK N   1      35.233  20.016   8.481  0.00  0.00     0.222 HD
ENDBRANCH   2   6
ENDBRANCH   1   2
BRANCH   1   8
HETATM    8  C   UNK N   1      33.222  17.542   5.927  0.00  0.00     0.081 A 
HETATM    9  C   UNK N   1      31.945  17.216   6.397  0.00  0.00     0.037 A 
HETATM   10  C   UNK N   1      30.906  16.957   5.497  0.00  0.00     0.003 A 
HETATM   11  C   UNK N   1      31.141  17.014   4.120  0.00  0.00     0.000 A 
HETATM   12  C   UNK N   1      32.415  17.336   3.643  0.00  0.00     0.003 A 
HETATM   13  C   UNK N   1      33.451  17.604   4.541  0.00  0.00     0.037 A 
ENDBRANCH   1   8
TORSDOF 4
ENDMDL
MODEL 4
REMARK VINA RESULT:      -4.7     18.813     19.901
REMARK  4 active torsions:
REMARK  status: ('A' for Active; 'I' for Inactive)
REMARK    1  A    between atoms: O_1  and  P_2 
REMARK    2  A    between atoms: P_2  and  O_3 
REMARK    3  A    between atoms: P_2  and  O_5 
REMARK    4  A    between atoms: O_5  and  C_6 
ROOT
HETATM    1  O   UNK N   1      22.694  20.839   2.735  0.00  0.00    -0.255 OA
ENDROOT
BRANCH   1   2
HETATM    2  P   UNK N   1      21.281  19.951   2.272  0.00  0.00     0.396 P 
HETATM    3  O   UNK N   1      20.701  21.036   3.219  0.00  0.00    -0.631 OA
BRANCH   2   4
HETATM    4  O   UNK N   1      19.984  20.671   1.373  0.00  0.00    -0.307 OA
HETATM    5  H   UNK N   1      19.819  21.600   1.151  0.00  0.00     0.222 HD
ENDBRANCH   2   4
BRANCH   2   6
HETATM    6  O   UNK N   1      21.833  20.714   0.810  0.00  0.00    -0.307 OA
HETATM    7  H   UNK N   1      22.484  21.246   0.325  0.00  0.00     0.222 HD
ENDBRANCH   2   6
ENDBRANCH   1   2
BRANCH   1   8
HETATM    8  C   UNK N   1      23.866  20.283   3.143  0.00  0.00     0.081 A 
HETATM    9  C   UNK N   1      23.829  19.122   3.924  0.00  0.00     0.037 A 
HETATM   10  C   UNK N   1      25.019  18.522   4.351  0.00  0.00     0.003 A 
HETATM   11  C   UNK N   1      26.251  19.084   4.006  0.00  0.00     0.000 A 
HETATM   12  C   UNK N   1      26.295  20.245   3.230  0.00  0.00     0.003 A 
HETATM   13  C   UNK N   1      25.108  20.841   2.795  0.00  0.00     0.037 A 
ENDBRANCH   1   8
TORSDOF 4
ENDMDL
MODEL 5
REMARK VINA RESULT:      -4.7      1.589      2.473
REMARK  4 active torsions:
REMARK  status: ('A' for Active; 'I' for Inactive)
REMARK    1  A    between atoms: O_1  and  P_2 
REMARK    2  A    between atoms: P_2  and  O_3 
REMARK    3  A    between atoms: P_2  and  O_5 
REMARK    4  A    between atoms: O_5  and  C_6 
ROOT
HETATM    1  O   UNK N   1      35.093  13.669  14.171  0.00  0.00    -0.255 OA
ENDROOT
BRANCH   1   2
HETATM    2  P   UNK N   1      36.090  13.767  12.760  0.00  0.00     0.396 P 
HETATM    3  O   UNK N   1      34.728  14.307  12.248  0.00  0.00    -0.631 OA
BRANCH   2   4
HETATM    4  O   UNK N   1      36.476  15.277  11.997  0.00  0.00    -0.307 OA
HETATM    5  H   UNK N   1      35.928  16.065  11.863  0.00  0.00     0.222 HD
ENDBRANCH   2   4
BRANCH   2   6
HETATM    6  O   UNK N   1      36.771  14.916  13.874  0.00  0.00    -0.307 OA
HETATM    7  H   UNK N   1      37.305  15.706  14.057  0.00  0.00     0.222 HD
ENDBRANCH   2   6
ENDBRANCH   1   2
BRANCH   1   8
HETATM    8  C   UNK N   1      35.005  12.588  14.993  0.00  0.00     0.081 A 
HETATM    9  C   UNK N   1      34.311  11.456  14.551  0.00  0.00     0.037 A 
HETATM   10  C   UNK N   1      34.212  10.325  15.368  0.00  0.00     0.003 A 
HETATM   11  C   UNK N   1      34.800  10.323  16.635  0.00  0.00     0.000 A 
HETATM   12  C   UNK N   1      35.493  11.450  17.085  0.00  0.00     0.003 A 
HETATM   13  C   UNK N   1      35.600  12.578  16.266  0.00  0.00     0.037 A 
ENDBRANCH   1   8
TORSDOF 4
ENDMDL
MODEL 6
REMARK VINA RESULT:      -4.5     20.999     21.615
REMARK  4 active torsions:
REMARK  status: ('A' for Active; 'I' for Inactive)
REMARK    1  A    between atoms: O_1  and  P_2 
REMARK    2  A    between atoms: P_2  and  O_3 
REMARK    3  A    between atoms: P_2  and  O_5 
REMARK    4  A    between atoms: O_5  and  C_6 
ROOT
HETATM    1  O   UNK N   1      20.173  19.166   2.360  0.00  0.00    -0.255 OA
ENDROOT
BRANCH   1   2
HETATM    2  P   UNK N   1      21.605  20.053   2.760  0.00  0.00     0.396 P 
HETATM    3  O   UNK N   1      21.326  20.505   1.302  0.00  0.00    -0.631 OA
BRANCH   2   4
HETATM    4  O   UNK N   1      21.637  21.787   2.825  0.00  0.00    -0.307 OA
HETATM    5  H   UNK N   1      21.488  22.439   2.124  0.00  0.00     0.222 HD
ENDBRANCH   2   4
BRANCH   2   6
HETATM    6  O   UNK N   1      20.369  20.699   3.799  0.00  0.00    -0.307 OA
HETATM    7  H   UNK N   1      19.668  21.346   3.983  0.00  0.00     0.222 HD
ENDBRANCH   2   6
ENDBRANCH   1   2
BRANCH   1   8
HETATM    8  C   UNK N   1      20.104  17.814   2.229  0.00  0.00     0.081 A 
HETATM    9  C   UNK N   1      20.133  17.255   0.946  0.00  0.00     0.037 A 
HETATM   10  C   UNK N   1      20.073  15.868   0.779  0.00  0.00     0.003 A 
HETATM   11  C   UNK N   1      19.975  15.031   1.894  0.00  0.00     0.000 A 
HETATM   12  C   UNK N   1      19.941  15.581   3.178  0.00  0.00     0.003 A 
HETATM   13  C   UNK N   1      20.010  16.967   3.347  0.00  0.00     0.037 A 
ENDBRANCH   1   8
TORSDOF 4
ENDMDL
MODEL 7
REMARK VINA RESULT:      -4.4      1.754      2.193
REMARK  4 active torsions:
REMARK  status: ('A' for Active; 'I' for Inactive)
REMARK    1  A    between atoms: O_1  and  P_2 
REMARK    2  A    between atoms: P_2  and  O_3 
REMARK    3  A    between atoms: P_2  and  O_5 
REMARK    4  A    between atoms: O_5  and  C_6 
ROOT
HETATM    1  O   UNK N   1      34.176  12.299  14.517  0.00  0.00    -0.255 OA
ENDROOT
BRANCH   1   2
HETATM    2  P   UNK N   1      35.069  11.826  13.111  0.00  0.00     0.396 P 
HETATM    3  O   UNK N   1      33.900  10.806  13.125  0.00  0.00    -0.631 OA
BRANCH   2   4
HETATM    4  O   UNK N   1      34.397  11.905  11.513  0.00  0.00    -0.307 OA
HETATM    5  H   UNK N   1      34.829  11.817  10.650  0.00  0.00     0.222 HD
ENDBRANCH   2   4
BRANCH   2   6
HETATM    6  O   UNK N   1      34.437  13.403  12.736  0.00  0.00    -0.307 OA
HETATM    7  H   UNK N   1      33.787  14.111  12.872  0.00  0.00     0.222 HD
ENDBRANCH   2   6
ENDBRANCH   1   2
BRANCH   1   8
HETATM    8  C   UNK N   1      34.595  12.132  15.800  0.00  0.00     0.081 A 
HETATM    9  C   UNK N   1      34.678  13.252  16.636  0.00  0.00     0.037 A 
HETATM   10  C   UNK N   1      35.095  13.111  17.964  0.00  0.00     0.003 A 
HETATM   11  C   UNK N   1      35.440  11.851  18.460  0.00  0.00     0.000 A 
HETATM   12  C   UNK N   1      35.363  10.729  17.631  0.00  0.00     0.003 A 
HETATM   13  C   UNK N   1      34.937  10.867  16.307  0.00  0.00     0.037 A 
ENDBRANCH   1   8
TORSDOF 4
ENDMDL
MODEL 8
REMARK VINA RESULT:      -4.4     17.779     18.894
REMARK  4 active torsions:
REMARK  status: ('A' for Active; 'I' for Inactive)
REMARK    1  A    between atoms: O_1  and  P_2 
REMARK    2  A    between atoms: P_2  and  O_3 
REMARK    3  A    between atoms: P_2  and  O_5 
REMARK    4  A    between atoms: O_5  and  C_6 
ROOT
HETATM    1  O   UNK N   1      42.335  23.634   2.208  0.00  0.00    -0.255 OA
ENDROOT
BRANCH   1   2
HETATM    2  P   UNK N   1      44.049  23.442   2.360  0.00  0.00     0.396 P 
HETATM    3  O   UNK N   1      43.930  24.597   1.331  0.00  0.00    -0.631 OA
BRANCH   2   4
HETATM    4  O   UNK N   1      45.073  24.694   2.987  0.00  0.00    -0.307 OA
HETATM    5  H   UNK N   1      45.955  24.979   2.701  0.00  0.00     0.222 HD
ENDBRANCH   2   4
BRANCH   2   6
HETATM    6  O   UNK N   1      43.520  24.013   3.915  0.00  0.00    -0.307 OA
HETATM    7  H   UNK N   1      42.965  24.593   4.462  0.00  0.00     0.222 HD
ENDBRANCH   2   6
ENDBRANCH   1   2
BRANCH   1   8
HETATM    8  C   UNK N   1      41.477  22.675   1.768  0.00  0.00     0.081 A 
HETATM    9  C   UNK N   1      41.268  21.540   2.560  0.00  0.00     0.037 A 
HETATM   10  C   UNK N   1      40.384  20.540   2.140  0.00  0.00     0.003 A 
HETATM   11  C   UNK N   1      39.711  20.666   0.922  0.00  0.00     0.000 A 
HETATM   12  C   UNK N   1      39.917  21.795   0.124  0.00  0.00     0.003 A 
HETATM   13  C   UNK N   1      40.794  22.799   0.547  0.00  0.00     0.037 A 
ENDBRANCH   1   8
TORSDOF 4
ENDMDL
MODEL 9
REMARK VINA RESULT:      -4.4      7.786      9.077
REMARK  4 active torsions:
REMARK  status: ('A' for Active; 'I' for Inactive)
REMARK    1  A    between atoms: O_1  and  P_2 
REMARK    2  A    between atoms: P_2  and  O_3 
REMARK    3  A    between atoms: P_2  and  O_5 
REMARK    4  A    between atoms: O_5  and  C_6 
ROOT
HETATM    1  O   UNK N   1      34.700  16.040  10.238  0.00  0.00    -0.255 OA
ENDROOT
BRANCH   1   2
HETATM    2  P   UNK N   1      34.852  14.411  10.807  0.00  0.00     0.396 P 
HETATM    3  O   UNK N   1      35.804  15.189  11.755  0.00  0.00    -0.631 OA
BRANCH   2   4
HETATM    4  O   UNK N   1      34.367  13.935  12.403  0.00  0.00    -0.307 OA
HETATM    5  H   UNK N   1      33.678  14.299  12.980  0.00  0.00     0.222 HD
ENDBRANCH   2   4
BRANCH   2   6
HETATM    6  O   UNK N   1      33.210  14.861  11.161  0.00  0.00    -0.307 OA
HETATM    7  H   UNK N   1      32.546  15.253  11.751  0.00  0.00     0.222 HD
ENDBRANCH   2   6
ENDBRANCH   1   2
BRANCH   1   8
HETATM    8  C   UNK N   1      34.448  16.397   8.950  0.00  0.00     0.081 A 
HETATM    9  C   UNK N   1      33.826  17.625   8.698  0.00  0.00     0.037 A 
HETATM   10  C   UNK N   1      33.562  18.025   7.383  0.00  0.00     0.003 A 
HETATM   11  C   UNK N   1      33.912  17.195   6.315  0.00  0.00     0.000 A 
HETATM   12  C   UNK N   1      34.530  15.966   6.559  0.00  0.00     0.003 A 
HETATM   13  C   UNK N   1      34.802  15.569   7.871  0.00  0.00     0.037 A 
ENDBRANCH   1   8
TORSDOF 4
ENDMDL
