MODEL 1
REMARK VINA RESULT:      -8.4      0.000      0.000
REMARK  13 active torsions:
REMARK  status: ('A' for Active; 'I' for Inactive)
REMARK    1  A    between atoms: C_24  and  C_18 
REMARK    2  A    between atoms: C_27  and  C_19 
REMARK    3  A    between atoms: C_31  and  C_19 
REMARK    4  A    between atoms: C_23  and  C_20 
REMARK    5  A    between atoms: N_38  and  C_20 
REMARK    6  A    between atoms: C_28  and  C_21 
REMARK    7  A    between atoms: O_40  and  C_22 
REMARK    8  A    between atoms: C_26  and  C_25 
REMARK    9  A    between atoms: C_29  and  N_36 
REMARK   10  A    between atoms: C_32  and  C_30 
REMARK   11  A    between atoms: N_34  and  C_30 
REMARK   12  A    between atoms: O_42  and  C_31 
REMARK   13  A    between atoms: C_32  and  O_43 
ROOT
HETATM    1  C   UNK N   1      37.664  13.022  11.123  0.00  0.00     0.164 C 
HETATM    2  N   UNK N   1      37.404  12.085  11.963  0.00  0.00    -0.356 N 
ATOM      3  HN  UNK N   1      38.198  11.746  12.506  1.00  0.00     0.162 HD
ENDROOT
BRANCH   1   4
HETATM    4  C   UNK N   1      36.666  13.588  10.204  0.00  0.00     0.085 C 
HETATM    5  C   UNK N   1      35.932  14.601  10.714  0.00  0.00     0.045 C 
BRANCH   5   6
HETATM    6  C   UNK N   1      34.809  15.290  10.079  0.00  0.00    -0.033 A 
HETATM    7  C   UNK N   1      33.546  14.714   9.969  0.00  0.00     0.012 A 
HETATM    8  C   UNK N   1      32.567  15.328   9.213  0.00  0.00     0.009 A 
HETATM    9  C   UNK N   1      32.837  16.533   8.556  0.00  0.00    -0.035 A 
HETATM   10  C   UNK N   1      34.077  17.177   8.751  0.00  0.00     0.009 A 
HETATM   11  C   UNK N   1      35.052  16.545   9.521  0.00  0.00     0.026 A 
BRANCH   9  12
HETATM   12  C   UNK N   1      31.831  17.042   7.579  0.00  0.00     0.149 C 
BRANCH  12  13
HETATM   13  C   UNK N   1      30.607  17.467   8.351  0.00  0.00     0.143 C 
HETATM   14  O   UNK N   1      29.499  17.187   7.930  0.00  0.00    -0.650 OA
BRANCH  13  15
HETATM   15  O   UNK N   1      30.728  18.255   9.441  0.00  0.00    -0.776 OA
HETATM   16  H   UNK N   1      30.388  18.331  10.310  0.00  0.00     0.167 HD
ENDBRANCH  13  15
ENDBRANCH  12  13
ENDBRANCH   9  12
BRANCH  10  17
HETATM   17  C   UNK N   1      34.389  18.470   8.115  0.00  0.00     0.270 C 
HETATM   18  O   UNK N   1      35.286  19.180   8.547  0.00  0.00    -0.301 OA
ENDBRANCH  10  17
ENDBRANCH   5   6
BRANCH   4  19
HETATM   19  N   UNK N   1      36.457  12.994   8.911  0.00  0.00    -0.338 N 
HETATM   20  C   UNK N   1      37.220  13.140   7.875  0.00  0.00     0.111 C 
HETATM   21  C   UNK N   1      36.819  12.525   6.575  0.00  0.00     0.097 C 
ATOM     22  HN  UNK N   1      35.633  12.402   8.800  1.00  0.00     0.168 HD
BRANCH  20  23
HETATM   23  O   UNK N   1      38.385  13.815   7.952  0.00  0.00    -0.350 OA
HETATM   24  H   UNK N   1      39.267  13.882   8.262  0.00  0.00     0.219 HD
ENDBRANCH  20  23
ENDBRANCH   4  19
ENDBRANCH   1   4
BRANCH   1  25
HETATM   25  O   UNK N   1      38.944  13.416  10.985  0.00  0.00    -0.345 OA
HETATM   26  H   UNK N   1      39.770  13.077  10.700  0.00  0.00     0.219 HD
ENDBRANCH   1  25
BRANCH   2  27
HETATM   27  C   UNK N   1      36.132  11.445  12.244  0.00  0.00     0.176 C 
HETATM   28  C   UNK N   1      36.442   9.978  12.552  0.00  0.00     0.035 C 
HETATM   29  C   UNK N   1      37.059   9.725  13.937  0.00  0.00     0.004 C 
HETATM   30  C   UNK N   1      38.096  10.761  14.394  0.00  0.00     0.020 C 
HETATM   31  C   UNK N   1      37.573  12.193  14.668  0.00  0.00     0.126 C 
HETATM   32  N   UNK N   1      36.117  12.360  14.579  0.00  0.00    -0.346 N 
HETATM   33  C   UNK N   1      35.437  12.048  13.437  0.00  0.00     0.242 C 
HETATM   34  O   UNK N   1      34.218  12.213  13.390  0.00  0.00    -0.271 OA
BRANCH  32  35
HETATM   35  C   UNK N   1      35.402  12.841  15.748  0.00  0.00     0.164 C 
BRANCH  35  36
HETATM   36  C   UNK N   1      35.334  11.714  16.713  0.00  0.00    -0.040 A 
HETATM   37  C   UNK N   1      35.538  12.016  18.056  0.00  0.00     0.009 A 
HETATM   38  C   UNK N   1      35.159  11.123  19.031  0.00  0.00     0.013 A 
HETATM   39  C   UNK N   1      34.633   9.881  18.683  0.00  0.00    -0.026 A 
HETATM   40  C   UNK N   1      34.518   9.519  17.329  0.00  0.00     0.013 A 
HETATM   41  C   UNK N   1      34.837  10.460  16.337  0.00  0.00     0.009 A 
BRANCH  39  42
HETATM   42  C   UNK N   1      34.086   9.053  19.755  0.00  0.00    -0.026 A 
HETATM   43  C   UNK N   1      32.740   8.680  19.792  0.00  0.00     0.012 A 
HETATM   44  C   UNK N   1      32.279   7.860  20.828  0.00  0.00     0.001 A 
HETATM   45  C   UNK N   1      33.146   7.462  21.852  0.00  0.00     0.000 A 
HETATM   46  C   UNK N   1      34.482   7.866  21.836  0.00  0.00     0.001 A 
HETATM   47  C   UNK N   1      34.953   8.638  20.779  0.00  0.00     0.012 A 
ENDBRANCH  39  42
ENDBRANCH  35  36
ENDBRANCH  32  35
ENDBRANCH   2  27
TORSDOF 13
ENDMDL
MODEL 2
REMARK VINA RESULT:      -8.3     10.453     13.890
REMARK  13 active torsions:
REMARK  status: ('A' for Active; 'I' for Inactive)
REMARK    1  A    between atoms: C_24  and  C_18 
REMARK    2  A    between atoms: C_27  and  C_19 
REMARK    3  A    between atoms: C_31  and  C_19 
REMARK    4  A    between atoms: C_23  and  C_20 
REMARK    5  A    between atoms: N_38  and  C_20 
REMARK    6  A    between atoms: C_28  and  C_21 
REMARK    7  A    between atoms: O_40  and  C_22 
REMARK    8  A    between atoms: C_26  and  C_25 
REMARK    9  A    between atoms: C_29  and  N_36 
REMARK   10  A    between atoms: C_32  and  C_30 
REMARK   11  A    between atoms: N_34  and  C_30 
REMARK   12  A    between atoms: O_42  and  C_31 
REMARK   13  A    between atoms: C_32  and  O_43 
ROOT
HETATM    1  C   UNK N   1      28.731  17.229   6.682  0.00  0.00     0.164 C 
HETATM    2  N   UNK N   1      29.834  17.130   6.028  0.00  0.00    -0.356 N 
ATOM      3  HN  UNK N   1      30.645  16.839   6.573  1.00  0.00     0.162 HD
ENDROOT
BRANCH   1   4
HETATM    4  C   UNK N   1      27.474  17.702   6.086  0.00  0.00     0.085 C 
HETATM    5  C   UNK N   1      26.585  16.730   5.783  0.00  0.00     0.045 C 
BRANCH   5   6
HETATM    6  C   UNK N   1      25.303  16.882   5.098  0.00  0.00    -0.033 A 
HETATM    7  C   UNK N   1      25.206  17.016   3.716  0.00  0.00     0.012 A 
HETATM    8  C   UNK N   1      23.994  17.329   3.131  0.00  0.00     0.009 A 
HETATM    9  C   UNK N   1      22.857  17.509   3.924  0.00  0.00    -0.035 A 
HETATM   10  C   UNK N   1      22.923  17.269   5.313  0.00  0.00     0.009 A 
HETATM   11  C   UNK N   1      24.153  16.950   5.885  0.00  0.00     0.026 A 
BRANCH   9  12
HETATM   12  C   UNK N   1      21.630  18.059   3.278  0.00  0.00     0.149 C 
BRANCH  12  13
HETATM   13  C   UNK N   1      21.610  19.549   3.512  0.00  0.00     0.143 C 
HETATM   14  O   UNK N   1      22.532  20.237   3.111  0.00  0.00    -0.650 OA
BRANCH  13  15
HETATM   15  O   UNK N   1      20.637  20.108   4.263  0.00  0.00    -0.776 OA
HETATM   16  H   UNK N   1      19.831  19.875   4.679  0.00  0.00     0.167 HD
ENDBRANCH  13  15
ENDBRANCH  12  13
ENDBRANCH   9  12
BRANCH  10  17
HETATM   17  C   UNK N   1      21.739  17.402   6.181  0.00  0.00     0.270 C 
HETATM   18  O   UNK N   1      21.511  18.447   6.774  0.00  0.00    -0.301 OA
ENDBRANCH  10  17
ENDBRANCH   5   6
BRANCH   4  19
HETATM   19  N   UNK N   1      27.304  19.095   5.770  0.00  0.00    -0.338 N 
HETATM   20  C   UNK N   1      27.089  20.047   6.621  0.00  0.00     0.111 C 
HETATM   21  C   UNK N   1      26.848  21.434   6.126  0.00  0.00     0.097 C 
ATOM     22  HN  UNK N   1      27.358  19.357   4.786  1.00  0.00     0.168 HD
BRANCH  20  23
HETATM   23  O   UNK N   1      27.107  19.816   7.950  0.00  0.00    -0.350 OA
HETATM   24  H   UNK N   1      26.726  19.923   8.799  0.00  0.00     0.219 HD
ENDBRANCH  20  23
ENDBRANCH   4  19
ENDBRANCH   1   4
BRANCH   1  25
HETATM   25  O   UNK N   1      28.758  17.013   8.011  0.00  0.00    -0.345 OA
HETATM   26  H   UNK N   1      29.323  17.147   8.746  0.00  0.00     0.219 HD
ENDBRANCH   1  25
BRANCH   2  27
HETATM   27  C   UNK N   1      30.078  17.377   4.619  0.00  0.00     0.176 C 
HETATM   28  C   UNK N   1      31.582  17.622   4.475  0.00  0.00     0.035 C 
HETATM   29  C   UNK N   1      32.455  16.360   4.572  0.00  0.00     0.004 C 
HETATM   30  C   UNK N   1      32.020  15.340   5.633  0.00  0.00     0.020 C 
HETATM   31  C   UNK N   1      30.665  14.627   5.397  0.00  0.00     0.126 C 
HETATM   32  N   UNK N   1      30.013  14.921   4.115  0.00  0.00    -0.346 N 
HETATM   33  C   UNK N   1      29.700  16.201   3.756  0.00  0.00     0.242 C 
HETATM   34  O   UNK N   1      29.141  16.412   2.681  0.00  0.00    -0.271 OA
BRANCH  32  35
HETATM   35  C   UNK N   1      29.730  13.819   3.213  0.00  0.00     0.164 C 
BRANCH  35  36
HETATM   36  C   UNK N   1      28.308  13.443   3.413  0.00  0.00    -0.040 A 
HETATM   37  C   UNK N   1      27.903  13.162   4.715  0.00  0.00     0.009 A 
HETATM   38  C   UNK N   1      26.566  13.146   5.035  0.00  0.00     0.013 A 
HETATM   39  C   UNK N   1      25.601  13.343   4.049  0.00  0.00    -0.026 A 
HETATM   40  C   UNK N   1      25.992  13.525   2.710  0.00  0.00     0.013 A 
HETATM   41  C   UNK N   1      27.358  13.613   2.398  0.00  0.00     0.009 A 
BRANCH  39  42
HETATM   42  C   UNK N   1      24.213  13.492   4.479  0.00  0.00    -0.026 A 
HETATM   43  C   UNK N   1      23.184  13.770   3.576  0.00  0.00     0.012 A 
HETATM   44  C   UNK N   1      21.867  13.873   4.041  0.00  0.00     0.001 A 
HETATM   45  C   UNK N   1      21.591  13.754   5.408  0.00  0.00     0.000 A 
HETATM   46  C   UNK N   1      22.625  13.514   6.314  0.00  0.00     0.001 A 
HETATM   47  C   UNK N   1      23.926  13.360   5.847  0.00  0.00     0.012 A 
ENDBRANCH  39  42
ENDBRANCH  35  36
ENDBRANCH  32  35
ENDBRANCH   2  27
TORSDOF 13
ENDMDL
MODEL 3
REMARK VINA RESULT:      -8.3      5.453      9.788
REMARK  13 active torsions:
REMARK  status: ('A' for Active; 'I' for Inactive)
REMARK    1  A    between atoms: C_24  and  C_18 
REMARK    2  A    between atoms: C_27  and  C_19 
REMARK    3  A    between atoms: C_31  and  C_19 
REMARK    4  A    between atoms: C_23  and  C_20 
REMARK    5  A    between atoms: N_38  and  C_20 
REMARK    6  A    between atoms: C_28  and  C_21 
REMARK    7  A    between atoms: O_40  and  C_22 
REMARK    8  A    between atoms: C_26  and  C_25 
REMARK    9  A    between atoms: C_29  and  N_36 
REMARK   10  A    between atoms: C_32  and  C_30 
REMARK   11  A    between atoms: N_34  and  C_30 
REMARK   12  A    between atoms: O_42  and  C_31 
REMARK   13  A    between atoms: C_32  and  O_43 
ROOT
HETATM    1  C   UNK N   1      35.673  12.107   8.687  0.00  0.00     0.164 C 
HETATM    2  N   UNK N   1      36.670  12.041   7.879  0.00  0.00    -0.356 N 
ATOM      3  HN  UNK N   1      37.006  11.101   7.668  1.00  0.00     0.162 HD
ENDROOT
BRANCH   1   4
HETATM    4  C   UNK N   1      35.098  13.373   9.164  0.00  0.00     0.085 C 
HETATM    5  C   UNK N   1      34.045  13.826   8.448  0.00  0.00     0.045 C 
BRANCH   5   6
HETATM    6  C   UNK N   1      33.334  15.092   8.620  0.00  0.00    -0.033 A 
HETATM    7  C   UNK N   1      31.991  15.151   8.981  0.00  0.00     0.012 A 
HETATM    8  C   UNK N   1      31.320  16.358   8.964  0.00  0.00     0.009 A 
HETATM    9  C   UNK N   1      31.986  17.528   8.586  0.00  0.00    -0.035 A 
HETATM   10  C   UNK N   1      33.372  17.495   8.324  0.00  0.00     0.009 A 
HETATM   11  C   UNK N   1      34.034  16.268   8.350  0.00  0.00     0.026 A 
BRANCH   9  12
HETATM   12  C   UNK N   1      31.173  18.760   8.369  0.00  0.00     0.149 C 
BRANCH  12  13
HETATM   13  C   UNK N   1      29.874  18.598   9.117  0.00  0.00     0.143 C 
HETATM   14  O   UNK N   1      28.843  18.390   8.502  0.00  0.00    -0.650 OA
BRANCH  13  15
HETATM   15  O   UNK N   1      29.827  18.798  10.452  0.00  0.00    -0.776 OA
HETATM   16  H   UNK N   1      29.243  19.127  11.106  0.00  0.00     0.167 HD
ENDBRANCH  13  15
ENDBRANCH  12  13
ENDBRANCH   9  12
BRANCH  10  17
HETATM   17  C   UNK N   1      34.124  18.711   7.966  0.00  0.00     0.270 C 
HETATM   18  O   UNK N   1      35.166  18.994   8.540  0.00  0.00    -0.301 OA
ENDBRANCH  10  17
ENDBRANCH   5   6
BRANCH   4  19
HETATM   19  N   UNK N   1      35.720  14.086  10.247  0.00  0.00    -0.338 N 
HETATM   20  C   UNK N   1      35.286  14.147  11.465  0.00  0.00     0.111 C 
HETATM   21  C   UNK N   1      36.001  15.003  12.458  0.00  0.00     0.097 C 
ATOM     22  HN  UNK N   1      36.583  14.588  10.036  1.00  0.00     0.168 HD
BRANCH  20  23
HETATM   23  O   UNK N   1      34.215  13.431  11.865  0.00  0.00    -0.350 OA
HETATM   24  H   UNK N   1      33.290  13.353  11.990  0.00  0.00     0.219 HD
ENDBRANCH  20  23
ENDBRANCH   4  19
ENDBRANCH   1   4
BRANCH   1  25
HETATM   25  O   UNK N   1      35.213  10.963   9.227  0.00  0.00    -0.345 OA
HETATM   26  H   UNK N   1      34.429  10.614   9.604  0.00  0.00     0.219 HD
ENDBRANCH   1  25
BRANCH   2  27
HETATM   27  C   UNK N   1      37.383  13.123   7.227  0.00  0.00     0.176 C 
HETATM   28  C   UNK N   1      38.611  12.497   6.561  0.00  0.00     0.035 C 
HETATM   29  C   UNK N   1      38.318  11.701   5.280  0.00  0.00     0.004 C 
HETATM   30  C   UNK N   1      37.040  10.849   5.312  0.00  0.00     0.020 C 
HETATM   31  C   UNK N   1      35.696  11.617   5.384  0.00  0.00     0.126 C 
HETATM   32  N   UNK N   1      35.798  13.078   5.283  0.00  0.00    -0.346 N 
HETATM   33  C   UNK N   1      36.555  13.797   6.163  0.00  0.00     0.242 C 
HETATM   34  O   UNK N   1      36.607  15.022   6.061  0.00  0.00    -0.271 OA
BRANCH  32  35
HETATM   35  C   UNK N   1      35.095  13.748   4.204  0.00  0.00     0.164 C 
BRANCH  35  36
HETATM   36  C   UNK N   1      33.893  14.387   4.795  0.00  0.00    -0.040 A 
HETATM   37  C   UNK N   1      33.804  15.773   4.711  0.00  0.00     0.009 A 
HETATM   38  C   UNK N   1      32.598  16.403   4.914  0.00  0.00     0.013 A 
HETATM   39  C   UNK N   1      31.470  15.668   5.273  0.00  0.00    -0.026 A 
HETATM   40  C   UNK N   1      31.567  14.278   5.465  0.00  0.00     0.013 A 
HETATM   41  C   UNK N   1      32.781  13.629   5.186  0.00  0.00     0.009 A 
BRANCH  39  42
HETATM   42  C   UNK N   1      30.187  16.366   5.299  0.00  0.00    -0.026 A 
HETATM   43  C   UNK N   1      30.059  17.696   4.892  0.00  0.00     0.012 A 
HETATM   44  C   UNK N   1      28.798  18.305   4.910  0.00  0.00     0.001 A 
HETATM   45  C   UNK N   1      27.683  17.605   5.387  0.00  0.00     0.000 A 
HETATM   46  C   UNK N   1      27.820  16.289   5.829  0.00  0.00     0.001 A 
HETATM   47  C   UNK N   1      29.061  15.666   5.763  0.00  0.00     0.012 A 
ENDBRANCH  39  42
ENDBRANCH  35  36
ENDBRANCH  32  35
ENDBRANCH   2  27
TORSDOF 13
ENDMDL
MODEL 4
REMARK VINA RESULT:      -8.3      2.236      3.797
REMARK  13 active torsions:
REMARK  status: ('A' for Active; 'I' for Inactive)
REMARK    1  A    between atoms: C_24  and  C_18 
REMARK    2  A    between atoms: C_27  and  C_19 
REMARK    3  A    between atoms: C_31  and  C_19 
REMARK    4  A    between atoms: C_23  and  C_20 
REMARK    5  A    between atoms: N_38  and  C_20 
REMARK    6  A    between atoms: C_28  and  C_21 
REMARK    7  A    between atoms: O_40  and  C_22 
REMARK    8  A    between atoms: C_26  and  C_25 
REMARK    9  A    between atoms: C_29  and  N_36 
REMARK   10  A    between atoms: C_32  and  C_30 
REMARK   11  A    between atoms: N_34  and  C_30 
REMARK   12  A    between atoms: O_42  and  C_31 
REMARK   13  A    between atoms: C_32  and  O_43 
ROOT
HETATM    1  C   UNK N   1      36.705  11.866   9.352  0.00  0.00     0.164 C 
HETATM    2  N   UNK N   1      36.395  10.679   8.969  0.00  0.00    -0.356 N 
ATOM      3  HN  UNK N   1      37.175  10.092   8.673  1.00  0.00     0.162 HD
ENDROOT
BRANCH   1   4
HETATM    4  C   UNK N   1      35.714  12.877   9.745  0.00  0.00     0.085 C 
HETATM    5  C   UNK N   1      35.194  13.594   8.723  0.00  0.00     0.045 C 
BRANCH   5   6
HETATM    6  C   UNK N   1      34.271  14.723   8.811  0.00  0.00    -0.033 A 
HETATM    7  C   UNK N   1      32.939  14.571   9.189  0.00  0.00     0.012 A 
HETATM    8  C   UNK N   1      32.064  15.635   9.092  0.00  0.00     0.009 A 
HETATM    9  C   UNK N   1      32.510  16.872   8.617  0.00  0.00    -0.035 A 
HETATM   10  C   UNK N   1      33.879  17.064   8.334  0.00  0.00     0.009 A 
HETATM   11  C   UNK N   1      34.749  15.980   8.442  0.00  0.00     0.026 A 
BRANCH   9  12
HETATM   12  C   UNK N   1      31.491  17.920   8.321  0.00  0.00     0.149 C 
BRANCH  12  13
HETATM   13  C   UNK N   1      30.522  17.355   7.313  0.00  0.00     0.143 C 
HETATM   14  O   UNK N   1      30.905  17.094   6.186  0.00  0.00    -0.650 OA
BRANCH  13  15
HETATM   15  O   UNK N   1      29.211  17.245   7.614  0.00  0.00    -0.776 OA
HETATM   16  H   UNK N   1      28.654  16.844   8.251  0.00  0.00     0.167 HD
ENDBRANCH  13  15
ENDBRANCH  12  13
ENDBRANCH   9  12
BRANCH  10  17
HETATM   17  C   UNK N   1      34.402  18.363   7.874  0.00  0.00     0.270 C 
HETATM   18  O   UNK N   1      35.210  18.987   8.547  0.00  0.00    -0.301 OA
ENDBRANCH  10  17
ENDBRANCH   5   6
BRANCH   4  19
HETATM   19  N   UNK N   1      35.440  13.118  11.136  0.00  0.00    -0.338 N 
HETATM   20  C   UNK N   1      36.271  13.609  12.000  0.00  0.00     0.111 C 
HETATM   21  C   UNK N   1      35.862  13.718  13.431  0.00  0.00     0.097 C 
ATOM     22  HN  UNK N   1      34.507  12.882  11.472  1.00  0.00     0.168 HD
BRANCH  20  23
HETATM   23  O   UNK N   1      37.490  14.050  11.628  0.00  0.00    -0.350 OA
HETATM   24  H   UNK N   1      38.398  14.184  11.815  0.00  0.00     0.219 HD
ENDBRANCH  20  23
ENDBRANCH   4  19
ENDBRANCH   1   4
BRANCH   1  25
HETATM   25  O   UNK N   1      37.994  12.246   9.265  0.00  0.00    -0.345 OA
HETATM   26  H   UNK N   1      38.768  12.275   9.792  0.00  0.00     0.219 HD
ENDBRANCH   1  25
BRANCH   2  27
HETATM   27  C   UNK N   1      35.084  10.061   8.901  0.00  0.00     0.176 C 
HETATM   28  C   UNK N   1      35.228   8.832   8.000  0.00  0.00     0.035 C 
HETATM   29  C   UNK N   1      35.937   7.633   8.651  0.00  0.00     0.004 C 
HETATM   30  C   UNK N   1      37.140   7.984   9.539  0.00  0.00     0.020 C 
HETATM   31  C   UNK N   1      36.836   8.767  10.841  0.00  0.00     0.126 C 
HETATM   32  N   UNK N   1      35.413   8.972  11.136  0.00  0.00    -0.346 N 
HETATM   33  C   UNK N   1      34.591   9.609  10.252  0.00  0.00     0.242 C 
HETATM   34  O   UNK N   1      33.406   9.779  10.536  0.00  0.00    -0.271 OA
BRANCH  32  35
HETATM   35  C   UNK N   1      34.883   8.455  12.385  0.00  0.00     0.164 C 
BRANCH  35  36
HETATM   36  C   UNK N   1      35.145   9.478  13.429  0.00  0.00    -0.040 A 
HETATM   37  C   UNK N   1      34.060  10.231  13.866  0.00  0.00     0.009 A 
HETATM   38  C   UNK N   1      34.138  10.939  15.043  0.00  0.00     0.013 A 
HETATM   39  C   UNK N   1      35.325  10.966  15.772  0.00  0.00    -0.026 A 
HETATM   40  C   UNK N   1      36.463  10.296  15.289  0.00  0.00     0.013 A 
HETATM   41  C   UNK N   1      36.360   9.514  14.127  0.00  0.00     0.009 A 
BRANCH  39  42
HETATM   42  C   UNK N   1      35.293  11.583  17.096  0.00  0.00    -0.026 A 
HETATM   43  C   UNK N   1      35.338  10.826  18.269  0.00  0.00     0.012 A 
HETATM   44  C   UNK N   1      35.335  11.474  19.509  0.00  0.00     0.001 A 
HETATM   45  C   UNK N   1      35.229  12.868  19.577  0.00  0.00     0.000 A 
HETATM   46  C   UNK N   1      35.145  13.622  18.405  0.00  0.00     0.001 A 
HETATM   47  C   UNK N   1      35.201  12.983  17.171  0.00  0.00     0.012 A 
ENDBRANCH  39  42
ENDBRANCH  35  36
ENDBRANCH  32  35
ENDBRANCH   2  27
TORSDOF 13
ENDMDL
MODEL 5
REMARK VINA RESULT:      -8.3      3.119     11.541
REMARK  13 active torsions:
REMARK  status: ('A' for Active; 'I' for Inactive)
REMARK    1  A    between atoms: C_24  and  C_18 
REMARK    2  A    between atoms: C_27  and  C_19 
REMARK    3  A    between atoms: C_31  and  C_19 
REMARK    4  A    between atoms: C_23  and  C_20 
REMARK    5  A    between atoms: N_38  and  C_20 
REMARK    6  A    between atoms: C_28  and  C_21 
REMARK    7  A    between atoms: O_40  and  C_22 
REMARK    8  A    between atoms: C_26  and  C_25 
REMARK    9  A    between atoms: C_29  and  N_36 
REMARK   10  A    between atoms: C_32  and  C_30 
REMARK   11  A    between atoms: N_34  and  C_30 
REMARK   12  A    between atoms: O_42  and  C_31 
REMARK   13  A    between atoms: C_32  and  O_43 
ROOT
HETATM    1  C   UNK N   1      36.358  14.109   8.676  0.00  0.00     0.164 C 
HETATM    2  N   UNK N   1      35.519  15.064   8.486  0.00  0.00    -0.356 N 
ATOM      3  HN  UNK N   1      35.701  15.656   7.676  1.00  0.00     0.162 HD
ENDROOT
BRANCH   1   4
HETATM    4  C   UNK N   1      36.302  13.197   9.828  0.00  0.00     0.085 C 
HETATM    5  C   UNK N   1      36.772  13.712  10.986  0.00  0.00     0.045 C 
BRANCH   5   6
HETATM    6  C   UNK N   1      36.935  13.020  12.263  0.00  0.00    -0.033 A 
HETATM    7  C   UNK N   1      37.722  11.880  12.399  0.00  0.00     0.012 A 
HETATM    8  C   UNK N   1      37.708  11.164  13.580  0.00  0.00     0.009 A 
HETATM    9  C   UNK N   1      36.907  11.582  14.647  0.00  0.00    -0.035 A 
HETATM   10  C   UNK N   1      36.192  12.795  14.556  0.00  0.00     0.009 A 
HETATM   11  C   UNK N   1      36.221  13.506  13.358  0.00  0.00     0.026 A 
BRANCH   9  12
HETATM   12  C   UNK N   1      36.754  10.664  15.813  0.00  0.00     0.149 C 
BRANCH  12  13
HETATM   13  C   UNK N   1      35.521   9.827  15.587  0.00  0.00     0.143 C 
HETATM   14  O   UNK N   1      35.502   9.008  14.684  0.00  0.00    -0.650 OA
BRANCH  13  15
HETATM   15  O   UNK N   1      34.399  10.059  16.301  0.00  0.00    -0.776 OA
HETATM   16  H   UNK N   1      34.101  10.586  17.015  0.00  0.00     0.167 HD
ENDBRANCH  13  15
ENDBRANCH  12  13
ENDBRANCH   9  12
BRANCH  10  17
HETATM   17  C   UNK N   1      35.371  13.298  15.672  0.00  0.00     0.270 C 
HETATM   18  O   UNK N   1      34.170  13.071  15.719  0.00  0.00    -0.301 OA
ENDBRANCH  10  17
ENDBRANCH   5   6
BRANCH   4  19
HETATM   19  N   UNK N   1      35.875  11.836   9.651  0.00  0.00    -0.338 N 
HETATM   20  C   UNK N   1      34.713  11.357   9.962  0.00  0.00     0.111 C 
HETATM   21  C   UNK N   1      34.450   9.897   9.796  0.00  0.00     0.097 C 
ATOM     22  HN  UNK N   1      36.548  11.188   9.241  1.00  0.00     0.168 HD
BRANCH  20  23
HETATM   23  O   UNK N   1      33.722  12.157  10.409  0.00  0.00    -0.350 OA
HETATM   24  H   UNK N   1      33.214  12.941  10.335  0.00  0.00     0.219 HD
ENDBRANCH  20  23
ENDBRANCH   4  19
ENDBRANCH   1   4
BRANCH   1  25
HETATM   25  O   UNK N   1      37.417  14.018   7.851  0.00  0.00    -0.345 OA
HETATM   26  H   UNK N   1      37.656  13.627   7.033  0.00  0.00     0.219 HD
ENDBRANCH   1  25
BRANCH   2  27
HETATM   27  C   UNK N   1      34.348  15.413   9.268  0.00  0.00     0.176 C 
HETATM   28  C   UNK N   1      34.343  16.939   9.389  0.00  0.00     0.035 C 
HETATM   29  C   UNK N   1      33.916  17.687   8.116  0.00  0.00     0.004 C 
HETATM   30  C   UNK N   1      34.444  17.100   6.800  0.00  0.00     0.020 C 
HETATM   31  C   UNK N   1      33.909  15.702   6.398  0.00  0.00     0.126 C 
HETATM   32  N   UNK N   1      32.858  15.157   7.266  0.00  0.00    -0.346 N 
HETATM   33  C   UNK N   1      33.065  14.982   8.604  0.00  0.00     0.242 C 
HETATM   34  O   UNK N   1      32.169  14.508   9.302  0.00  0.00    -0.271 OA
BRANCH  32  35
HETATM   35  C   UNK N   1      31.573  14.829   6.676  0.00  0.00     0.164 C 
BRANCH  35  36
HETATM   36  C   UNK N   1      30.877  16.112   6.403  0.00  0.00    -0.040 A 
HETATM   37  C   UNK N   1      30.689  16.461   5.069  0.00  0.00     0.009 A 
HETATM   38  C   UNK N   1      29.774  17.430   4.730  0.00  0.00     0.013 A 
HETATM   39  C   UNK N   1      29.078  18.120   5.719  0.00  0.00    -0.026 A 
HETATM   40  C   UNK N   1      29.334  17.853   7.076  0.00  0.00     0.013 A 
HETATM   41  C   UNK N   1      30.213  16.813   7.418  0.00  0.00     0.009 A 
BRANCH  39  42
HETATM   42  C   UNK N   1      27.997  19.006   5.295  0.00  0.00    -0.026 A 
HETATM   43  C   UNK N   1      27.456  18.951   4.007  0.00  0.00     0.012 A 
HETATM   44  C   UNK N   1      26.400  19.804   3.666  0.00  0.00     0.001 A 
HETATM   45  C   UNK N   1      25.927  20.746   4.587  0.00  0.00     0.000 A 
HETATM   46  C   UNK N   1      26.494  20.826   5.860  0.00  0.00     0.001 A 
HETATM   47  C   UNK N   1      27.507  19.944   6.218  0.00  0.00     0.012 A 
ENDBRANCH  39  42
ENDBRANCH  35  36
ENDBRANCH  32  35
ENDBRANCH   2  27
TORSDOF 13
ENDMDL
MODEL 6
REMARK VINA RESULT:      -8.2      3.271     11.689
REMARK  13 active torsions:
REMARK  status: ('A' for Active; 'I' for Inactive)
REMARK    1  A    between atoms: C_24  and  C_18 
REMARK    2  A    between atoms: C_27  and  C_19 
REMARK    3  A    between atoms: C_31  and  C_19 
REMARK    4  A    between atoms: C_23  and  C_20 
REMARK    5  A    between atoms: N_38  and  C_20 
REMARK    6  A    between atoms: C_28  and  C_21 
REMARK    7  A    between atoms: O_40  and  C_22 
REMARK    8  A    between atoms: C_26  and  C_25 
REMARK    9  A    between atoms: C_29  and  N_36 
REMARK   10  A    between atoms: C_32  and  C_30 
REMARK   11  A    between atoms: N_34  and  C_30 
REMARK   12  A    between atoms: O_42  and  C_31 
REMARK   13  A    between atoms: C_32  and  O_43 
ROOT
HETATM    1  C   UNK N   1      35.484  16.321  10.434  0.00  0.00     0.164 C 
HETATM    2  N   UNK N   1      34.539  16.258   9.565  0.00  0.00    -0.356 N 
ATOM      3  HN  UNK N   1      34.217  17.153   9.197  1.00  0.00     0.162 HD
ENDROOT
BRANCH   1   4
HETATM    4  C   UNK N   1      36.029  15.145  11.128  0.00  0.00     0.085 C 
HETATM    5  C   UNK N   1      35.276  14.689  12.154  0.00  0.00     0.045 C 
BRANCH   5   6
HETATM    6  C   UNK N   1      35.603  13.609  13.083  0.00  0.00    -0.033 A 
HETATM    7  C   UNK N   1      36.136  13.847  14.347  0.00  0.00     0.012 A 
HETATM    8  C   UNK N   1      36.588  12.795  15.120  0.00  0.00     0.009 A 
HETATM    9  C   UNK N   1      36.510  11.485  14.638  0.00  0.00    -0.035 A 
HETATM   10  C   UNK N   1      35.874  11.225  13.406  0.00  0.00     0.009 A 
HETATM   11  C   UNK N   1      35.420  12.298  12.642  0.00  0.00     0.026 A 
BRANCH   9  12
HETATM   12  C   UNK N   1      37.208  10.412  15.405  0.00  0.00     0.149 C 
BRANCH  12  13
HETATM   13  C   UNK N   1      36.293   9.967  16.518  0.00  0.00     0.143 C 
HETATM   14  O   UNK N   1      36.564  10.245  17.673  0.00  0.00    -0.650 OA
BRANCH  13  15
HETATM   15  O   UNK N   1      35.240   9.163  16.255  0.00  0.00    -0.776 OA
HETATM   16  H   UNK N   1      35.035   8.388  15.772  0.00  0.00     0.167 HD
ENDBRANCH  13  15
ENDBRANCH  12  13
ENDBRANCH   9  12
BRANCH  10  17
HETATM   17  C   UNK N   1      35.728   9.855  12.880  0.00  0.00     0.270 C 
HETATM   18  O   UNK N   1      34.819   9.131  13.260  0.00  0.00    -0.301 OA
ENDBRANCH  10  17
ENDBRANCH   5   6
BRANCH   4  19
HETATM   19  N   UNK N   1      37.323  14.632  10.771  0.00  0.00    -0.338 N 
HETATM   20  C   UNK N   1      37.553  13.636   9.975  0.00  0.00     0.111 C 
HETATM   21  C   UNK N   1      38.955  13.167   9.771  0.00  0.00     0.097 C 
ATOM     22  HN  UNK N   1      38.135  15.095  11.180  1.00  0.00     0.168 HD
BRANCH  20  23
HETATM   23  O   UNK N   1      36.552  13.030   9.304  0.00  0.00    -0.350 OA
HETATM   24  H   UNK N   1      36.248  12.342   8.745  0.00  0.00     0.219 HD
ENDBRANCH  20  23
ENDBRANCH   4  19
ENDBRANCH   1   4
BRANCH   1  25
HETATM   25  O   UNK N   1      35.908  17.537  10.827  0.00  0.00    -0.345 OA
HETATM   26  H   UNK N   1      36.210  17.975  11.599  0.00  0.00     0.219 HD
ENDBRANCH   1  25
BRANCH   2  27
HETATM   27  C   UNK N   1      33.869  15.084   9.037  0.00  0.00     0.176 C 
HETATM   28  C   UNK N   1      32.367  15.332   9.195  0.00  0.00     0.035 C 
HETATM   29  C   UNK N   1      31.767  16.327   8.189  0.00  0.00     0.004 C 
HETATM   30  C   UNK N   1      32.639  17.551   7.873  0.00  0.00     0.020 C 
HETATM   31  C   UNK N   1      33.966  17.282   7.120  0.00  0.00     0.126 C 
HETATM   32  N   UNK N   1      34.173  15.896   6.682  0.00  0.00    -0.346 N 
HETATM   33  C   UNK N   1      34.166  14.863   7.576  0.00  0.00     0.242 C 
HETATM   34  O   UNK N   1      34.358  13.714   7.179  0.00  0.00    -0.271 OA
BRANCH  32  35
HETATM   35  C   UNK N   1      34.357  15.637   5.266  0.00  0.00     0.164 C 
BRANCH  35  36
HETATM   36  C   UNK N   1      33.060  15.911   4.598  0.00  0.00    -0.040 A 
HETATM   37  C   UNK N   1      32.048  14.971   4.767  0.00  0.00     0.009 A 
HETATM   38  C   UNK N   1      30.743  15.302   4.484  0.00  0.00     0.013 A 
HETATM   39  C   UNK N   1      30.430  16.555   3.961  0.00  0.00    -0.026 A 
HETATM   40  C   UNK N   1      31.454  17.478   3.686  0.00  0.00     0.013 A 
HETATM   41  C   UNK N   1      32.776  17.166   4.044  0.00  0.00     0.009 A 
BRANCH  39  42
HETATM   42  C   UNK N   1      29.017  16.908   3.849  0.00  0.00    -0.026 A 
HETATM   43  C   UNK N   1      28.506  18.095   4.380  0.00  0.00     0.012 A 
HETATM   44  C   UNK N   1      27.149  18.396   4.217  0.00  0.00     0.001 A 
HETATM   45  C   UNK N   1      26.297  17.489   3.576  0.00  0.00     0.000 A 
HETATM   46  C   UNK N   1      26.801  16.286   3.079  0.00  0.00     0.001 A 
HETATM   47  C   UNK N   1      28.159  16.010   3.195  0.00  0.00     0.012 A 
ENDBRANCH  39  42
ENDBRANCH  35  36
ENDBRANCH  32  35
ENDBRANCH   2  27
TORSDOF 13
ENDMDL
MODEL 7
REMARK VINA RESULT:      -8.1      3.006      5.401
REMARK  13 active torsions:
REMARK  status: ('A' for Active; 'I' for Inactive)
REMARK    1  A    between atoms: C_24  and  C_18 
REMARK    2  A    between atoms: C_27  and  C_19 
REMARK    3  A    between atoms: C_31  and  C_19 
REMARK    4  A    between atoms: C_23  and  C_20 
REMARK    5  A    between atoms: N_38  and  C_20 
REMARK    6  A    between atoms: C_28  and  C_21 
REMARK    7  A    between atoms: O_40  and  C_22 
REMARK    8  A    between atoms: C_26  and  C_25 
REMARK    9  A    between atoms: C_29  and  N_36 
REMARK   10  A    between atoms: C_32  and  C_30 
REMARK   11  A    between atoms: N_34  and  C_30 
REMARK   12  A    between atoms: O_42  and  C_31 
REMARK   13  A    between atoms: C_32  and  O_43 
ROOT
HETATM    1  C   UNK N   1      35.667  14.567   6.774  0.00  0.00     0.164 C 
HETATM    2  N   UNK N   1      35.874  13.713   7.712  0.00  0.00    -0.356 N 
ATOM      3  HN  UNK N   1      36.844  13.429   7.844  1.00  0.00     0.162 HD
ENDROOT
BRANCH   1   4
HETATM    4  C   UNK N   1      34.331  15.041   6.388  0.00  0.00     0.085 C 
HETATM    5  C   UNK N   1      33.908  14.626   5.172  0.00  0.00     0.045 C 
BRANCH   5   6
HETATM    6  C   UNK N   1      32.678  15.010   4.482  0.00  0.00    -0.033 A 
HETATM    7  C   UNK N   1      32.599  16.139   3.671  0.00  0.00     0.012 A 
HETATM    8  C   UNK N   1      31.377  16.556   3.180  0.00  0.00     0.009 A 
HETATM    9  C   UNK N   1      30.214  15.845   3.491  0.00  0.00    -0.035 A 
HETATM   10  C   UNK N   1      30.300  14.641   4.220  0.00  0.00     0.009 A 
HETATM   11  C   UNK N   1      31.542  14.233   4.705  0.00  0.00     0.026 A 
BRANCH   9  12
HETATM   12  C   UNK N   1      28.901  16.453   3.127  0.00  0.00     0.149 C 
BRANCH  12  13
HETATM   13  C   UNK N   1      28.592  17.530   4.135  0.00  0.00     0.143 C 
HETATM   14  O   UNK N   1      28.629  17.274   5.326  0.00  0.00    -0.650 OA
BRANCH  13  15
HETATM   15  O   UNK N   1      28.162  18.743   3.726  0.00  0.00    -0.776 OA
HETATM   16  H   UNK N   1      28.151  19.634   4.015  0.00  0.00     0.167 HD
ENDBRANCH  13  15
ENDBRANCH  12  13
ENDBRANCH   9  12
BRANCH  10  17
HETATM   17  C   UNK N   1      29.106  13.834   4.533  0.00  0.00     0.270 C 
HETATM   18  O   UNK N   1      29.212  12.667   4.880  0.00  0.00    -0.301 OA
ENDBRANCH  10  17
ENDBRANCH   5   6
BRANCH   4  19
HETATM   19  N   UNK N   1      33.620  15.964   7.230  0.00  0.00    -0.338 N 
HETATM   20  C   UNK N   1      33.749  17.253   7.224  0.00  0.00     0.111 C 
HETATM   21  C   UNK N   1      33.001  18.071   8.224  0.00  0.00     0.097 C 
ATOM     22  HN  UNK N   1      32.953  15.569   7.893  1.00  0.00     0.168 HD
BRANCH  20  23
HETATM   23  O   UNK N   1      34.526  17.875   6.314  0.00  0.00    -0.350 OA
HETATM   24  H   UNK N   1      35.362  18.005   5.911  0.00  0.00     0.219 HD
ENDBRANCH  20  23
ENDBRANCH   4  19
ENDBRANCH   1   4
BRANCH   1  25
HETATM   25  O   UNK N   1      36.715  14.950   6.020  0.00  0.00    -0.345 OA
HETATM   26  H   UNK N   1      37.348  14.582   5.436  0.00  0.00     0.219 HD
ENDBRANCH   1  25
BRANCH   2  27
HETATM   27  C   UNK N   1      34.912  13.099   8.608  0.00  0.00     0.176 C 
HETATM   28  C   UNK N   1      35.510  11.755   9.034  0.00  0.00     0.035 C 
HETATM   29  C   UNK N   1      36.649  11.851  10.061  0.00  0.00     0.004 C 
HETATM   30  C   UNK N   1      37.635  13.008   9.844  0.00  0.00     0.020 C 
HETATM   31  C   UNK N   1      37.076  14.441  10.032  0.00  0.00     0.126 C 
HETATM   32  N   UNK N   1      35.695  14.520  10.522  0.00  0.00    -0.346 N 
HETATM   33  C   UNK N   1      34.668  13.927   9.844  0.00  0.00     0.242 C 
HETATM   34  O   UNK N   1      33.519  14.024  10.273  0.00  0.00    -0.271 OA
BRANCH  32  35
HETATM   35  C   UNK N   1      35.440  15.222  11.767  0.00  0.00     0.164 C 
BRANCH  35  36
HETATM   36  C   UNK N   1      35.703  14.264  12.870  0.00  0.00    -0.040 A 
HETATM   37  C   UNK N   1      36.493  14.713  13.925  0.00  0.00     0.009 A 
HETATM   38  C   UNK N   1      36.501  14.034  15.121  0.00  0.00     0.013 A 
HETATM   39  C   UNK N   1      35.774  12.854  15.267  0.00  0.00    -0.026 A 
HETATM   40  C   UNK N   1      35.055  12.331  14.178  0.00  0.00     0.013 A 
HETATM   41  C   UNK N   1      34.989  13.064  12.982  0.00  0.00     0.009 A 
BRANCH  39  42
HETATM   42  C   UNK N   1      35.679  12.279  16.606  0.00  0.00    -0.026 A 
HETATM   43  C   UNK N   1      35.903  10.920  16.847  0.00  0.00     0.012 A 
HETATM   44  C   UNK N   1      35.828  10.430  18.156  0.00  0.00     0.001 A 
HETATM   45  C   UNK N   1      35.476  11.282  19.209  0.00  0.00     0.000 A 
HETATM   46  C   UNK N   1      35.216  12.630  18.963  0.00  0.00     0.001 A 
HETATM   47  C   UNK N   1      35.341  13.129  17.671  0.00  0.00     0.012 A 
ENDBRANCH  39  42
ENDBRANCH  35  36
ENDBRANCH  32  35
ENDBRANCH   2  27
TORSDOF 13
ENDMDL
MODEL 8
REMARK VINA RESULT:      -8.1      6.758     12.277
REMARK  13 active torsions:
REMARK  status: ('A' for Active; 'I' for Inactive)
REMARK    1  A    between atoms: C_24  and  C_18 
REMARK    2  A    between atoms: C_27  and  C_19 
REMARK    3  A    between atoms: C_31  and  C_19 
REMARK    4  A    between atoms: C_23  and  C_20 
REMARK    5  A    between atoms: N_38  and  C_20 
REMARK    6  A    between atoms: C_28  and  C_21 
REMARK    7  A    between atoms: O_40  and  C_22 
REMARK    8  A    between atoms: C_26  and  C_25 
REMARK    9  A    between atoms: C_29  and  N_36 
REMARK   10  A    between atoms: C_32  and  C_30 
REMARK   11  A    between atoms: N_34  and  C_30 
REMARK   12  A    between atoms: O_42  and  C_31 
REMARK   13  A    between atoms: C_32  and  O_43 
ROOT
HETATM    1  C   UNK N   1      27.861  18.908   4.794  0.00  0.00     0.164 C 
HETATM    2  N   UNK N   1      28.608  18.020   5.347  0.00  0.00    -0.356 N 
ATOM      3  HN  UNK N   1      29.576  17.997   5.028  1.00  0.00     0.162 HD
ENDROOT
BRANCH   1   4
HETATM    4  C   UNK N   1      26.424  19.046   5.071  0.00  0.00     0.085 C 
HETATM    5  C   UNK N   1      25.609  18.509   4.136  0.00  0.00     0.045 C 
BRANCH   5   6
HETATM    6  C   UNK N   1      24.149  18.577   4.087  0.00  0.00    -0.033 A 
HETATM    7  C   UNK N   1      23.338  17.619   4.689  0.00  0.00     0.012 A 
HETATM    8  C   UNK N   1      21.974  17.629   4.471  0.00  0.00     0.009 A 
HETATM    9  C   UNK N   1      21.400  18.603   3.649  0.00  0.00    -0.035 A 
HETATM   10  C   UNK N   1      22.200  19.639   3.123  0.00  0.00     0.009 A 
HETATM   11  C   UNK N   1      23.574  19.616   3.357  0.00  0.00     0.026 A 
BRANCH   9  12
HETATM   12  C   UNK N   1      19.967  18.443   3.266  0.00  0.00     0.149 C 
BRANCH  12  13
HETATM   13  C   UNK N   1      19.883  17.365   2.215  0.00  0.00     0.143 C 
HETATM   14  O   UNK N   1      20.153  17.627   1.056  0.00  0.00    -0.650 OA
BRANCH  13  15
HETATM   15  O   UNK N   1      19.401  16.144   2.529  0.00  0.00    -0.776 OA
HETATM   16  H   UNK N   1      18.709  15.562   2.283  0.00  0.00     0.167 HD
ENDBRANCH  13  15
ENDBRANCH  12  13
ENDBRANCH   9  12
BRANCH  10  17
HETATM   17  C   UNK N   1      21.631  20.713   2.288  0.00  0.00     0.270 C 
HETATM   18  O   UNK N   1      21.699  20.661   1.068  0.00  0.00    -0.301 OA
ENDBRANCH  10  17
ENDBRANCH   5   6
BRANCH   4  19
HETATM   19  N   UNK N   1      25.978  19.803   6.209  0.00  0.00    -0.338 N 
HETATM   20  C   UNK N   1      26.367  20.996   6.529  0.00  0.00     0.111 C 
HETATM   21  C   UNK N   1      25.873  21.616   7.794  0.00  0.00     0.097 C 
ATOM     22  HN  UNK N   1      25.291  19.361   6.820  1.00  0.00     0.168 HD
BRANCH  20  23
HETATM   23  O   UNK N   1      27.190  21.703   5.727  0.00  0.00    -0.350 OA
HETATM   24  H   UNK N   1      27.995  22.163   5.591  0.00  0.00     0.219 HD
ENDBRANCH  20  23
ENDBRANCH   4  19
ENDBRANCH   1   4
BRANCH   1  25
HETATM   25  O   UNK N   1      28.391  19.666   3.816  0.00  0.00    -0.345 OA
HETATM   26  H   UNK N   1      28.210  20.458   3.348  0.00  0.00     0.219 HD
ENDBRANCH   1  25
BRANCH   2  27
HETATM   27  C   UNK N   1      28.258  17.045   6.364  0.00  0.00     0.176 C 
HETATM   28  C   UNK N   1      28.621  15.672   5.793  0.00  0.00     0.035 C 
HETATM   29  C   UNK N   1      30.125  15.355   5.776  0.00  0.00     0.004 C 
HETATM   30  C   UNK N   1      31.040  16.527   5.390  0.00  0.00     0.020 C 
HETATM   31  C   UNK N   1      31.097  17.718   6.380  0.00  0.00     0.126 C 
HETATM   32  N   UNK N   1      30.365  17.528   7.638  0.00  0.00    -0.346 N 
HETATM   33  C   UNK N   1      29.028  17.250   7.643  0.00  0.00     0.242 C 
HETATM   34  O   UNK N   1      28.440  17.111   8.715  0.00  0.00    -0.271 OA
BRANCH  32  35
HETATM   35  C   UNK N   1      31.099  17.615   8.887  0.00  0.00     0.164 C 
BRANCH  35  36
HETATM   36  C   UNK N   1      32.266  16.704   8.773  0.00  0.00    -0.040 A 
HETATM   37  C   UNK N   1      33.526  17.291   8.705  0.00  0.00     0.009 A 
HETATM   38  C   UNK N   1      34.652  16.539   8.943  0.00  0.00     0.013 A 
HETATM   39  C   UNK N   1      34.550  15.171   9.186  0.00  0.00    -0.026 A 
HETATM   40  C   UNK N   1      33.292  14.543   9.153  0.00  0.00     0.013 A 
HETATM   41  C   UNK N   1      32.138  15.324   8.983  0.00  0.00     0.009 A 
BRANCH  39  42
HETATM   42  C   UNK N   1      35.758  14.465   9.605  0.00  0.00    -0.026 A 
HETATM   43  C   UNK N   1      36.773  14.133   8.705  0.00  0.00     0.012 A 
HETATM   44  C   UNK N   1      37.922  13.483   9.169  0.00  0.00     0.001 A 
HETATM   45  C   UNK N   1      38.030  13.117  10.516  0.00  0.00     0.000 A 
HETATM   46  C   UNK N   1      36.999  13.416  11.408  0.00  0.00     0.001 A 
HETATM   47  C   UNK N   1      35.880  14.107  10.958  0.00  0.00     0.012 A 
ENDBRANCH  39  42
ENDBRANCH  35  36
ENDBRANCH  32  35
ENDBRANCH   2  27
TORSDOF 13
ENDMDL
MODEL 9
REMARK VINA RESULT:      -8.1      2.237      3.343
REMARK  13 active torsions:
REMARK  status: ('A' for Active; 'I' for Inactive)
REMARK    1  A    between atoms: C_24  and  C_18 
REMARK    2  A    between atoms: C_27  and  C_19 
REMARK    3  A    between atoms: C_31  and  C_19 
REMARK    4  A    between atoms: C_23  and  C_20 
REMARK    5  A    between atoms: N_38  and  C_20 
REMARK    6  A    between atoms: C_28  and  C_21 
REMARK    7  A    between atoms: O_40  and  C_22 
REMARK    8  A    between atoms: C_26  and  C_25 
REMARK    9  A    between atoms: C_29  and  N_36 
REMARK   10  A    between atoms: C_32  and  C_30 
REMARK   11  A    between atoms: N_34  and  C_30 
REMARK   12  A    between atoms: O_42  and  C_31 
REMARK   13  A    between atoms: C_32  and  O_43 
ROOT
HETATM    1  C   UNK N   1      37.510  12.868  10.307  0.00  0.00     0.164 C 
HETATM    2  N   UNK N   1      37.552  11.590  10.181  0.00  0.00    -0.356 N 
ATOM      3  HN  UNK N   1      38.269  11.116  10.730  1.00  0.00     0.162 HD
ENDROOT
BRANCH   1   4
HETATM    4  C   UNK N   1      36.595  13.730   9.545  0.00  0.00     0.085 C 
HETATM    5  C   UNK N   1      35.636  14.335  10.281  0.00  0.00     0.045 C 
BRANCH   5   6
HETATM    6  C   UNK N   1      34.535  15.163   9.794  0.00  0.00    -0.033 A 
HETATM    7  C   UNK N   1      33.222  14.702   9.739  0.00  0.00     0.012 A 
HETATM    8  C   UNK N   1      32.247  15.455   9.114  0.00  0.00     0.009 A 
HETATM    9  C   UNK N   1      32.572  16.686   8.536  0.00  0.00    -0.035 A 
HETATM   10  C   UNK N   1      33.874  17.209   8.681  0.00  0.00     0.009 A 
HETATM   11  C   UNK N   1      34.844  16.437   9.319  0.00  0.00     0.026 A 
BRANCH   9  12
HETATM   12  C   UNK N   1      31.546  17.355   7.685  0.00  0.00     0.149 C 
BRANCH  12  13
HETATM   13  C   UNK N   1      30.469  17.894   8.592  0.00  0.00     0.143 C 
HETATM   14  O   UNK N   1      30.642  18.949   9.177  0.00  0.00    -0.650 OA
BRANCH  13  15
HETATM   15  O   UNK N   1      29.366  17.160   8.852  0.00  0.00    -0.776 OA
HETATM   16  H   UNK N   1      29.069  16.498   9.445  0.00  0.00     0.167 HD
ENDBRANCH  13  15
ENDBRANCH  12  13
ENDBRANCH   9  12
BRANCH  10  17
HETATM   17  C   UNK N   1      34.250  18.523   8.127  0.00  0.00     0.270 C 
HETATM   18  O   UNK N   1      35.261  19.096   8.506  0.00  0.00    -0.301 OA
ENDBRANCH  10  17
ENDBRANCH   5   6
BRANCH   4  19
HETATM   19  N   UNK N   1      36.693  13.797   8.112  0.00  0.00    -0.338 N 
HETATM   20  C   UNK N   1      37.789  13.773   7.423  0.00  0.00     0.111 C 
HETATM   21  C   UNK N   1      37.729  13.939   5.941  0.00  0.00     0.097 C 
ATOM     22  HN  UNK N   1      35.819  13.869   7.591  1.00  0.00     0.168 HD
BRANCH  20  23
HETATM   23  O   UNK N   1      38.985  13.573   8.014  0.00  0.00    -0.350 OA
HETATM   24  H   UNK N   1      39.913  13.699   8.035  0.00  0.00     0.219 HD
ENDBRANCH  20  23
ENDBRANCH   4  19
ENDBRANCH   1   4
BRANCH   1  25
HETATM   25  O   UNK N   1      38.439  13.462  11.080  0.00  0.00    -0.345 OA
HETATM   26  H   UNK N   1      39.300  13.827  11.011  0.00  0.00     0.219 HD
ENDBRANCH   1  25
BRANCH   2  27
HETATM   27  C   UNK N   1      36.716  10.731   9.363  0.00  0.00     0.176 C 
HETATM   28  C   UNK N   1      37.663   9.807   8.593  0.00  0.00     0.035 C 
HETATM   29  C   UNK N   1      38.286   8.678   9.429  0.00  0.00     0.004 C 
HETATM   30  C   UNK N   1      38.709   9.069  10.852  0.00  0.00     0.020 C 
HETATM   31  C   UNK N   1      37.571   9.442  11.836  0.00  0.00     0.126 C 
HETATM   32  N   UNK N   1      36.208   9.253  11.325  0.00  0.00    -0.346 N 
HETATM   33  C   UNK N   1      35.785   9.881  10.189  0.00  0.00     0.242 C 
HETATM   34  O   UNK N   1      34.632   9.714   9.795  0.00  0.00    -0.271 OA
BRANCH  32  35
HETATM   35  C   UNK N   1      35.318   8.357  12.040  0.00  0.00     0.164 C 
BRANCH  35  36
HETATM   36  C   UNK N   1      34.945   9.031  13.309  0.00  0.00    -0.040 A 
HETATM   37  C   UNK N   1      35.588   8.605  14.468  0.00  0.00     0.009 A 
HETATM   38  C   UNK N   1      35.562   9.385  15.600  0.00  0.00     0.013 A 
HETATM   39  C   UNK N   1      34.837  10.574  15.621  0.00  0.00    -0.026 A 
HETATM   40  C   UNK N   1      34.096  10.966  14.492  0.00  0.00     0.013 A 
HETATM   41  C   UNK N   1      34.182  10.206  13.315  0.00  0.00     0.009 A 
BRANCH  39  42
HETATM   42  C   UNK N   1      34.994  11.442  16.785  0.00  0.00    -0.026 A 
HETATM   43  C   UNK N   1      35.162  10.930  18.075  0.00  0.00     0.012 A 
HETATM   44  C   UNK N   1      35.337  11.810  19.149  0.00  0.00     0.001 A 
HETATM   45  C   UNK N   1      35.288  13.193  18.944  0.00  0.00     0.000 A 
HETATM   46  C   UNK N   1      35.082  13.704  17.661  0.00  0.00     0.001 A 
HETATM   47  C   UNK N   1      34.960  12.831  16.586  0.00  0.00     0.012 A 
ENDBRANCH  39  42
ENDBRANCH  35  36
ENDBRANCH  32  35
ENDBRANCH   2  27
TORSDOF 13
ENDMDL
