REMARK  1 active torsions:
REMARK  status: ('A' for Active; 'I' for Inactive)
REMARK    1  A    between atoms: N_7  and  C_5 
ROOT
HETATM    1  C   UNK N   1       5.895  -0.977  -0.000  0.00  0.00     0.158 C 
HETATM    2  C   UNK N   1       0.286   0.565   0.000  0.00  0.00     0.182 A 
HETATM    3  C   UNK N   1       4.659   1.122  -0.000  0.00  0.00     0.185 A 
HETATM    4  C   UNK N   1       2.278  -0.185   0.000  0.00  0.00     0.122 A 
HETATM    5  C   UNK N   1       3.438  -0.930   0.000  0.00  0.00     0.132 A 
HETATM    6  C   UNK N   1       2.326   1.156  -0.000  0.00  0.00     0.138 A 
HETATM    7  N   UNK N   1       1.001  -0.592   0.000  0.00  0.00    -0.346 N 
ATOM      8  HN  UNK N   1       0.647  -1.549   0.000  1.00  0.00     0.167 HD
HETATM    9  N   UNK N   1       1.090   1.665   0.000  0.00  0.00    -0.337 N 
ATOM     10  HN  UNK N   1       0.813   2.646  -0.000  1.00  0.00     0.168 HD
HETATM   11  N   UNK N   1       3.495   1.841  -0.000  0.00  0.00    -0.336 N 
HETATM   12  N   UNK N   1       4.635  -0.254  -0.000  0.00  0.00    -0.332 N 
HETATM   13  H   UNK N   1       3.506   2.826  -0.000  0.00  0.00     0.168 HD
ENDROOT
BRANCH   5  14
HETATM   14  N   UNK N   1       3.386  -2.341   0.000  0.00  0.00    -0.383 N 
HETATM   15  H   UNK N   1       2.516  -2.802   0.000  0.00  0.00     0.157 HD
HETATM   16  H   UNK N   1       4.220  -2.865   0.000  0.00  0.00     0.157 HD
ENDBRANCH   5  14
TORSDOF 1
