MODEL 1
REMARK VINA RESULT:      -3.5      0.000      0.000
REMARK  2 active torsions:
REMARK  status: ('A' for Active; 'I' for Inactive)
REMARK    1  A    between atoms: Se_2  and  C_3 
REMARK    2  A    between atoms: C_3  and  C_4 
ROOT
HETATM    1  C   UNK N   1      33.848  17.287   8.924  0.00  0.00     0.123 C 
ENDROOT
BRANCH   1   2
HETATM    2 Se   UNK N   1      34.886  15.674   9.269  0.00  0.00     0.000 Se
HETATM    3  C   UNK N   1      35.499  16.469  10.928  0.00  0.00     0.000 C 
ENDBRANCH   1   2
BRANCH   1   4
HETATM    4  C   UNK N   1      34.544  18.249   8.016  0.00  0.00     0.173 C 
HETATM    5  O   UNK N   1      35.292  19.233   8.541  0.00  0.00    -0.648 OA
HETATM    6  O   UNK N   1      34.440  18.152   6.798  0.00  0.00    -0.648 OA
ENDBRANCH   1   4
TORSDOF 2
ENDMDL
MODEL 2
REMARK VINA RESULT:      -3.3      1.500      2.615
REMARK  2 active torsions:
REMARK  status: ('A' for Active; 'I' for Inactive)
REMARK    1  A    between atoms: Se_2  and  C_3 
REMARK    2  A    between atoms: C_3  and  C_4 
ROOT
HETATM    1  C   UNK N   1      34.039  17.194   9.022  0.00  0.00     0.123 C 
ENDROOT
BRANCH   1   2
HETATM    2 Se   UNK N   1      32.459  16.260   8.364  0.00  0.00     0.000 Se
HETATM    3  C   UNK N   1      31.452  17.905   8.558  0.00  0.00     0.000 C 
ENDBRANCH   1   2
BRANCH   1   4
HETATM    4  C   UNK N   1      34.568  18.203   8.055  0.00  0.00     0.173 C 
HETATM    5  O   UNK N   1      34.476  17.968   6.736  0.00  0.00    -0.648 OA
HETATM    6  O   UNK N   1      35.085  19.241   8.451  0.00  0.00    -0.648 OA
ENDBRANCH   1   4
TORSDOF 2
ENDMDL
MODEL 3
REMARK VINA RESULT:      -3.3      1.745      2.268
REMARK  2 active torsions:
REMARK  status: ('A' for Active; 'I' for Inactive)
REMARK    1  A    between atoms: Se_2  and  C_3 
REMARK    2  A    between atoms: C_3  and  C_4 
ROOT
HETATM    1  C   UNK N   1      33.827  17.278   8.910  0.00  0.00     0.123 C 
ENDROOT
BRANCH   1   2
HETATM    2 Se   UNK N   1      31.996  16.913   8.353  0.00  0.00     0.000 Se
HETATM    3  C   UNK N   1      32.554  15.135   7.818  0.00  0.00     0.000 C 
ENDBRANCH   1   2
BRANCH   1   4
HETATM    4  C   UNK N   1      34.537  18.230   8.003  0.00  0.00     0.173 C 
HETATM    5  O   UNK N   1      35.287  19.212   8.530  0.00  0.00    -0.648 OA
HETATM    6  O   UNK N   1      34.444  18.126   6.785  0.00  0.00    -0.648 OA
ENDBRANCH   1   4
TORSDOF 2
ENDMDL
MODEL 4
REMARK VINA RESULT:      -3.1     15.164     15.743
REMARK  2 active torsions:
REMARK  status: ('A' for Active; 'I' for Inactive)
REMARK    1  A    between atoms: Se_2  and  C_3 
REMARK    2  A    between atoms: C_3  and  C_4 
ROOT
HETATM    1  C   UNK N   1      20.709  19.583   1.759  0.00  0.00     0.123 C 
ENDROOT
BRANCH   1   2
HETATM    2 Se   UNK N   1      19.980  17.906   2.434  0.00  0.00     0.000 Se
HETATM    3  C   UNK N   1      20.085  17.182   0.638  0.00  0.00     0.000 C 
ENDBRANCH   1   2
BRANCH   1   4
HETATM    4  C   UNK N   1      21.041  20.557   2.843  0.00  0.00     0.173 C 
HETATM    5  O   UNK N   1      22.143  21.316   2.736  0.00  0.00    -0.648 OA
HETATM    6  O   UNK N   1      20.320  20.671   3.828  0.00  0.00    -0.648 OA
ENDBRANCH   1   4
TORSDOF 2
ENDMDL
MODEL 5
REMARK VINA RESULT:      -2.9     15.132     15.337
REMARK  2 active torsions:
REMARK  status: ('A' for Active; 'I' for Inactive)
REMARK    1  A    between atoms: Se_2  and  C_3 
REMARK    2  A    between atoms: C_3  and  C_4 
ROOT
HETATM    1  C   UNK N   1      20.521  19.195   2.086  0.00  0.00     0.123 C 
ENDROOT
BRANCH   1   2
HETATM    2 Se   UNK N   1      21.323  18.343   3.644  0.00  0.00     0.000 Se
HETATM    3  C   UNK N   1      19.809  17.134   3.716  0.00  0.00     0.000 C 
ENDBRANCH   1   2
BRANCH   1   4
HETATM    4  C   UNK N   1      21.244  20.430   1.656  0.00  0.00     0.173 C 
HETATM    5  O   UNK N   1      21.796  21.230   2.582  0.00  0.00    -0.648 OA
HETATM    6  O   UNK N   1      21.339  20.721   0.469  0.00  0.00    -0.648 OA
ENDBRANCH   1   4
TORSDOF 2
ENDMDL
MODEL 6
REMARK VINA RESULT:      -2.8     10.843     11.483
REMARK  2 active torsions:
REMARK  status: ('A' for Active; 'I' for Inactive)
REMARK    1  A    between atoms: Se_2  and  C_3 
REMARK    2  A    between atoms: C_3  and  C_4 
ROOT
HETATM    1  C   UNK N   1      24.698  19.671   3.974  0.00  0.00     0.123 C 
ENDROOT
BRANCH   1   2
HETATM    2 Se   UNK N   1      26.111  20.400   5.101  0.00  0.00     0.000 Se
HETATM    3  C   UNK N   1      27.398  19.351   4.099  0.00  0.00     0.000 C 
ENDBRANCH   1   2
BRANCH   1   4
HETATM    4  C   UNK N   1      24.271  20.606   2.889  0.00  0.00     0.173 C 
HETATM    5  O   UNK N   1      25.050  20.765   1.808  0.00  0.00    -0.648 OA
HETATM    6  O   UNK N   1      23.219  21.230   2.975  0.00  0.00    -0.648 OA
ENDBRANCH   1   4
TORSDOF 2
ENDMDL
MODEL 7
REMARK VINA RESULT:      -2.8     10.600     11.273
REMARK  2 active torsions:
REMARK  status: ('A' for Active; 'I' for Inactive)
REMARK    1  A    between atoms: Se_2  and  C_3 
REMARK    2  A    between atoms: C_3  and  C_4 
ROOT
HETATM    1  C   UNK N   1      42.876  21.932   2.981  0.00  0.00     0.123 C 
ENDROOT
BRANCH   1   2
HETATM    2 Se   UNK N   1      41.545  22.786   1.841  0.00  0.00     0.000 Se
HETATM    3  C   UNK N   1      40.304  21.366   2.291  0.00  0.00     0.000 C 
ENDBRANCH   1   2
BRANCH   1   4
HETATM    4  C   UNK N   1      43.593  22.896   3.869  0.00  0.00     0.173 C 
HETATM    5  O   UNK N   1      43.881  22.544   5.132  0.00  0.00    -0.648 OA
HETATM    6  O   UNK N   1      43.921  24.004   3.459  0.00  0.00    -0.648 OA
ENDBRANCH   1   4
TORSDOF 2
ENDMDL
MODEL 8
REMARK VINA RESULT:      -2.7     13.342     14.334
REMARK  2 active torsions:
REMARK  status: ('A' for Active; 'I' for Inactive)
REMARK    1  A    between atoms: Se_2  and  C_3 
REMARK    2  A    between atoms: C_3  and  C_4 
ROOT
HETATM    1  C   UNK N   1      30.345  23.240  -3.735  0.00  0.00     0.123 C 
ENDROOT
BRANCH   1   2
HETATM    2 Se   UNK N   1      28.567  24.034  -3.652  0.00  0.00     0.000 Se
HETATM    3  C   UNK N   1      29.291  25.646  -4.452  0.00  0.00     0.000 C 
ENDBRANCH   1   2
BRANCH   1   4
HETATM    4  C   UNK N   1      30.828  22.744  -2.410  0.00  0.00     0.173 C 
HETATM    5  O   UNK N   1      31.902  21.941  -2.356  0.00  0.00    -0.648 OA
HETATM    6  O   UNK N   1      30.255  23.062  -1.374  0.00  0.00    -0.648 OA
ENDBRANCH   1   4
TORSDOF 2
ENDMDL
MODEL 9
REMARK VINA RESULT:      -2.6     10.189     10.874
REMARK  2 active torsions:
REMARK  status: ('A' for Active; 'I' for Inactive)
REMARK    1  A    between atoms: Se_2  and  C_3 
REMARK    2  A    between atoms: C_3  and  C_4 
ROOT
HETATM    1  C   UNK N   1      42.621  22.188   2.726  0.00  0.00     0.123 C 
ENDROOT
BRANCH   1   2
HETATM    2 Se   UNK N   1      41.963  20.405   3.158  0.00  0.00     0.000 Se
HETATM    3  C   UNK N   1      40.217  20.931   2.498  0.00  0.00     0.000 C 
ENDBRANCH   1   2
BRANCH   1   4
HETATM    4  C   UNK N   1      43.494  22.765   3.793  0.00  0.00     0.173 C 
HETATM    5  O   UNK N   1      43.894  24.043   3.701  0.00  0.00    -0.648 OA
HETATM    6  O   UNK N   1      43.848  22.087   4.751  0.00  0.00    -0.648 OA
ENDBRANCH   1   4
TORSDOF 2
ENDMDL
