MODEL 1
REMARK VINA RESULT:      -7.1      0.000      0.000
REMARK  14 active torsions:
REMARK  status: ('A' for Active; 'I' for Inactive)
REMARK    1  A    between atoms: C_25  and  C_21 
REMARK    2  A    between atoms: N_37  and  C_21 
REMARK    3  A    between atoms: C_26  and  C_22 
REMARK    4  A    between atoms: N_38  and  C_22 
REMARK    5  A    between atoms: C_30  and  C_23 
REMARK    6  A    between atoms: O_44  and  C_23 
REMARK    7  A    between atoms: C_31  and  C_24 
REMARK    8  A    between atoms: O_45  and  C_24 
REMARK    9  A    between atoms: C_34  and  C_27 
REMARK   10  A    between atoms: O_44  and  C_28 
REMARK   11  A    between atoms: O_45  and  C_29 
REMARK   12  A    between atoms: C_32  and  O_39 
REMARK   13  A    between atoms: C_33  and  O_40 
REMARK   14  A    between atoms: O_41  and  C_34 
ROOT
HETATM    1  C   UNK N   1      34.644  16.026   7.705  0.00  0.00     0.131 C 
HETATM    2  C   UNK N   1      34.552  14.890  10.971  0.00  0.00     0.131 C 
HETATM    3  C   UNK N   1      34.413  16.790   9.051  0.00  0.00     0.169 C 
HETATM    4  C   UNK N   1      35.111  16.194  10.314  0.00  0.00     0.169 C 
HETATM    5  N   UNK N   1      33.763  14.870   7.410  0.00  0.00    -0.184 NA
HETATM    6  N   UNK N   1      34.514  13.710  10.085  0.00  0.00    -0.184 NA
HETATM    7  O   UNK N   1      32.030  14.520   9.440  0.00  0.00    -0.194 OA
HETATM    8  O   UNK N   1      32.815  12.495   8.407  0.00  0.00    -0.194 OA
HETATM    9  S   UNK N   1      33.291  13.894   8.826  0.00  0.00     0.284 S 
ENDROOT
BRANCH   6  10
HETATM   10  C   UNK N   1      35.804  13.322   9.497  0.00  0.00     0.147 C 
BRANCH  10  11
HETATM   11  C   UNK N   1      36.257  11.986  10.016  0.00  0.00    -0.043 A 
HETATM   12  C   UNK N   1      37.520  11.883  10.601  0.00  0.00     0.008 A 
HETATM   13  C   UNK N   1      37.927  10.686  11.189  0.00  0.00     0.002 A 
HETATM   14  C   UNK N   1      37.072   9.584  11.191  0.00  0.00     0.016 A 
HETATM   15  C   UNK N   1      35.815   9.645  10.577  0.00  0.00     0.015 A 
HETATM   16  C   UNK N   1      35.407  10.867   9.992  0.00  0.00     0.024 A 
BRANCH  15  17
HETATM   17  C   UNK N   1      34.954   8.417  10.599  0.00  0.00     0.145 C 
HETATM   18  N   UNK N   1      34.896   7.549   9.645  0.00  0.00    -0.375 N 
HETATM   19  C   UNK N   1      35.672   7.595   8.430  0.00  0.00     0.148 C 
ATOM     20  HN  UNK N   1      34.248   6.769   9.760  1.00  0.00     0.161 HD
BRANCH  17  21
HETATM   21  O   UNK N   1      34.207   8.193  11.703  0.00  0.00    -0.346 OA
HETATM   22  H   UNK N   1      33.273   8.160  11.638  0.00  0.00     0.219 HD
ENDBRANCH  17  21
ENDBRANCH  15  17
ENDBRANCH  10  11
ENDBRANCH   6  10
BRANCH   2  23
HETATM   23  C   UNK N   1      35.288  14.478  12.271  0.00  0.00     0.199 C 
BRANCH  23  24
HETATM   24  O   UNK N   1      34.627  13.507  12.993  0.00  0.00    -0.349 OA
BRANCH  24  25
HETATM   25  C   UNK N   1      35.236  12.466  13.602  0.00  0.00     0.068 A 
HETATM   26  C   UNK N   1      34.594  11.227  13.773  0.00  0.00     0.037 A 
HETATM   27  C   UNK N   1      35.260  10.173  14.404  0.00  0.00     0.003 A 
HETATM   28  C   UNK N   1      36.568  10.347  14.864  0.00  0.00     0.000 A 
HETATM   29  C   UNK N   1      37.211  11.576  14.694  0.00  0.00     0.003 A 
HETATM   30  C   UNK N   1      36.546  12.631  14.066  0.00  0.00     0.037 A 
ENDBRANCH  24  25
ENDBRANCH  23  24
ENDBRANCH   2  23
BRANCH   4  31
HETATM   31  O   UNK N   1      35.051  17.199  11.290  0.00  0.00    -0.391 OA
HETATM   32  H   UNK N   1      34.411  17.927  11.280  0.00  0.00     0.210 HD
ENDBRANCH   4  31
BRANCH   5  33
HETATM   33  C   UNK N   1      34.450  14.071   6.377  0.00  0.00     0.147 C 
BRANCH  33  34
HETATM   34  C   UNK N   1      33.675  13.834   5.127  0.00  0.00    -0.044 A 
HETATM   35  C   UNK N   1      32.351  13.378   5.163  0.00  0.00     0.008 A 
HETATM   36  C   UNK N   1      31.656  13.169   3.966  0.00  0.00     0.001 A 
HETATM   37  C   UNK N   1      32.278  13.425   2.738  0.00  0.00     0.000 A 
HETATM   38  C   UNK N   1      33.595  13.890   2.706  0.00  0.00     0.001 A 
HETATM   39  C   UNK N   1      34.291  14.095   3.898  0.00  0.00     0.008 A 
ENDBRANCH  33  34
ENDBRANCH   5  33
BRANCH   3  40
HETATM   40  O   UNK N   1      34.975  18.068   8.899  0.00  0.00    -0.391 OA
HETATM   41  H   UNK N   1      34.501  18.884   8.676  0.00  0.00     0.210 HD
ENDBRANCH   3  40
BRANCH   1  42
HETATM   42  C   UNK N   1      34.559  16.986   6.496  0.00  0.00     0.199 C 
BRANCH  42  43
HETATM   43  O   UNK N   1      33.346  17.636   6.376  0.00  0.00    -0.349 OA
BRANCH  43  44
HETATM   44  C   UNK N   1      32.456  17.345   5.399  0.00  0.00     0.068 A 
HETATM   45  C   UNK N   1      32.848  17.476   4.059  0.00  0.00     0.037 A 
HETATM   46  C   UNK N   1      31.966  17.130   3.029  0.00  0.00     0.003 A 
HETATM   47  C   UNK N   1      30.682  16.670   3.332  0.00  0.00     0.000 A 
HETATM   48  C   UNK N   1      30.278  16.554   4.665  0.00  0.00     0.003 A 
HETATM   49  C   UNK N   1      31.164  16.881   5.697  0.00  0.00     0.037 A 
ENDBRANCH  43  44
ENDBRANCH  42  43
ENDBRANCH   1  42
TORSDOF 14
ENDMDL
MODEL 2
REMARK VINA RESULT:      -7.0      2.141      9.037
REMARK  14 active torsions:
REMARK  status: ('A' for Active; 'I' for Inactive)
REMARK    1  A    between atoms: C_25  and  C_21 
REMARK    2  A    between atoms: N_37  and  C_21 
REMARK    3  A    between atoms: C_26  and  C_22 
REMARK    4  A    between atoms: N_38  and  C_22 
REMARK    5  A    between atoms: C_30  and  C_23 
REMARK    6  A    between atoms: O_44  and  C_23 
REMARK    7  A    between atoms: C_31  and  C_24 
REMARK    8  A    between atoms: O_45  and  C_24 
REMARK    9  A    between atoms: C_34  and  C_27 
REMARK   10  A    between atoms: O_44  and  C_28 
REMARK   11  A    between atoms: O_45  and  C_29 
REMARK   12  A    between atoms: C_32  and  O_39 
REMARK   13  A    between atoms: C_33  and  O_40 
REMARK   14  A    between atoms: O_41  and  C_34 
ROOT
HETATM    1  C   UNK N   1      34.923  13.894  10.785  0.00  0.00     0.131 C 
HETATM    2  C   UNK N   1      34.714  16.344   8.352  0.00  0.00     0.131 C 
HETATM    3  C   UNK N   1      35.684  15.252  10.629  0.00  0.00     0.169 C 
HETATM    4  C   UNK N   1      34.913  16.398   9.902  0.00  0.00     0.169 C 
HETATM    5  N   UNK N   1      34.970  12.943   9.647  0.00  0.00    -0.184 NA
HETATM    6  N   UNK N   1      33.992  15.157   7.855  0.00  0.00    -0.184 NA
HETATM    7  O   UNK N   1      36.419  14.011   7.644  0.00  0.00    -0.194 OA
HETATM    8  O   UNK N   1      34.531  12.693   6.948  0.00  0.00    -0.194 OA
HETATM    9  S   UNK N   1      34.965  13.695   8.029  0.00  0.00     0.284 S 
ENDROOT
BRANCH   6  10
HETATM   10  C   UNK N   1      32.651  14.952   8.421  0.00  0.00     0.147 C 
BRANCH  10  11
HETATM   11  C   UNK N   1      31.583  15.241   7.404  0.00  0.00    -0.043 A 
HETATM   12  C   UNK N   1      31.381  14.334   6.362  0.00  0.00     0.008 A 
HETATM   13  C   UNK N   1      30.329  14.518   5.465  0.00  0.00     0.002 A 
HETATM   14  C   UNK N   1      29.476  15.613   5.603  0.00  0.00     0.016 A 
HETATM   15  C   UNK N   1      29.680  16.562   6.614  0.00  0.00     0.015 A 
HETATM   16  C   UNK N   1      30.742  16.362   7.525  0.00  0.00     0.024 A 
BRANCH  15  17
HETATM   17  C   UNK N   1      28.737  17.726   6.694  0.00  0.00     0.145 C 
HETATM   18  N   UNK N   1      28.016  18.012   7.726  0.00  0.00    -0.375 N 
HETATM   19  C   UNK N   1      28.029  17.291   8.975  0.00  0.00     0.148 C 
ATOM     20  HN  UNK N   1      27.386  18.811   7.651  1.00  0.00     0.161 HD
BRANCH  17  21
HETATM   21  O   UNK N   1      28.654  18.542   5.620  0.00  0.00    -0.346 OA
HETATM   22  H   UNK N   1      29.294  19.214   5.491  0.00  0.00     0.219 HD
ENDBRANCH  17  21
ENDBRANCH  15  17
ENDBRANCH  10  11
ENDBRANCH   6  10
BRANCH   2  23
HETATM   23  C   UNK N   1      34.019  17.597   7.764  0.00  0.00     0.199 C 
BRANCH  23  24
HETATM   24  O   UNK N   1      34.372  17.861   6.457  0.00  0.00    -0.349 OA
BRANCH  24  25
HETATM   25  C   UNK N   1      33.809  17.264   5.383  0.00  0.00     0.068 A 
HETATM   26  C   UNK N   1      34.270  16.029   4.895  0.00  0.00     0.037 A 
HETATM   27  C   UNK N   1      33.658  15.441   3.785  0.00  0.00     0.003 A 
HETATM   28  C   UNK N   1      32.585  16.081   3.157  0.00  0.00     0.000 A 
HETATM   29  C   UNK N   1      32.123  17.308   3.640  0.00  0.00     0.003 A 
HETATM   30  C   UNK N   1      32.735  17.897   4.749  0.00  0.00     0.037 A 
ENDBRANCH  24  25
ENDBRANCH  23  24
ENDBRANCH   2  23
BRANCH   4  31
HETATM   31  O   UNK N   1      35.628  17.572  10.180  0.00  0.00    -0.391 OA
HETATM   32  H   UNK N   1      36.456  17.596  10.684  0.00  0.00     0.210 HD
ENDBRANCH   4  31
BRANCH   5  33
HETATM   33  C   UNK N   1      33.848  12.004   9.836  0.00  0.00     0.147 C 
BRANCH  33  34
HETATM   34  C   UNK N   1      34.228  10.571   9.982  0.00  0.00    -0.044 A 
HETATM   35  C   UNK N   1      35.244  10.001   9.204  0.00  0.00     0.008 A 
HETATM   36  C   UNK N   1      35.572   8.651   9.372  0.00  0.00     0.001 A 
HETATM   37  C   UNK N   1      34.894   7.875  10.320  0.00  0.00     0.000 A 
HETATM   38  C   UNK N   1      33.888   8.449  11.102  0.00  0.00     0.001 A 
HETATM   39  C   UNK N   1      33.557   9.794  10.933  0.00  0.00     0.008 A 
ENDBRANCH  33  34
ENDBRANCH   5  33
BRANCH   3  40
HETATM   40  O   UNK N   1      35.919  15.741  11.924  0.00  0.00    -0.391 OA
HETATM   41  H   UNK N   1      36.661  15.509  12.502  0.00  0.00     0.210 HD
ENDBRANCH   3  40
BRANCH   1  42
HETATM   42  C   UNK N   1      35.399  13.127  12.041  0.00  0.00     0.199 C 
BRANCH  42  43
HETATM   43  O   UNK N   1      34.635  13.360  13.168  0.00  0.00    -0.349 OA
BRANCH  43  44
HETATM   44  C   UNK N   1      34.709  12.581  14.272  0.00  0.00     0.068 A 
HETATM   45  C   UNK N   1      34.204  11.275  14.219  0.00  0.00     0.037 A 
HETATM   46  C   UNK N   1      34.315  10.430  15.329  0.00  0.00     0.003 A 
HETATM   47  C   UNK N   1      34.913  10.892  16.504  0.00  0.00     0.000 A 
HETATM   48  C   UNK N   1      35.403  12.199  16.570  0.00  0.00     0.003 A 
HETATM   49  C   UNK N   1      35.311  13.040  15.456  0.00  0.00     0.037 A 
ENDBRANCH  43  44
ENDBRANCH  42  43
ENDBRANCH   1  42
TORSDOF 14
ENDMDL
MODEL 3
REMARK VINA RESULT:      -6.7      7.165     10.760
REMARK  14 active torsions:
REMARK  status: ('A' for Active; 'I' for Inactive)
REMARK    1  A    between atoms: C_25  and  C_21 
REMARK    2  A    between atoms: N_37  and  C_21 
REMARK    3  A    between atoms: C_26  and  C_22 
REMARK    4  A    between atoms: N_38  and  C_22 
REMARK    5  A    between atoms: C_30  and  C_23 
REMARK    6  A    between atoms: O_44  and  C_23 
REMARK    7  A    between atoms: C_31  and  C_24 
REMARK    8  A    between atoms: O_45  and  C_24 
REMARK    9  A    between atoms: C_34  and  C_27 
REMARK   10  A    between atoms: O_44  and  C_28 
REMARK   11  A    between atoms: O_45  and  C_29 
REMARK   12  A    between atoms: C_32  and  O_39 
REMARK   13  A    between atoms: C_33  and  O_40 
REMARK   14  A    between atoms: O_41  and  C_34 
ROOT
HETATM    1  C   UNK N   1      27.394  16.438   4.484  0.00  0.00     0.131 C 
HETATM    2  C   UNK N   1      24.106  15.362   4.534  0.00  0.00     0.131 C 
HETATM    3  C   UNK N   1      26.092  17.088   3.908  0.00  0.00     0.169 C 
HETATM    4  C   UNK N   1      24.765  16.773   4.668  0.00  0.00     0.169 C 
HETATM    5  N   UNK N   1      27.711  15.049   4.068  0.00  0.00    -0.184 NA
HETATM    6  N   UNK N   1      24.954  14.232   4.963  0.00  0.00    -0.184 NA
HETATM    7  O   UNK N   1      25.794  14.149   2.407  0.00  0.00    -0.194 OA
HETATM    8  O   UNK N   1      26.703  12.501   3.903  0.00  0.00    -0.194 OA
HETATM    9  S   UNK N   1      26.299  13.981   3.848  0.00  0.00     0.284 S 
ENDROOT
BRANCH   6  10
HETATM   10  C   UNK N   1      25.440  14.299   6.348  0.00  0.00     0.147 C 
BRANCH  10  11
HETATM   11  C   UNK N   1      24.805  13.233   7.197  0.00  0.00    -0.043 A 
HETATM   12  C   UNK N   1      24.320  12.079   6.579  0.00  0.00     0.008 A 
HETATM   13  C   UNK N   1      23.824  11.026   7.348  0.00  0.00     0.002 A 
HETATM   14  C   UNK N   1      23.807  11.125   8.739  0.00  0.00     0.016 A 
HETATM   15  C   UNK N   1      24.248  12.288   9.385  0.00  0.00     0.015 A 
HETATM   16  C   UNK N   1      24.759  13.346   8.598  0.00  0.00     0.024 A 
BRANCH  15  17
HETATM   17  C   UNK N   1      24.183  12.334  10.883  0.00  0.00     0.145 C 
HETATM   18  N   UNK N   1      23.088  12.339  11.566  0.00  0.00    -0.375 N 
HETATM   19  C   UNK N   1      21.760  12.258  11.009  0.00  0.00     0.148 C 
ATOM     20  HN  UNK N   1      23.168  12.405  12.581  1.00  0.00     0.161 HD
BRANCH  17  21
HETATM   21  O   UNK N   1      25.352  12.349  11.562  0.00  0.00    -0.346 OA
HETATM   22  H   UNK N   1      25.351  12.288  12.497  0.00  0.00     0.219 HD
ENDBRANCH  17  21
ENDBRANCH  15  17
ENDBRANCH  10  11
ENDBRANCH   6  10
BRANCH   2  23
HETATM   23  C   UNK N   1      22.746  15.232   5.265  0.00  0.00     0.199 C 
BRANCH  23  24
HETATM   24  O   UNK N   1      22.605  16.104   6.324  0.00  0.00    -0.349 OA
BRANCH  24  25
HETATM   25  C   UNK N   1      21.586  16.064   7.211  0.00  0.00     0.068 A 
HETATM   26  C   UNK N   1      21.393  14.968   8.069  0.00  0.00     0.037 A 
HETATM   27  C   UNK N   1      20.329  14.966   8.976  0.00  0.00     0.003 A 
HETATM   28  C   UNK N   1      19.456  16.056   9.032  0.00  0.00     0.000 A 
HETATM   29  C   UNK N   1      19.645  17.149   8.181  0.00  0.00     0.003 A 
HETATM   30  C   UNK N   1      20.707  17.150   7.273  0.00  0.00     0.037 A 
ENDBRANCH  24  25
ENDBRANCH  23  24
ENDBRANCH   2  23
BRANCH   4  31
HETATM   31  O   UNK N   1      23.830  17.706   4.200  0.00  0.00    -0.391 OA
HETATM   32  H   UNK N   1      23.209  18.185   4.771  0.00  0.00     0.210 HD
ENDBRANCH   4  31
BRANCH   5  33
HETATM   33  C   UNK N   1      28.667  14.522   5.060  0.00  0.00     0.147 C 
BRANCH  33  34
HETATM   34  C   UNK N   1      30.023  14.195   4.535  0.00  0.00    -0.044 A 
HETATM   35  C   UNK N   1      30.300  14.220   3.162  0.00  0.00     0.008 A 
HETATM   36  C   UNK N   1      31.586  13.908   2.708  0.00  0.00     0.001 A 
HETATM   37  C   UNK N   1      32.594  13.581   3.622  0.00  0.00     0.000 A 
HETATM   38  C   UNK N   1      32.317  13.567   4.992  0.00  0.00     0.001 A 
HETATM   39  C   UNK N   1      31.034  13.874   5.446  0.00  0.00     0.008 A 
ENDBRANCH  33  34
ENDBRANCH   5  33
BRANCH   3  40
HETATM   40  O   UNK N   1      26.247  18.480   4.017  0.00  0.00    -0.391 OA
HETATM   41  H   UNK N   1      26.235  19.120   3.289  0.00  0.00     0.210 HD
ENDBRANCH   3  40
BRANCH   1  42
HETATM   42  C   UNK N   1      28.636  17.303   4.171  0.00  0.00     0.199 C 
BRANCH  42  43
HETATM   43  O   UNK N   1      29.296  17.769   5.292  0.00  0.00    -0.349 OA
BRANCH  43  44
HETATM   44  C   UNK N   1      30.606  17.522   5.522  0.00  0.00     0.068 A 
HETATM   45  C   UNK N   1      31.512  17.599   4.456  0.00  0.00     0.037 A 
HETATM   46  C   UNK N   1      32.880  17.400   4.675  0.00  0.00     0.003 A 
HETATM   47  C   UNK N   1      33.347  17.103   5.958  0.00  0.00     0.000 A 
HETATM   48  C   UNK N   1      32.447  17.007   7.023  0.00  0.00     0.003 A 
HETATM   49  C   UNK N   1      31.082  17.224   6.811  0.00  0.00     0.037 A 
ENDBRANCH  43  44
ENDBRANCH  42  43
ENDBRANCH   1  42
TORSDOF 14
ENDMDL
MODEL 4
REMARK VINA RESULT:      -6.6      2.120      8.852
REMARK  14 active torsions:
REMARK  status: ('A' for Active; 'I' for Inactive)
REMARK    1  A    between atoms: C_25  and  C_21 
REMARK    2  A    between atoms: N_37  and  C_21 
REMARK    3  A    between atoms: C_26  and  C_22 
REMARK    4  A    between atoms: N_38  and  C_22 
REMARK    5  A    between atoms: C_30  and  C_23 
REMARK    6  A    between atoms: O_44  and  C_23 
REMARK    7  A    between atoms: C_31  and  C_24 
REMARK    8  A    between atoms: O_45  and  C_24 
REMARK    9  A    between atoms: C_34  and  C_27 
REMARK   10  A    between atoms: O_44  and  C_28 
REMARK   11  A    between atoms: O_45  and  C_29 
REMARK   12  A    between atoms: C_32  and  O_39 
REMARK   13  A    between atoms: C_33  and  O_40 
REMARK   14  A    between atoms: O_41  and  C_34 
ROOT
HETATM    1  C   UNK N   1      34.835  14.105  10.675  0.00  0.00     0.131 C 
HETATM    2  C   UNK N   1      34.556  16.469   8.165  0.00  0.00     0.131 C 
HETATM    3  C   UNK N   1      35.597  15.453  10.446  0.00  0.00     0.169 C 
HETATM    4  C   UNK N   1      34.806  16.577   9.705  0.00  0.00     0.169 C 
HETATM    5  N   UNK N   1      34.842  13.115   9.570  0.00  0.00    -0.184 NA
HETATM    6  N   UNK N   1      33.813  15.269   7.735  0.00  0.00    -0.184 NA
HETATM    7  O   UNK N   1      36.227  14.104   7.485  0.00  0.00    -0.194 OA
HETATM    8  O   UNK N   1      34.312  12.773   6.898  0.00  0.00    -0.194 OA
HETATM    9  S   UNK N   1      34.785  13.809   7.928  0.00  0.00     0.284 S 
ENDROOT
BRANCH   6  10
HETATM   10  C   UNK N   1      32.491  15.091   8.352  0.00  0.00     0.147 C 
BRANCH  10  11
HETATM   11  C   UNK N   1      31.391  15.360   7.364  0.00  0.00    -0.043 A 
HETATM   12  C   UNK N   1      31.255  14.515   6.261  0.00  0.00     0.008 A 
HETATM   13  C   UNK N   1      30.181  14.672   5.384  0.00  0.00     0.002 A 
HETATM   14  C   UNK N   1      29.240  15.678   5.606  0.00  0.00     0.016 A 
HETATM   15  C   UNK N   1      29.374  16.566   6.681  0.00  0.00     0.015 A 
HETATM   16  C   UNK N   1      30.460  16.393   7.570  0.00  0.00     0.024 A 
BRANCH  15  17
HETATM   17  C   UNK N   1      28.336  17.637   6.848  0.00  0.00     0.145 C 
HETATM   18  N   UNK N   1      28.095  18.561   5.980  0.00  0.00    -0.375 N 
HETATM   19  C   UNK N   1      28.747  18.691   4.700  0.00  0.00     0.148 C 
ATOM     20  HN  UNK N   1      27.386  19.255   6.219  1.00  0.00     0.161 HD
BRANCH  17  21
HETATM   21  O   UNK N   1      27.590  17.617   7.975  0.00  0.00    -0.346 OA
HETATM   22  H   UNK N   1      27.023  18.336   8.173  0.00  0.00     0.219 HD
ENDBRANCH  17  21
ENDBRANCH  15  17
ENDBRANCH  10  11
ENDBRANCH   6  10
BRANCH   2  23
HETATM   23  C   UNK N   1      33.847  17.705   7.557  0.00  0.00     0.199 C 
BRANCH  23  24
HETATM   24  O   UNK N   1      34.191  17.946   6.244  0.00  0.00    -0.349 OA
BRANCH  24  25
HETATM   25  C   UNK N   1      33.654  17.298   5.186  0.00  0.00     0.068 A 
HETATM   26  C   UNK N   1      34.174  16.077   4.723  0.00  0.00     0.037 A 
HETATM   27  C   UNK N   1      33.587  15.435   3.629  0.00  0.00     0.003 A 
HETATM   28  C   UNK N   1      32.480  16.006   2.994  0.00  0.00     0.000 A 
HETATM   29  C   UNK N   1      31.958  17.218   3.453  0.00  0.00     0.003 A 
HETATM   30  C   UNK N   1      32.545  17.862   4.545  0.00  0.00     0.037 A 
ENDBRANCH  24  25
ENDBRANCH  23  24
ENDBRANCH   2  23
BRANCH   4  31
HETATM   31  O   UNK N   1      35.535  17.756   9.918  0.00  0.00    -0.391 OA
HETATM   32  H   UNK N   1      35.906  18.300   9.206  0.00  0.00     0.210 HD
ENDBRANCH   4  31
BRANCH   5  33
HETATM   33  C   UNK N   1      33.723  12.189   9.830  0.00  0.00     0.147 C 
BRANCH  33  34
HETATM   34  C   UNK N   1      34.105  10.767  10.057  0.00  0.00    -0.044 A 
HETATM   35  C   UNK N   1      33.732  10.087  11.224  0.00  0.00     0.008 A 
HETATM   36  C   UNK N   1      34.110   8.751  11.399  0.00  0.00     0.001 A 
HETATM   37  C   UNK N   1      34.849   8.093  10.408  0.00  0.00     0.000 A 
HETATM   38  C   UNK N   1      35.210   8.771   9.240  0.00  0.00     0.001 A 
HETATM   39  C   UNK N   1      34.838  10.105   9.066  0.00  0.00     0.008 A 
ENDBRANCH  33  34
ENDBRANCH   5  33
BRANCH   3  40
HETATM   40  O   UNK N   1      35.876  15.986  11.715  0.00  0.00    -0.391 OA
HETATM   41  H   UNK N   1      36.133  15.489  12.506  0.00  0.00     0.210 HD
ENDBRANCH   3  40
BRANCH   1  42
HETATM   42  C   UNK N   1      35.351  13.381  11.941  0.00  0.00     0.199 C 
BRANCH  42  43
HETATM   43  O   UNK N   1      36.702  13.093  11.916  0.00  0.00    -0.349 OA
BRANCH  43  44
HETATM   44  C   UNK N   1      37.176  11.837  11.748  0.00  0.00     0.068 A 
HETATM   45  C   UNK N   1      37.859  11.518  10.566  0.00  0.00     0.037 A 
HETATM   46  C   UNK N   1      38.406  10.242  10.389  0.00  0.00     0.003 A 
HETATM   47  C   UNK N   1      38.256   9.273  11.383  0.00  0.00     0.000 A 
HETATM   48  C   UNK N   1      37.561   9.577  12.556  0.00  0.00     0.003 A 
HETATM   49  C   UNK N   1      37.030  10.857  12.745  0.00  0.00     0.037 A 
ENDBRANCH  43  44
ENDBRANCH  42  43
ENDBRANCH   1  42
TORSDOF 14
ENDMDL
MODEL 5
REMARK VINA RESULT:      -6.6      5.477      8.521
REMARK  14 active torsions:
REMARK  status: ('A' for Active; 'I' for Inactive)
REMARK    1  A    between atoms: C_25  and  C_21 
REMARK    2  A    between atoms: N_37  and  C_21 
REMARK    3  A    between atoms: C_26  and  C_22 
REMARK    4  A    between atoms: N_38  and  C_22 
REMARK    5  A    between atoms: C_30  and  C_23 
REMARK    6  A    between atoms: O_44  and  C_23 
REMARK    7  A    between atoms: C_31  and  C_24 
REMARK    8  A    between atoms: O_45  and  C_24 
REMARK    9  A    between atoms: C_34  and  C_27 
REMARK   10  A    between atoms: O_44  and  C_28 
REMARK   11  A    between atoms: O_45  and  C_29 
REMARK   12  A    between atoms: C_32  and  O_39 
REMARK   13  A    between atoms: C_33  and  O_40 
REMARK   14  A    between atoms: O_41  and  C_34 
ROOT
HETATM    1  C   UNK N   1      26.320  17.870   4.389  0.00  0.00     0.131 C 
HETATM    2  C   UNK N   1      28.466  17.676   7.095  0.00  0.00     0.131 C 
HETATM    3  C   UNK N   1      26.283  18.583   5.781  0.00  0.00     0.169 C 
HETATM    4  C   UNK N   1      27.664  18.856   6.457  0.00  0.00     0.169 C 
HETATM    5  N   UNK N   1      26.402  16.388   4.377  0.00  0.00    -0.184 NA
HETATM    6  N   UNK N   1      28.816  16.582   6.168  0.00  0.00    -0.184 NA
HETATM    7  O   UNK N   1      26.478  15.472   6.907  0.00  0.00    -0.194 OA
HETATM    8  O   UNK N   1      27.816  14.239   5.335  0.00  0.00    -0.194 OA
HETATM    9  S   UNK N   1      27.384  15.671   5.682  0.00  0.00     0.284 S 
ENDROOT
BRANCH   6  10
HETATM   10  C   UNK N   1      29.595  16.982   4.987  0.00  0.00     0.147 C 
BRANCH  10  11
HETATM   11  C   UNK N   1      30.968  16.373   5.013  0.00  0.00    -0.043 A 
HETATM   12  C   UNK N   1      32.075  17.195   4.791  0.00  0.00     0.008 A 
HETATM   13  C   UNK N   1      33.366  16.683   4.915  0.00  0.00     0.002 A 
HETATM   14  C   UNK N   1      33.557  15.344   5.258  0.00  0.00     0.016 A 
HETATM   15  C   UNK N   1      32.466  14.485   5.445  0.00  0.00     0.015 A 
HETATM   16  C   UNK N   1      31.160  15.016   5.328  0.00  0.00     0.024 A 
BRANCH  15  17
HETATM   17  C   UNK N   1      32.743  13.053   5.793  0.00  0.00     0.145 C 
HETATM   18  N   UNK N   1      32.954  12.119   4.926  0.00  0.00    -0.375 N 
HETATM   19  C   UNK N   1      32.999  12.306   3.496  0.00  0.00     0.148 C 
ATOM     20  HN  UNK N   1      33.100  11.174   5.281  1.00  0.00     0.161 HD
BRANCH  17  21
HETATM   21  O   UNK N   1      32.798  12.723   7.102  0.00  0.00    -0.346 OA
HETATM   22  H   UNK N   1      32.360  11.953   7.410  0.00  0.00     0.219 HD
ENDBRANCH  17  21
ENDBRANCH  15  17
ENDBRANCH  10  11
ENDBRANCH   6  10
BRANCH   2  23
HETATM   23  C   UNK N   1      29.767  18.117   7.813  0.00  0.00     0.199 C 
BRANCH  23  24
HETATM   24  O   UNK N   1      30.389  17.097   8.501  0.00  0.00    -0.349 OA
BRANCH  24  25
HETATM   25  C   UNK N   1      31.729  16.933   8.570  0.00  0.00     0.068 A 
HETATM   26  C   UNK N   1      32.308  15.696   8.904  0.00  0.00     0.037 A 
HETATM   27  C   UNK N   1      33.698  15.566   8.959  0.00  0.00     0.003 A 
HETATM   28  C   UNK N   1      34.516  16.665   8.681  0.00  0.00     0.000 A 
HETATM   29  C   UNK N   1      33.944  17.895   8.347  0.00  0.00     0.003 A 
HETATM   30  C   UNK N   1      32.554  18.027   8.292  0.00  0.00     0.037 A 
ENDBRANCH  24  25
ENDBRANCH  23  24
ENDBRANCH   2  23
BRANCH   4  31
HETATM   31  O   UNK N   1      27.409  19.777   7.482  0.00  0.00    -0.391 OA
HETATM   32  H   UNK N   1      28.093  20.147   8.062  0.00  0.00     0.210 HD
ENDBRANCH   4  31
BRANCH   5  33
HETATM   33  C   UNK N   1      26.882  16.005   3.035  0.00  0.00     0.147 C 
BRANCH  33  34
HETATM   34  C   UNK N   1      26.157  14.872   2.394  0.00  0.00    -0.044 A 
HETATM   35  C   UNK N   1      24.880  15.039   1.844  0.00  0.00     0.008 A 
HETATM   36  C   UNK N   1      24.233  13.949   1.249  0.00  0.00     0.001 A 
HETATM   37  C   UNK N   1      24.864  12.701   1.195  0.00  0.00     0.000 A 
HETATM   38  C   UNK N   1      26.143  12.541   1.734  0.00  0.00     0.001 A 
HETATM   39  C   UNK N   1      26.788  13.625   2.332  0.00  0.00     0.008 A 
ENDBRANCH  33  34
ENDBRANCH   5  33
BRANCH   3  40
HETATM   40  O   UNK N   1      25.726  19.856   5.575  0.00  0.00    -0.391 OA
HETATM   41  H   UNK N   1      25.020  20.082   4.951  0.00  0.00     0.210 HD
ENDBRANCH   3  40
BRANCH   1  42
HETATM   42  C   UNK N   1      25.101  18.267   3.525  0.00  0.00     0.199 C 
BRANCH  42  43
HETATM   43  O   UNK N   1      23.885  18.125   4.165  0.00  0.00    -0.349 OA
BRANCH  43  44
HETATM   44  C   UNK N   1      22.749  18.701   3.707  0.00  0.00     0.068 A 
HETATM   45  C   UNK N   1      22.812  19.984   3.149  0.00  0.00     0.037 A 
HETATM   46  C   UNK N   1      21.662  20.581   2.620  0.00  0.00     0.003 A 
HETATM   47  C   UNK N   1      20.440  19.906   2.663  0.00  0.00     0.000 A 
HETATM   48  C   UNK N   1      20.366  18.633   3.234  0.00  0.00     0.003 A 
HETATM   49  C   UNK N   1      21.517  18.026   3.747  0.00  0.00     0.037 A 
ENDBRANCH  43  44
ENDBRANCH  42  43
ENDBRANCH   1  42
TORSDOF 14
ENDMDL
MODEL 6
REMARK VINA RESULT:      -6.5      1.945      8.695
REMARK  14 active torsions:
REMARK  status: ('A' for Active; 'I' for Inactive)
REMARK    1  A    between atoms: C_25  and  C_21 
REMARK    2  A    between atoms: N_37  and  C_21 
REMARK    3  A    between atoms: C_26  and  C_22 
REMARK    4  A    between atoms: N_38  and  C_22 
REMARK    5  A    between atoms: C_30  and  C_23 
REMARK    6  A    between atoms: O_44  and  C_23 
REMARK    7  A    between atoms: C_31  and  C_24 
REMARK    8  A    between atoms: O_45  and  C_24 
REMARK    9  A    between atoms: C_34  and  C_27 
REMARK   10  A    between atoms: O_44  and  C_28 
REMARK   11  A    between atoms: O_45  and  C_29 
REMARK   12  A    between atoms: C_32  and  O_39 
REMARK   13  A    between atoms: C_33  and  O_40 
REMARK   14  A    between atoms: O_41  and  C_34 
ROOT
HETATM    1  C   UNK N   1      34.728  14.394  10.626  0.00  0.00     0.131 C 
HETATM    2  C   UNK N   1      35.122  16.046   7.612  0.00  0.00     0.131 C 
HETATM    3  C   UNK N   1      35.278  15.823  10.304  0.00  0.00     0.169 C 
HETATM    4  C   UNK N   1      34.689  16.522   9.037  0.00  0.00     0.169 C 
HETATM    5  N   UNK N   1      35.358  13.242   9.934  0.00  0.00    -0.184 NA
HETATM    6  N   UNK N   1      34.837  14.629   7.312  0.00  0.00    -0.184 NA
HETATM    7  O   UNK N   1      37.295  14.132   8.290  0.00  0.00    -0.194 OA
HETATM    8  O   UNK N   1      36.049  12.244   7.472  0.00  0.00    -0.194 OA
HETATM    9  S   UNK N   1      35.872  13.554   8.255  0.00  0.00     0.284 S 
ENDROOT
BRANCH   6  10
HETATM   10  C   UNK N   1      33.428  14.229   7.440  0.00  0.00     0.147 C 
BRANCH  10  11
HETATM   11  C   UNK N   1      32.824  13.938   6.095  0.00  0.00    -0.043 A 
HETATM   12  C   UNK N   1      31.444  13.750   6.002  0.00  0.00     0.008 A 
HETATM   13  C   UNK N   1      30.840  13.586   4.756  0.00  0.00     0.002 A 
HETATM   14  C   UNK N   1      31.614  13.605   3.596  0.00  0.00     0.016 A 
HETATM   15  C   UNK N   1      33.006  13.750   3.661  0.00  0.00     0.015 A 
HETATM   16  C   UNK N   1      33.609  13.926   4.928  0.00  0.00     0.024 A 
BRANCH  15  17
HETATM   17  C   UNK N   1      33.780  13.742   2.376  0.00  0.00     0.145 C 
HETATM   18  N   UNK N   1      34.171  12.673   1.767  0.00  0.00    -0.375 N 
HETATM   19  C   UNK N   1      33.895  11.323   2.194  0.00  0.00     0.148 C 
ATOM     20  HN  UNK N   1      34.720  12.793   0.915  1.00  0.00     0.161 HD
BRANCH  17  21
HETATM   21  O   UNK N   1      34.067  14.934   1.808  0.00  0.00    -0.346 OA
HETATM   22  H   UNK N   1      33.967  15.725   2.301  0.00  0.00     0.219 HD
ENDBRANCH  17  21
ENDBRANCH  15  17
ENDBRANCH  10  11
ENDBRANCH   6  10
BRANCH   2  23
HETATM   23  C   UNK N   1      34.532  16.898   6.460  0.00  0.00     0.199 C 
BRANCH  23  24
HETATM   24  O   UNK N   1      33.412  17.614   6.823  0.00  0.00    -0.349 OA
BRANCH  24  25
HETATM   25  C   UNK N   1      32.187  17.435   6.282  0.00  0.00     0.068 A 
HETATM   26  C   UNK N   1      31.985  17.423   4.891  0.00  0.00     0.037 A 
HETATM   27  C   UNK N   1      30.703  17.230   4.370  0.00  0.00     0.003 A 
HETATM   28  C   UNK N   1      29.618  17.046   5.232  0.00  0.00     0.000 A 
HETATM   29  C   UNK N   1      29.814  17.055   6.616  0.00  0.00     0.003 A 
HETATM   30  C   UNK N   1      31.095  17.250   7.138  0.00  0.00     0.037 A 
ENDBRANCH  24  25
ENDBRANCH  23  24
ENDBRANCH   2  23
BRANCH   4  31
HETATM   31  O   UNK N   1      35.055  17.871   9.144  0.00  0.00    -0.391 OA
HETATM   32  H   UNK N   1      34.481  18.561   9.510  0.00  0.00     0.210 HD
ENDBRANCH   4  31
BRANCH   5  33
HETATM   33  C   UNK N   1      34.405  12.121  10.034  0.00  0.00     0.147 C 
BRANCH  33  34
HETATM   34  C   UNK N   1      34.893  10.926  10.779  0.00  0.00    -0.044 A 
HETATM   35  C   UNK N   1      36.058  10.250  10.393  0.00  0.00     0.008 A 
HETATM   36  C   UNK N   1      36.485   9.133  11.120  0.00  0.00     0.001 A 
HETATM   37  C   UNK N   1      35.757   8.700  12.235  0.00  0.00     0.000 A 
HETATM   38  C   UNK N   1      34.603   9.384  12.624  0.00  0.00     0.001 A 
HETATM   39  C   UNK N   1      34.173  10.495  11.898  0.00  0.00     0.008 A 
ENDBRANCH  33  34
ENDBRANCH   5  33
BRANCH   3  40
HETATM   40  O   UNK N   1      34.912  16.654  11.375  0.00  0.00    -0.391 OA
HETATM   41  H   UNK N   1      35.346  16.704  12.240  0.00  0.00     0.210 HD
ENDBRANCH   3  40
BRANCH   1  42
HETATM   42  C   UNK N   1      34.786  14.103  12.144  0.00  0.00     0.199 C 
BRANCH  42  43
HETATM   43  O   UNK N   1      36.066  13.981  12.647  0.00  0.00    -0.349 OA
BRANCH  43  44
HETATM   44  C   UNK N   1      36.436  12.965  13.461  0.00  0.00     0.068 A 
HETATM   45  C   UNK N   1      35.681  12.705  14.613  0.00  0.00     0.037 A 
HETATM   46  C   UNK N   1      36.009  11.628  15.444  0.00  0.00     0.003 A 
HETATM   47  C   UNK N   1      37.106  10.818  15.139  0.00  0.00     0.000 A 
HETATM   48  C   UNK N   1      37.874  11.082  14.002  0.00  0.00     0.003 A 
HETATM   49  C   UNK N   1      37.537  12.146  13.159  0.00  0.00     0.037 A 
ENDBRANCH  43  44
ENDBRANCH  42  43
ENDBRANCH   1  42
TORSDOF 14
ENDMDL
MODEL 7
REMARK VINA RESULT:      -6.4     15.187     19.278
REMARK  14 active torsions:
REMARK  status: ('A' for Active; 'I' for Inactive)
REMARK    1  A    between atoms: C_25  and  C_21 
REMARK    2  A    between atoms: N_37  and  C_21 
REMARK    3  A    between atoms: C_26  and  C_22 
REMARK    4  A    between atoms: N_38  and  C_22 
REMARK    5  A    between atoms: C_30  and  C_23 
REMARK    6  A    between atoms: O_44  and  C_23 
REMARK    7  A    between atoms: C_31  and  C_24 
REMARK    8  A    between atoms: O_45  and  C_24 
REMARK    9  A    between atoms: C_34  and  C_27 
REMARK   10  A    between atoms: O_44  and  C_28 
REMARK   11  A    between atoms: O_45  and  C_29 
REMARK   12  A    between atoms: C_32  and  O_39 
REMARK   13  A    between atoms: C_33  and  O_40 
REMARK   14  A    between atoms: O_41  and  C_34 
ROOT
HETATM    1  C   UNK N   1      32.555  20.812  -4.352  0.00  0.00     0.131 C 
HETATM    2  C   UNK N   1      30.234  23.359  -4.045  0.00  0.00     0.131 C 
HETATM    3  C   UNK N   1      32.311  21.844  -3.201  0.00  0.00     0.169 C 
HETATM    4  C   UNK N   1      30.843  22.345  -3.021  0.00  0.00     0.169 C 
HETATM    5  N   UNK N   1      32.773  21.345  -5.719  0.00  0.00    -0.184 NA
HETATM    6  N   UNK N   1      30.204  22.892  -5.445  0.00  0.00    -0.184 NA
HETATM    7  O   UNK N   1      32.632  24.033  -5.669  0.00  0.00    -0.194 OA
HETATM    8  O   UNK N   1      31.730  23.001  -7.645  0.00  0.00    -0.194 OA
HETATM    9  S   UNK N   1      31.831  22.804  -6.125  0.00  0.00     0.284 S 
ENDROOT
BRANCH   6  10
HETATM   10  C   UNK N   1      29.482  21.633  -5.675  0.00  0.00     0.147 C 
BRANCH  10  11
HETATM   11  C   UNK N   1      28.693  21.687  -6.953  0.00  0.00    -0.043 A 
HETATM   12  C   UNK N   1      29.069  20.860  -8.013  0.00  0.00     0.008 A 
HETATM   13  C   UNK N   1      28.294  20.808  -9.171  0.00  0.00     0.002 A 
HETATM   14  C   UNK N   1      27.141  21.585  -9.277  0.00  0.00     0.016 A 
HETATM   15  C   UNK N   1      26.762  22.455  -8.246  0.00  0.00     0.015 A 
HETATM   16  C   UNK N   1      27.547  22.494  -7.071  0.00  0.00     0.024 A 
BRANCH  15  17
HETATM   17  C   UNK N   1      25.521  23.277  -8.433  0.00  0.00     0.145 C 
HETATM   18  N   UNK N   1      25.514  24.512  -8.809  0.00  0.00    -0.375 N 
HETATM   19  C   UNK N   1      26.683  25.285  -9.149  0.00  0.00     0.148 C 
ATOM     20  HN  UNK N   1      24.608  24.978  -8.871  1.00  0.00     0.161 HD
BRANCH  17  21
HETATM   21  O   UNK N   1      24.330  22.676  -8.214  0.00  0.00    -0.346 OA
HETATM   22  H   UNK N   1      23.798  22.413  -8.939  0.00  0.00     0.219 HD
ENDBRANCH  17  21
ENDBRANCH  15  17
ENDBRANCH  10  11
ENDBRANCH   6  10
BRANCH   2  23
HETATM   23  C   UNK N   1      28.807  23.838  -3.679  0.00  0.00     0.199 C 
BRANCH  23  24
HETATM   24  O   UNK N   1      28.606  25.185  -3.898  0.00  0.00    -0.349 OA
BRANCH  24  25
HETATM   25  C   UNK N   1      27.546  25.697  -4.563  0.00  0.00     0.068 A 
HETATM   26  C   UNK N   1      27.593  26.965  -5.167  0.00  0.00     0.037 A 
HETATM   27  C   UNK N   1      26.477  27.457  -5.850  0.00  0.00     0.003 A 
HETATM   28  C   UNK N   1      25.313  26.688  -5.935  0.00  0.00     0.000 A 
HETATM   29  C   UNK N   1      25.264  25.426  -5.338  0.00  0.00     0.003 A 
HETATM   30  C   UNK N   1      26.377  24.934  -4.653  0.00  0.00     0.037 A 
ENDBRANCH  24  25
ENDBRANCH  23  24
ENDBRANCH   2  23
BRANCH   4  31
HETATM   31  O   UNK N   1      30.805  22.964  -1.764  0.00  0.00    -0.391 OA
HETATM   32  H   UNK N   1      31.517  22.904  -1.109  0.00  0.00     0.210 HD
ENDBRANCH   4  31
BRANCH   5  33
HETATM   33  C   UNK N   1      32.516  20.230  -6.651  0.00  0.00     0.147 C 
BRANCH  33  34
HETATM   34  C   UNK N   1      33.632  19.899  -7.581  0.00  0.00    -0.044 A 
HETATM   35  C   UNK N   1      33.821  18.597  -8.062  0.00  0.00     0.008 A 
HETATM   36  C   UNK N   1      34.881  18.327  -8.935  0.00  0.00     0.001 A 
HETATM   37  C   UNK N   1      35.743  19.356  -9.334  0.00  0.00     0.000 A 
HETATM   38  C   UNK N   1      35.545  20.656  -8.861  0.00  0.00     0.001 A 
HETATM   39  C   UNK N   1      34.491  20.926  -7.987  0.00  0.00     0.008 A 
ENDBRANCH  33  34
ENDBRANCH   5  33
BRANCH   3  40
HETATM   40  O   UNK N   1      32.619  21.194  -1.996  0.00  0.00    -0.391 OA
HETATM   41  H   UNK N   1      32.100  20.496  -1.568  0.00  0.00     0.210 HD
ENDBRANCH   3  40
BRANCH   1  42
HETATM   42  C   UNK N   1      33.750  19.885  -4.027  0.00  0.00     0.199 C 
BRANCH  42  43
HETATM   43  O   UNK N   1      34.974  20.526  -4.013  0.00  0.00    -0.349 OA
BRANCH  43  44
HETATM   44  C   UNK N   1      35.999  20.157  -4.815  0.00  0.00     0.068 A 
HETATM   45  C   UNK N   1      36.932  21.122  -5.217  0.00  0.00     0.037 A 
HETATM   46  C   UNK N   1      38.031  20.756  -6.003  0.00  0.00     0.003 A 
HETATM   47  C   UNK N   1      38.192  19.429  -6.407  0.00  0.00     0.000 A 
HETATM   48  C   UNK N   1      37.256  18.464  -6.025  0.00  0.00     0.003 A 
HETATM   49  C   UNK N   1      36.167  18.822  -5.224  0.00  0.00     0.037 A 
ENDBRANCH  43  44
ENDBRANCH  42  43
ENDBRANCH   1  42
TORSDOF 14
ENDMDL
MODEL 8
REMARK VINA RESULT:      -6.4      2.415      9.450
REMARK  14 active torsions:
REMARK  status: ('A' for Active; 'I' for Inactive)
REMARK    1  A    between atoms: C_25  and  C_21 
REMARK    2  A    between atoms: N_37  and  C_21 
REMARK    3  A    between atoms: C_26  and  C_22 
REMARK    4  A    between atoms: N_38  and  C_22 
REMARK    5  A    between atoms: C_30  and  C_23 
REMARK    6  A    between atoms: O_44  and  C_23 
REMARK    7  A    between atoms: C_31  and  C_24 
REMARK    8  A    between atoms: O_45  and  C_24 
REMARK    9  A    between atoms: C_34  and  C_27 
REMARK   10  A    between atoms: O_44  and  C_28 
REMARK   11  A    between atoms: O_45  and  C_29 
REMARK   12  A    between atoms: C_32  and  O_39 
REMARK   13  A    between atoms: C_33  and  O_40 
REMARK   14  A    between atoms: O_41  and  C_34 
ROOT
HETATM    1  C   UNK N   1      37.138  12.775  10.396  0.00  0.00     0.131 C 
HETATM    2  C   UNK N   1      35.968  13.747   7.289  0.00  0.00     0.131 C 
HETATM    3  C   UNK N   1      37.681  12.482   8.957  0.00  0.00     0.169 C 
HETATM    4  C   UNK N   1      37.406  13.576   7.877  0.00  0.00     0.169 C 
HETATM    5  N   UNK N   1      35.724  12.430  10.681  0.00  0.00    -0.184 NA
HETATM    6  N   UNK N   1      34.919  14.058   8.279  0.00  0.00    -0.184 NA
HETATM    7  O   UNK N   1      34.588  11.394   8.472  0.00  0.00    -0.194 OA
HETATM    8  O   UNK N   1      33.141  12.768   9.814  0.00  0.00    -0.194 OA
HETATM    9  S   UNK N   1      34.594  12.673   9.324  0.00  0.00     0.284 S 
ENDROOT
BRANCH   6  10
HETATM   10  C   UNK N   1      35.151  15.265   9.085  0.00  0.00     0.147 C 
BRANCH  10  11
HETATM   11  C   UNK N   1      34.148  16.335   8.758  0.00  0.00    -0.043 A 
HETATM   12  C   UNK N   1      34.584  17.657   8.644  0.00  0.00     0.008 A 
HETATM   13  C   UNK N   1      33.700  18.655   8.236  0.00  0.00     0.002 A 
HETATM   14  C   UNK N   1      32.373  18.338   7.945  0.00  0.00     0.016 A 
HETATM   15  C   UNK N   1      31.897  17.028   8.091  0.00  0.00     0.015 A 
HETATM   16  C   UNK N   1      32.803  16.020   8.494  0.00  0.00     0.024 A 
BRANCH  15  17
HETATM   17  C   UNK N   1      30.454  16.760   7.779  0.00  0.00     0.145 C 
HETATM   18  N   UNK N   1      29.465  17.149   8.513  0.00  0.00    -0.375 N 
HETATM   19  C   UNK N   1      29.581  17.933   9.718  0.00  0.00     0.148 C 
ATOM     20  HN  UNK N   1      28.527  16.880   8.215  1.00  0.00     0.161 HD
BRANCH  17  21
HETATM   21  O   UNK N   1      30.171  16.086   6.642  0.00  0.00    -0.346 OA
HETATM   22  H   UNK N   1      29.930  15.182   6.682  0.00  0.00     0.219 HD
ENDBRANCH  17  21
ENDBRANCH  15  17
ENDBRANCH  10  11
ENDBRANCH   6  10
BRANCH   2  23
HETATM   23  C   UNK N   1      35.874  14.804   6.159  0.00  0.00     0.199 C 
BRANCH  23  24
HETATM   24  O   UNK N   1      34.990  14.462   5.158  0.00  0.00    -0.349 OA
BRANCH  24  25
HETATM   25  C   UNK N   1      34.098  15.315   4.608  0.00  0.00     0.068 A 
HETATM   26  C   UNK N   1      33.269  14.934   3.538  0.00  0.00     0.037 A 
HETATM   27  C   UNK N   1      32.356  15.844   3.000  0.00  0.00     0.003 A 
HETATM   28  C   UNK N   1      32.264  17.136   3.525  0.00  0.00     0.000 A 
HETATM   29  C   UNK N   1      33.085  17.519   4.589  0.00  0.00     0.003 A 
HETATM   30  C   UNK N   1      34.000  16.610   5.127  0.00  0.00     0.037 A 
ENDBRANCH  24  25
ENDBRANCH  23  24
ENDBRANCH   2  23
BRANCH   4  31
HETATM   31  O   UNK N   1      38.252  13.268   6.803  0.00  0.00    -0.391 OA
HETATM   32  H   UNK N   1      38.962  13.849   6.488  0.00  0.00     0.210 HD
ENDBRANCH   4  31
BRANCH   5  33
HETATM   33  C   UNK N   1      35.339  13.198  11.881  0.00  0.00     0.147 C 
BRANCH  33  34
HETATM   34  C   UNK N   1      34.899  12.385  13.050  0.00  0.00    -0.044 A 
HETATM   35  C   UNK N   1      34.258  11.151  12.883  0.00  0.00     0.008 A 
HETATM   36  C   UNK N   1      33.862  10.417  14.006  0.00  0.00     0.001 A 
HETATM   37  C   UNK N   1      34.114  10.909  15.292  0.00  0.00     0.000 A 
HETATM   38  C   UNK N   1      34.763  12.136  15.456  0.00  0.00     0.001 A 
HETATM   39  C   UNK N   1      35.155  12.871  14.337  0.00  0.00     0.008 A 
ENDBRANCH  33  34
ENDBRANCH   5  33
BRANCH   3  40
HETATM   40  O   UNK N   1      39.080  12.414   9.053  0.00  0.00    -0.391 OA
HETATM   41  H   UNK N   1      39.698  13.160   9.015  0.00  0.00     0.210 HD
ENDBRANCH   3  40
BRANCH   1  42
HETATM   42  C   UNK N   1      38.005  12.081  11.472  0.00  0.00     0.199 C 
BRANCH  42  43
HETATM   43  O   UNK N   1      37.889  10.704  11.488  0.00  0.00    -0.349 OA
BRANCH  43  44
HETATM   44  C   UNK N   1      37.650  10.006  12.622  0.00  0.00     0.068 A 
HETATM   45  C   UNK N   1      38.014  10.564  13.855  0.00  0.00     0.037 A 
HETATM   46  C   UNK N   1      37.731   9.888  15.047  0.00  0.00     0.003 A 
HETATM   47  C   UNK N   1      37.100   8.642  15.012  0.00  0.00     0.000 A 
HETATM   48  C   UNK N   1      36.750   8.071  13.786  0.00  0.00     0.003 A 
HETATM   49  C   UNK N   1      37.014   8.753  12.594  0.00  0.00     0.037 A 
ENDBRANCH  43  44
ENDBRANCH  42  43
ENDBRANCH   1  42
TORSDOF 14
ENDMDL
MODEL 9
REMARK VINA RESULT:      -6.3      5.718      9.267
REMARK  14 active torsions:
REMARK  status: ('A' for Active; 'I' for Inactive)
REMARK    1  A    between atoms: C_25  and  C_21 
REMARK    2  A    between atoms: N_37  and  C_21 
REMARK    3  A    between atoms: C_26  and  C_22 
REMARK    4  A    between atoms: N_38  and  C_22 
REMARK    5  A    between atoms: C_30  and  C_23 
REMARK    6  A    between atoms: O_44  and  C_23 
REMARK    7  A    between atoms: C_31  and  C_24 
REMARK    8  A    between atoms: O_45  and  C_24 
REMARK    9  A    between atoms: C_34  and  C_27 
REMARK   10  A    between atoms: O_44  and  C_28 
REMARK   11  A    between atoms: O_45  and  C_29 
REMARK   12  A    between atoms: C_32  and  O_39 
REMARK   13  A    between atoms: C_33  and  O_40 
REMARK   14  A    between atoms: O_41  and  C_34 
ROOT
HETATM    1  C   UNK N   1      25.817  16.855   3.949  0.00  0.00     0.131 C 
HETATM    2  C   UNK N   1      28.509  16.816   6.120  0.00  0.00     0.131 C 
HETATM    3  C   UNK N   1      26.002  17.496   5.364  0.00  0.00     0.169 C 
HETATM    4  C   UNK N   1      27.457  17.912   5.751  0.00  0.00     0.169 C 
HETATM    5  N   UNK N   1      26.063  15.398   3.815  0.00  0.00    -0.184 NA
HETATM    6  N   UNK N   1      28.771  15.818   5.065  0.00  0.00    -0.184 NA
HETATM    7  O   UNK N   1      26.794  14.388   6.201  0.00  0.00    -0.194 OA
HETATM    8  O   UNK N   1      27.890  13.407   4.299  0.00  0.00    -0.194 OA
HETATM    9  S   UNK N   1      27.382  14.755   4.830  0.00  0.00     0.284 S 
ENDROOT
BRANCH   6  10
HETATM   10  C   UNK N   1      29.223  16.366   3.778  0.00  0.00     0.147 C 
BRANCH  10  11
HETATM   11  C   UNK N   1      30.619  15.912   3.456  0.00  0.00    -0.043 A 
HETATM   12  C   UNK N   1      31.599  16.873   3.202  0.00  0.00     0.008 A 
HETATM   13  C   UNK N   1      32.925  16.490   3.007  0.00  0.00     0.002 A 
HETATM   14  C   UNK N   1      33.277  15.141   3.061  0.00  0.00     0.016 A 
HETATM   15  C   UNK N   1      32.309  14.151   3.273  0.00  0.00     0.015 A 
HETATM   16  C   UNK N   1      30.968  14.550   3.480  0.00  0.00     0.024 A 
BRANCH  15  17
HETATM   17  C   UNK N   1      32.754  12.719   3.300  0.00  0.00     0.145 C 
HETATM   18  N   UNK N   1      32.815  11.954   2.261  0.00  0.00    -0.375 N 
HETATM   19  C   UNK N   1      32.509  12.359   0.911  0.00  0.00     0.148 C 
ATOM     20  HN  UNK N   1      33.102  10.986   2.408  1.00  0.00     0.161 HD
BRANCH  17  21
HETATM   21  O   UNK N   1      33.137  12.202   4.489  0.00  0.00    -0.346 OA
HETATM   22  H   UNK N   1      32.543  12.202   5.213  0.00  0.00     0.219 HD
ENDBRANCH  17  21
ENDBRANCH  15  17
ENDBRANCH  10  11
ENDBRANCH   6  10
BRANCH   2  23
HETATM   23  C   UNK N   1      29.876  17.387   6.576  0.00  0.00     0.199 C 
BRANCH  23  24
HETATM   24  O   UNK N   1      30.654  16.475   7.257  0.00  0.00    -0.349 OA
BRANCH  24  25
HETATM   25  C   UNK N   1      31.959  16.244   6.994  0.00  0.00     0.068 A 
HETATM   26  C   UNK N   1      32.485  14.941   6.940  0.00  0.00     0.037 A 
HETATM   27  C   UNK N   1      33.840  14.743   6.660  0.00  0.00     0.003 A 
HETATM   28  C   UNK N   1      34.675  15.840   6.431  0.00  0.00     0.000 A 
HETATM   29  C   UNK N   1      34.156  17.137   6.482  0.00  0.00     0.003 A 
HETATM   30  C   UNK N   1      32.802  17.336   6.763  0.00  0.00     0.037 A 
ENDBRANCH  24  25
ENDBRANCH  23  24
ENDBRANCH   2  23
BRANCH   4  31
HETATM   31  O   UNK N   1      27.328  18.747   6.869  0.00  0.00    -0.391 OA
HETATM   32  H   UNK N   1      26.527  19.251   7.081  0.00  0.00     0.210 HD
ENDBRANCH   4  31
BRANCH   5  33
HETATM   33  C   UNK N   1      26.279  15.139   2.379  0.00  0.00     0.147 C 
BRANCH  33  34
HETATM   34  C   UNK N   1      25.357  14.146   1.760  0.00  0.00    -0.044 A 
HETATM   35  C   UNK N   1      24.420  14.524   0.790  0.00  0.00     0.008 A 
HETATM   36  C   UNK N   1      23.572  13.561   0.231  0.00  0.00     0.001 A 
HETATM   37  C   UNK N   1      23.667  12.223   0.633  0.00  0.00     0.000 A 
HETATM   38  C   UNK N   1      24.611  11.847   1.592  0.00  0.00     0.001 A 
HETATM   39  C   UNK N   1      25.454  12.807   2.154  0.00  0.00     0.008 A 
ENDBRANCH  33  34
ENDBRANCH   5  33
BRANCH   3  40
HETATM   40  O   UNK N   1      25.272  18.695   5.370  0.00  0.00    -0.391 OA
HETATM   41  H   UNK N   1      24.307  18.783   5.333  0.00  0.00     0.210 HD
ENDBRANCH   3  40
BRANCH   1  42
HETATM   42  C   UNK N   1      24.401  17.132   3.392  0.00  0.00     0.199 C 
BRANCH  42  43
HETATM   43  O   UNK N   1      23.380  16.598   4.154  0.00  0.00    -0.349 OA
BRANCH  43  44
HETATM   44  C   UNK N   1      22.565  15.619   3.698  0.00  0.00     0.068 A 
HETATM   45  C   UNK N   1      22.685  14.329   4.231  0.00  0.00     0.037 A 
HETATM   46  C   UNK N   1      21.820  13.310   3.816  0.00  0.00     0.003 A 
HETATM   47  C   UNK N   1      20.844  13.571   2.851  0.00  0.00     0.000 A 
HETATM   48  C   UNK N   1      20.730  14.851   2.302  0.00  0.00     0.003 A 
HETATM   49  C   UNK N   1      21.580  15.876   2.729  0.00  0.00     0.037 A 
ENDBRANCH  43  44
ENDBRANCH  42  43
ENDBRANCH   1  42
TORSDOF 14
ENDMDL
