MODEL 1
REMARK VINA RESULT:      -4.4      0.000      0.000
REMARK  5 active torsions:
REMARK  status: ('A' for Active; 'I' for Inactive)
REMARK    1  A    between atoms: C_3  and  C_1 
REMARK    2  A    between atoms: C_4  and  C_1 
REMARK    3  A    between atoms: C_5  and  C_4 
REMARK    4  A    between atoms: C_4  and  N_6 
REMARK    5  A    between atoms: O_8  and  C_5 
ROOT
HETATM    1  C   UNK N   1      22.592  11.938  11.172  0.00  0.00     0.175 C 
ENDROOT
BRANCH   1   2
HETATM    2  C   UNK N   1      22.436  13.171  10.284  0.00  0.00     0.069 C 
BRANCH   2   3
HETATM    3  C   UNK N   1      21.164  13.108   9.442  0.00  0.00     0.147 A 
HETATM    4  C   UNK N   1      20.482  14.402   9.231  0.00  0.00     0.200 A 
HETATM    5  O   UNK N   1      20.028  13.474  10.188  0.00  0.00    -0.381 OA
ENDBRANCH   2   3
ENDBRANCH   1   2
BRANCH   1   6
HETATM    6  C   UNK N   1      23.764  12.108  12.102  0.00  0.00     0.163 C 
HETATM    7  O   UNK N   1      23.621  12.009  13.312  0.00  0.00    -0.648 OA
BRANCH   6   8
HETATM    8  O   UNK N   1      24.990  12.340  11.596  0.00  0.00    -0.775 OA
HETATM    9  H   UNK N   1      25.431  11.687  11.089  0.00  0.00     0.167 HD
ENDBRANCH   6   8
ENDBRANCH   1   6
BRANCH   1  10
HETATM   10  N   UNK N   1      21.365  11.725  11.925  0.00  0.00    -0.417 N 
HETATM   11  H   UNK N   1      20.679  11.034  11.619  0.00  0.00     0.150 HD
HETATM   12  H   UNK N   1      21.188  12.270  12.768  0.00  0.00     0.150 HD
ENDBRANCH   1  10
TORSDOF 5
ENDMDL
MODEL 2
REMARK VINA RESULT:      -4.2     10.969     11.662
REMARK  5 active torsions:
REMARK  status: ('A' for Active; 'I' for Inactive)
REMARK    1  A    between atoms: C_3  and  C_1 
REMARK    2  A    between atoms: C_4  and  C_1 
REMARK    3  A    between atoms: C_5  and  C_4 
REMARK    4  A    between atoms: C_4  and  N_6 
REMARK    5  A    between atoms: O_8  and  C_5 
ROOT
HETATM    1  C   UNK N   1      20.147  19.084   2.501  0.00  0.00     0.175 C 
ENDROOT
BRANCH   1   2
HETATM    2  C   UNK N   1      20.874  17.741   2.485  0.00  0.00     0.069 C 
BRANCH   2   3
HETATM    3  C   UNK N   1      20.082  16.675   1.733  0.00  0.00     0.147 A 
HETATM    4  C   UNK N   1      20.896  15.635   1.071  0.00  0.00     0.200 A 
HETATM    5  O   UNK N   1      20.342  16.711   0.351  0.00  0.00    -0.381 OA
ENDBRANCH   2   3
ENDBRANCH   1   2
BRANCH   1   6
HETATM    6  C   UNK N   1      20.747  20.018   1.484  0.00  0.00     0.163 C 
HETATM    7  O   UNK N   1      21.401  20.989   1.836  0.00  0.00    -0.648 OA
BRANCH   6   8
HETATM    8  O   UNK N   1      20.590  19.765   0.172  0.00  0.00    -0.775 OA
HETATM    9  H   UNK N   1      21.280  19.373  -0.327  0.00  0.00     0.167 HD
ENDBRANCH   6   8
ENDBRANCH   1   6
BRANCH   1  10
HETATM   10  N   UNK N   1      18.731  18.872   2.231  0.00  0.00    -0.417 N 
HETATM   11  H   UNK N   1      18.030  19.066   2.946  0.00  0.00     0.150 HD
HETATM   12  H   UNK N   1      18.438  18.527   1.318  0.00  0.00     0.150 HD
ENDBRANCH   1  10
TORSDOF 5
ENDMDL
MODEL 3
REMARK VINA RESULT:      -4.0     10.096     12.036
REMARK  5 active torsions:
REMARK  status: ('A' for Active; 'I' for Inactive)
REMARK    1  A    between atoms: C_3  and  C_1 
REMARK    2  A    between atoms: C_4  and  C_1 
REMARK    3  A    between atoms: C_5  and  C_4 
REMARK    4  A    between atoms: C_4  and  N_6 
REMARK    5  A    between atoms: O_8  and  C_5 
ROOT
HETATM    1  C   UNK N   1      20.571  20.534   2.327  0.00  0.00     0.175 C 
ENDROOT
BRANCH   1   2
HETATM    2  C   UNK N   1      21.922  20.073   2.872  0.00  0.00     0.069 C 
BRANCH   2   3
HETATM    3  C   UNK N   1      21.765  18.992   3.939  0.00  0.00     0.147 A 
HETATM    4  C   UNK N   1      22.951  18.137   4.147  0.00  0.00     0.200 A 
HETATM    5  O   UNK N   1      21.849  17.701   3.387  0.00  0.00    -0.381 OA
ENDBRANCH   2   3
ENDBRANCH   1   2
BRANCH   1   6
HETATM    6  C   UNK N   1      20.745  21.186   0.981  0.00  0.00     0.163 C 
HETATM    7  O   UNK N   1      21.136  20.540   0.019  0.00  0.00    -0.648 OA
BRANCH   6   8
HETATM    8  O   UNK N   1      20.436  22.487   0.824  0.00  0.00    -0.775 OA
HETATM    9  H   UNK N   1      20.816  23.140   1.379  0.00  0.00     0.167 HD
ENDBRANCH   6   8
ENDBRANCH   1   6
BRANCH   1  10
HETATM   10  N   UNK N   1      19.672  19.393   2.233  0.00  0.00    -0.417 N 
HETATM   11  H   UNK N   1      19.661  18.806   1.398  0.00  0.00     0.150 HD
HETATM   12  H   UNK N   1      19.048  19.176   3.009  0.00  0.00     0.150 HD
ENDBRANCH   1  10
TORSDOF 5
ENDMDL
MODEL 4
REMARK VINA RESULT:      -3.9     12.918     13.685
REMARK  5 active torsions:
REMARK  status: ('A' for Active; 'I' for Inactive)
REMARK    1  A    between atoms: C_3  and  C_1 
REMARK    2  A    between atoms: C_4  and  C_1 
REMARK    3  A    between atoms: C_5  and  C_4 
REMARK    4  A    between atoms: C_4  and  N_6 
REMARK    5  A    between atoms: O_8  and  C_5 
ROOT
HETATM    1  C   UNK N   1      33.750  17.443   9.035  0.00  0.00     0.175 C 
ENDROOT
BRANCH   1   2
HETATM    2  C   UNK N   1      34.370  16.050   9.129  0.00  0.00     0.069 C 
BRANCH   2   3
HETATM    3  C   UNK N   1      35.539  16.013  10.111  0.00  0.00     0.147 A 
HETATM    4  C   UNK N   1      35.221  15.469  11.447  0.00  0.00     0.200 A 
HETATM    5  O   UNK N   1      35.316  16.855  11.216  0.00  0.00    -0.381 OA
ENDBRANCH   2   3
ENDBRANCH   1   2
BRANCH   1   6
HETATM    6  C   UNK N   1      34.519  18.295   8.061  0.00  0.00     0.163 C 
HETATM    7  O   UNK N   1      35.250  19.192   8.456  0.00  0.00    -0.648 OA
BRANCH   6   8
HETATM    8  O   UNK N   1      34.426  18.048   6.741  0.00  0.00    -0.775 OA
HETATM    9  H   UNK N   1      35.121  18.284   6.159  0.00  0.00     0.167 HD
ENDBRANCH   6   8
ENDBRANCH   1   6
BRANCH   1  10
HETATM   10  N   UNK N   1      32.357  17.326   8.627  0.00  0.00    -0.417 N 
HETATM   11  H   UNK N   1      31.706  16.748   9.159  0.00  0.00     0.150 HD
HETATM   12  H   UNK N   1      32.028  17.827   7.803  0.00  0.00     0.150 HD
ENDBRANCH   1  10
TORSDOF 5
ENDMDL
MODEL 5
REMARK VINA RESULT:      -3.8     11.491     12.463
REMARK  5 active torsions:
REMARK  status: ('A' for Active; 'I' for Inactive)
REMARK    1  A    between atoms: C_3  and  C_1 
REMARK    2  A    between atoms: C_4  and  C_1 
REMARK    3  A    between atoms: C_5  and  C_4 
REMARK    4  A    between atoms: C_4  and  N_6 
REMARK    5  A    between atoms: O_8  and  C_5 
ROOT
HETATM    1  C   UNK N   1      33.418  17.365   8.742  0.00  0.00     0.175 C 
ENDROOT
BRANCH   1   2
HETATM    2  C   UNK N   1      33.361  15.935   8.210  0.00  0.00     0.069 C 
BRANCH   2   3
HETATM    3  C   UNK N   1      32.014  15.623   7.563  0.00  0.00     0.147 A 
HETATM    4  C   UNK N   1      32.083  14.863   6.298  0.00  0.00     0.200 A 
HETATM    5  O   UNK N   1      31.877  16.255   6.314  0.00  0.00    -0.381 OA
ENDBRANCH   2   3
ENDBRANCH   1   2
BRANCH   1   6
HETATM    6  C   UNK N   1      34.337  18.204   7.894  0.00  0.00     0.163 C 
HETATM    7  O   UNK N   1      34.974  19.125   8.385  0.00  0.00    -0.648 OA
BRANCH   6   8
HETATM    8  O   UNK N   1      34.483  17.919   6.587  0.00  0.00    -0.775 OA
HETATM    9  H   UNK N   1      34.532  18.604   5.949  0.00  0.00     0.167 HD
ENDBRANCH   6   8
ENDBRANCH   1   6
BRANCH   1  10
HETATM   10  N   UNK N   1      32.076  17.930   8.758  0.00  0.00    -0.417 N 
HETATM   11  H   UNK N   1      31.776  18.580   8.031  0.00  0.00     0.150 HD
HETATM   12  H   UNK N   1      31.429  17.673   9.502  0.00  0.00     0.150 HD
ENDBRANCH   1  10
TORSDOF 5
ENDMDL
MODEL 6
REMARK VINA RESULT:      -3.8     11.532     12.791
REMARK  5 active torsions:
REMARK  status: ('A' for Active; 'I' for Inactive)
REMARK    1  A    between atoms: C_3  and  C_1 
REMARK    2  A    between atoms: C_4  and  C_1 
REMARK    3  A    between atoms: C_5  and  C_4 
REMARK    4  A    between atoms: C_4  and  N_6 
REMARK    5  A    between atoms: O_8  and  C_5 
ROOT
HETATM    1  C   UNK N   1      33.907  17.273   9.019  0.00  0.00     0.175 C 
ENDROOT
BRANCH   1   2
HETATM    2  C   UNK N   1      34.292  15.837   8.668  0.00  0.00     0.069 C 
BRANCH   2   3
HETATM    3  C   UNK N   1      33.360  14.822   9.326  0.00  0.00     0.147 A 
HETATM    4  C   UNK N   1      33.287  13.508   8.655  0.00  0.00     0.200 A 
HETATM    5  O   UNK N   1      32.285  14.482   8.484  0.00  0.00    -0.381 OA
ENDBRANCH   2   3
ENDBRANCH   1   2
BRANCH   1   6
HETATM    6  C   UNK N   1      34.572  18.239   8.075  0.00  0.00     0.163 C 
HETATM    7  O   UNK N   1      35.242  19.169   8.501  0.00  0.00    -0.648 OA
BRANCH   6   8
HETATM    8  O   UNK N   1      34.454  18.062   6.746  0.00  0.00    -0.775 OA
HETATM    9  H   UNK N   1      34.984  18.551   6.148  0.00  0.00     0.167 HD
ENDBRANCH   6   8
ENDBRANCH   1   6
BRANCH   1  10
HETATM   10  N   UNK N   1      32.458  17.414   8.961  0.00  0.00    -0.417 N 
HETATM   11  H   UNK N   1      31.857  16.591   8.922  0.00  0.00     0.150 HD
HETATM   12  H   UNK N   1      32.041  18.344   8.961  0.00  0.00     0.150 HD
ENDBRANCH   1  10
TORSDOF 5
ENDMDL
MODEL 7
REMARK VINA RESULT:      -3.8     13.035     13.983
REMARK  5 active torsions:
REMARK  status: ('A' for Active; 'I' for Inactive)
REMARK    1  A    between atoms: C_3  and  C_1 
REMARK    2  A    between atoms: C_4  and  C_1 
REMARK    3  A    between atoms: C_5  and  C_4 
REMARK    4  A    between atoms: C_4  and  N_6 
REMARK    5  A    between atoms: O_8  and  C_5 
ROOT
HETATM    1  C   UNK N   1      35.244  15.203  11.885  0.00  0.00     0.175 C 
ENDROOT
BRANCH   1   2
HETATM    2  C   UNK N   1      36.198  14.204  12.538  0.00  0.00     0.069 C 
BRANCH   2   3
HETATM    3  C   UNK N   1      35.683  13.731  13.895  0.00  0.00     0.147 A 
HETATM    4  C   UNK N   1      35.683  12.267  14.093  0.00  0.00     0.200 A 
HETATM    5  O   UNK N   1      34.507  12.969  13.768  0.00  0.00    -0.381 OA
ENDBRANCH   2   3
ENDBRANCH   1   2
BRANCH   1   6
HETATM    6  C   UNK N   1      36.002  16.138  10.981  0.00  0.00     0.163 C 
HETATM    7  O   UNK N   1      35.479  17.158  10.555  0.00  0.00    -0.648 OA
BRANCH   6   8
HETATM    8  O   UNK N   1      37.281  15.866  10.662  0.00  0.00    -0.775 OA
HETATM    9  H   UNK N   1      37.702  16.306   9.949  0.00  0.00     0.167 HD
ENDBRANCH   6   8
ENDBRANCH   1   6
BRANCH   1  10
HETATM   10  N   UNK N   1      34.224  14.480  11.137  0.00  0.00    -0.417 N 
HETATM   11  H   UNK N   1      34.429  13.570  10.723  0.00  0.00     0.150 HD
HETATM   12  H   UNK N   1      33.296  14.887  11.025  0.00  0.00     0.150 HD
ENDBRANCH   1  10
TORSDOF 5
ENDMDL
MODEL 8
REMARK VINA RESULT:      -3.7     24.834     25.607
REMARK  5 active torsions:
REMARK  status: ('A' for Active; 'I' for Inactive)
REMARK    1  A    between atoms: C_3  and  C_1 
REMARK    2  A    between atoms: C_4  and  C_1 
REMARK    3  A    between atoms: C_5  and  C_4 
REMARK    4  A    between atoms: C_4  and  N_6 
REMARK    5  A    between atoms: O_8  and  C_5 
ROOT
HETATM    1  C   UNK N   1      44.313  23.279   2.838  0.00  0.00     0.175 C 
ENDROOT
BRANCH   1   2
HETATM    2  C   UNK N   1      43.395  22.628   1.806  0.00  0.00     0.069 C 
BRANCH   2   3
HETATM    3  C   UNK N   1      41.921  22.876   2.120  0.00  0.00     0.147 A 
HETATM    4  C   UNK N   1      41.065  23.146   0.947  0.00  0.00     0.200 A 
HETATM    5  O   UNK N   1      41.530  24.183   1.778  0.00  0.00    -0.381 OA
ENDBRANCH   2   3
ENDBRANCH   1   2
BRANCH   1   6
HETATM    6  C   UNK N   1      45.032  24.455   2.232  0.00  0.00     0.163 C 
HETATM    7  O   UNK N   1      46.155  24.762   2.606  0.00  0.00    -0.648 OA
BRANCH   6   8
HETATM    8  O   UNK N   1      44.446  25.158   1.245  0.00  0.00    -0.775 OA
HETATM    9  H   UNK N   1      44.953  25.718   0.690  0.00  0.00     0.167 HD
ENDBRANCH   6   8
ENDBRANCH   1   6
BRANCH   1  10
HETATM   10  N   UNK N   1      43.528  23.696   3.991  0.00  0.00    -0.417 N 
HETATM   11  H   UNK N   1      43.320  23.040   4.745  0.00  0.00     0.150 HD
HETATM   12  H   UNK N   1      43.181  24.653   4.047  0.00  0.00     0.150 HD
ENDBRANCH   1  10
TORSDOF 5
ENDMDL
MODEL 9
REMARK VINA RESULT:      -3.7     13.348     13.649
REMARK  5 active torsions:
REMARK  status: ('A' for Active; 'I' for Inactive)
REMARK    1  A    between atoms: C_3  and  C_1 
REMARK    2  A    between atoms: C_4  and  C_1 
REMARK    3  A    between atoms: C_5  and  C_4 
REMARK    4  A    between atoms: C_4  and  N_6 
REMARK    5  A    between atoms: O_8  and  C_5 
ROOT
HETATM    1  C   UNK N   1      34.929  15.923   9.907  0.00  0.00     0.175 C 
ENDROOT
BRANCH   1   2
HETATM    2  C   UNK N   1      34.720  16.022   8.397  0.00  0.00     0.069 C 
BRANCH   2   3
HETATM    3  C   UNK N   1      33.886  17.243   8.018  0.00  0.00     0.147 A 
HETATM    4  C   UNK N   1      33.802  17.524   6.570  0.00  0.00     0.200 A 
HETATM    5  O   UNK N   1      34.670  18.242   7.414  0.00  0.00    -0.381 OA
ENDBRANCH   2   3
ENDBRANCH   1   2
BRANCH   1   6
HETATM    6  C   UNK N   1      36.198  15.172  10.212  0.00  0.00     0.163 C 
HETATM    7  O   UNK N   1      36.285  13.974   9.987  0.00  0.00    -0.648 OA
BRANCH   6   8
HETATM    8  O   UNK N   1      37.261  15.832  10.710  0.00  0.00    -0.775 OA
HETATM    9  H   UNK N   1      37.152  16.651  11.152  0.00  0.00     0.167 HD
ENDBRANCH   6   8
ENDBRANCH   1   6
BRANCH   1  10
HETATM   10  N   UNK N   1      34.975  17.262  10.478  0.00  0.00    -0.417 N 
HETATM   11  H   UNK N   1      34.115  17.751  10.728  0.00  0.00     0.150 HD
HETATM   12  H   UNK N   1      35.875  17.716  10.631  0.00  0.00     0.150 HD
ENDBRANCH   1  10
TORSDOF 5
ENDMDL
