MODEL 1
REMARK VINA RESULT:      -5.4      0.000      0.000
REMARK  5 active torsions:
REMARK  status: ('A' for Active; 'I' for Inactive)
REMARK    1  A    between atoms: O_1  and  S_2 
REMARK    2  A    between atoms: S_2  and  C_5 
REMARK    3  A    between atoms: C_5  and  C_6 
REMARK    4  A    between atoms: C_6  and  N_7 
REMARK    5  A    between atoms: N_7  and  C_8 
ROOT
HETATM    1  N   UNK N   1      31.730  16.961   9.146  0.00  0.00    -0.416 N 
HETATM    2  H   UNK N   1      32.182  17.423   9.936  0.00  0.00     0.153 HD
ENDROOT
BRANCH   1   3
HETATM    3  C   UNK N   1      32.365  16.047   8.211  0.00  0.00     0.131 C 
BRANCH   3   4
HETATM    4  C   UNK N   1      33.774  16.530   7.930  0.00  0.00     0.174 C 
BRANCH   4   5
HETATM    5  S   UNK N   1      33.890  18.315   8.239  0.00  0.00     0.095 S 
HETATM    6  O   UNK N   1      34.705  17.958   6.983  0.00  0.00    -0.601 OA
HETATM    7  O   UNK N   1      34.650  17.539   9.326  0.00  0.00    -0.601 OA
BRANCH   5   8
HETATM    8  O   UNK N   1      35.319  19.249   8.429  0.00  0.00    -0.296 OA
HETATM    9  H   UNK N   1      35.360  20.211   8.322  0.00  0.00     0.232 HD
ENDBRANCH   5   8
ENDBRANCH   4   5
ENDBRANCH   3   4
ENDBRANCH   1   3
BRANCH   1  10
HETATM   10  C   UNK N   1      30.337  17.100   8.752  0.00  0.00     0.076 C 
HETATM   11  C   UNK N   1      30.264  17.268   7.238  0.00  0.00     0.024 C 
HETATM   12  C   UNK N   1      28.814  17.437   6.794  0.00  0.00     0.002 C 
HETATM   13  C   UNK N   1      28.194  18.650   7.479  0.00  0.00     0.000 C 
HETATM   14  C   UNK N   1      28.259  18.487   8.995  0.00  0.00     0.002 C 
HETATM   15  C   UNK N   1      29.709  18.316   9.440  0.00  0.00     0.024 C 
ENDBRANCH   1  10
TORSDOF 5
ENDMDL
MODEL 2
REMARK VINA RESULT:      -5.1      7.465      9.003
REMARK  5 active torsions:
REMARK  status: ('A' for Active; 'I' for Inactive)
REMARK    1  A    between atoms: O_1  and  S_2 
REMARK    2  A    between atoms: S_2  and  C_5 
REMARK    3  A    between atoms: C_5  and  C_6 
REMARK    4  A    between atoms: C_6  and  N_7 
REMARK    5  A    between atoms: N_7  and  C_8 
ROOT
HETATM    1  N   UNK N   1      37.128  13.752  14.029  0.00  0.00    -0.416 N 
HETATM    2  H   UNK N   1      37.982  13.486  13.539  0.00  0.00     0.153 HD
ENDROOT
BRANCH   1   3
HETATM    3  C   UNK N   1      35.881  14.170  13.412  0.00  0.00     0.131 C 
BRANCH   3   4
HETATM    4  C   UNK N   1      36.184  14.802  12.067  0.00  0.00     0.174 C 
BRANCH   4   5
HETATM    5  S   UNK N   1      34.800  14.524  10.926  0.00  0.00     0.095 S 
HETATM    6  O   UNK N   1      34.929  16.029  11.219  0.00  0.00    -0.601 OA
HETATM    7  O   UNK N   1      34.457  13.971  12.318  0.00  0.00    -0.601 OA
BRANCH   5   8
HETATM    8  O   UNK N   1      33.168  15.017  11.128  0.00  0.00    -0.296 OA
HETATM    9  H   UNK N   1      32.890  15.932  11.292  0.00  0.00     0.232 HD
ENDBRANCH   5   8
ENDBRANCH   4   5
ENDBRANCH   3   4
ENDBRANCH   1   3
BRANCH   1  10
HETATM   10  C   UNK N   1      36.940  13.782  15.471  0.00  0.00     0.076 C 
HETATM   11  C   UNK N   1      35.553  13.241  15.802  0.00  0.00     0.024 C 
HETATM   12  C   UNK N   1      35.317  13.278  17.308  0.00  0.00     0.002 C 
HETATM   13  C   UNK N   1      35.450  14.706  17.825  0.00  0.00     0.000 C 
HETATM   14  C   UNK N   1      36.838  15.253  17.503  0.00  0.00     0.002 C 
HETATM   15  C   UNK N   1      37.077  15.215  15.996  0.00  0.00     0.024 C 
ENDBRANCH   1  10
TORSDOF 5
ENDMDL
MODEL 3
REMARK VINA RESULT:      -5.1     17.409     18.237
REMARK  5 active torsions:
REMARK  status: ('A' for Active; 'I' for Inactive)
REMARK    1  A    between atoms: O_1  and  S_2 
REMARK    2  A    between atoms: S_2  and  C_5 
REMARK    3  A    between atoms: C_5  and  C_6 
REMARK    4  A    between atoms: C_6  and  N_7 
REMARK    5  A    between atoms: N_7  and  C_8 
ROOT
HETATM    1  N   UNK N   1      25.362  25.092  -6.116  0.00  0.00    -0.416 N 
HETATM    2  H   UNK N   1      24.991  24.529  -5.350  0.00  0.00     0.153 HD
ENDROOT
BRANCH   1   3
HETATM    3  C   UNK N   1      25.707  24.612  -7.443  0.00  0.00     0.131 C 
BRANCH   3   4
HETATM    4  C   UNK N   1      26.286  23.216  -7.326  0.00  0.00     0.174 C 
BRANCH   4   5
HETATM    5  S   UNK N   1      25.168  22.014  -8.100  0.00  0.00     0.095 S 
HETATM    6  O   UNK N   1      24.808  23.431  -8.579  0.00  0.00    -0.601 OA
HETATM    7  O   UNK N   1      24.875  22.117  -6.595  0.00  0.00    -0.601 OA
BRANCH   5   8
HETATM    8  O   UNK N   1      23.451  22.010  -8.056  0.00  0.00    -0.296 OA
HETATM    9  H   UNK N   1      22.907  21.207  -8.055  0.00  0.00     0.232 HD
ENDBRANCH   5   8
ENDBRANCH   4   5
ENDBRANCH   3   4
ENDBRANCH   1   3
BRANCH   1  10
HETATM   10  C   UNK N   1      25.640  26.519  -6.076  0.00  0.00     0.076 C 
HETATM   11  C   UNK N   1      27.009  26.776  -6.698  0.00  0.00     0.024 C 
HETATM   12  C   UNK N   1      27.340  28.264  -6.654  0.00  0.00     0.002 C 
HETATM   13  C   UNK N   1      27.327  28.761  -5.212  0.00  0.00     0.000 C 
HETATM   14  C   UNK N   1      25.957  28.513  -4.584  0.00  0.00     0.002 C 
HETATM   15  C   UNK N   1      25.624  27.024  -4.630  0.00  0.00     0.024 C 
ENDBRANCH   1  10
TORSDOF 5
ENDMDL
MODEL 4
REMARK VINA RESULT:      -5.0      7.726      9.352
REMARK  5 active torsions:
REMARK  status: ('A' for Active; 'I' for Inactive)
REMARK    1  A    between atoms: O_1  and  S_2 
REMARK    2  A    between atoms: S_2  and  C_5 
REMARK    3  A    between atoms: C_5  and  C_6 
REMARK    4  A    between atoms: C_6  and  N_7 
REMARK    5  A    between atoms: N_7  and  C_8 
ROOT
HETATM    1  N   UNK N   1      37.010  13.160  13.901  0.00  0.00    -0.416 N 
HETATM    2  H   UNK N   1      37.781  12.901  13.284  0.00  0.00     0.153 HD
ENDROOT
BRANCH   1   3
HETATM    3  C   UNK N   1      35.935  14.086  13.587  0.00  0.00     0.131 C 
BRANCH   3   4
HETATM    4  C   UNK N   1      36.248  14.776  12.274  0.00  0.00     0.174 C 
BRANCH   4   5
HETATM    5  S   UNK N   1      34.924  14.454  11.074  0.00  0.00     0.095 S 
HETATM    6  O   UNK N   1      35.034  15.968  11.322  0.00  0.00    -0.601 OA
HETATM    7  O   UNK N   1      34.513  13.946  12.465  0.00  0.00    -0.601 OA
BRANCH   5   8
HETATM    8  O   UNK N   1      33.282  14.946  11.177  0.00  0.00    -0.296 OA
HETATM    9  H   UNK N   1      32.883  15.353  11.962  0.00  0.00     0.232 HD
ENDBRANCH   5   8
ENDBRANCH   4   5
ENDBRANCH   3   4
ENDBRANCH   1   3
BRANCH   1  10
HETATM   10  C   UNK N   1      36.791  12.669  15.252  0.00  0.00     0.076 C 
HETATM   11  C   UNK N   1      36.751  11.145  15.227  0.00  0.00     0.024 C 
HETATM   12  C   UNK N   1      36.502  10.599  16.629  0.00  0.00     0.002 C 
HETATM   13  C   UNK N   1      35.186  11.140  17.176  0.00  0.00     0.000 C 
HETATM   14  C   UNK N   1      35.220  12.665  17.211  0.00  0.00     0.002 C 
HETATM   15  C   UNK N   1      35.471  13.214  15.809  0.00  0.00     0.024 C 
ENDBRANCH   1  10
TORSDOF 5
ENDMDL
MODEL 5
REMARK VINA RESULT:      -5.0      2.633      3.590
REMARK  5 active torsions:
REMARK  status: ('A' for Active; 'I' for Inactive)
REMARK    1  A    between atoms: O_1  and  S_2 
REMARK    2  A    between atoms: S_2  and  C_5 
REMARK    3  A    between atoms: C_5  and  C_6 
REMARK    4  A    between atoms: C_6  and  N_7 
REMARK    5  A    between atoms: N_7  and  C_8 
ROOT
HETATM    1  N   UNK N   1      32.804  17.327   8.762  0.00  0.00    -0.416 N 
HETATM    2  H   UNK N   1      32.122  17.787   9.366  0.00  0.00     0.153 HD
ENDROOT
BRANCH   1   3
HETATM    3  C   UNK N   1      34.168  16.980   9.120  0.00  0.00     0.131 C 
BRANCH   3   4
HETATM    4  C   UNK N   1      34.146  15.764  10.025  0.00  0.00     0.174 C 
BRANCH   4   5
HETATM    5  S   UNK N   1      35.542  15.827  11.183  0.00  0.00     0.095 S 
HETATM    6  O   UNK N   1      35.490  17.132  10.371  0.00  0.00    -0.601 OA
HETATM    7  O   UNK N   1      35.815  14.792  10.081  0.00  0.00    -0.601 OA
BRANCH   5   8
HETATM    8  O   UNK N   1      37.193  16.112  10.810  0.00  0.00    -0.296 OA
HETATM    9  H   UNK N   1      37.853  15.413  10.684  0.00  0.00     0.232 HD
ENDBRANCH   5   8
ENDBRANCH   4   5
ENDBRANCH   3   4
ENDBRANCH   1   3
BRANCH   1  10
HETATM   10  C   UNK N   1      32.585  16.903   7.389  0.00  0.00     0.076 C 
HETATM   11  C   UNK N   1      33.564  17.639   6.480  0.00  0.00     0.024 C 
HETATM   12  C   UNK N   1      33.347  17.229   5.027  0.00  0.00     0.002 C 
HETATM   13  C   UNK N   1      31.916  17.542   4.603  0.00  0.00     0.000 C 
HETATM   14  C   UNK N   1      30.929  16.804   5.504  0.00  0.00     0.002 C 
HETATM   15  C   UNK N   1      31.147  17.211   6.959  0.00  0.00     0.024 C 
ENDBRANCH   1  10
TORSDOF 5
ENDMDL
MODEL 6
REMARK VINA RESULT:      -4.9     13.953     15.064
REMARK  5 active torsions:
REMARK  status: ('A' for Active; 'I' for Inactive)
REMARK    1  A    between atoms: O_1  and  S_2 
REMARK    2  A    between atoms: S_2  and  C_5 
REMARK    3  A    between atoms: C_5  and  C_6 
REMARK    4  A    between atoms: C_6  and  N_7 
REMARK    5  A    between atoms: N_7  and  C_8 
ROOT
HETATM    1  N   UNK N   1      27.828  24.719  -3.990  0.00  0.00    -0.416 N 
HETATM    2  H   UNK N   1      27.364  23.916  -3.563  0.00  0.00     0.153 HD
ENDROOT
BRANCH   1   3
HETATM    3  C   UNK N   1      29.258  24.976  -4.002  0.00  0.00     0.131 C 
BRANCH   3   4
HETATM    4  C   UNK N   1      29.980  23.718  -4.443  0.00  0.00     0.174 C 
BRANCH   4   5
HETATM    5  S   UNK N   1      30.950  23.045  -3.063  0.00  0.00     0.095 S 
HETATM    6  O   UNK N   1      29.560  22.384  -3.083  0.00  0.00    -0.601 OA
HETATM    7  O   UNK N   1      30.586  24.512  -2.788  0.00  0.00    -0.601 OA
BRANCH   5   8
HETATM    8  O   UNK N   1      30.515  23.013  -1.402  0.00  0.00    -0.296 OA
HETATM    9  H   UNK N   1      29.861  23.604  -0.998  0.00  0.00     0.232 HD
ENDBRANCH   5   8
ENDBRANCH   4   5
ENDBRANCH   3   4
ENDBRANCH   1   3
BRANCH   1  10
HETATM   10  C   UNK N   1      27.176  25.811  -4.695  0.00  0.00     0.076 C 
HETATM   11  C   UNK N   1      26.272  26.560  -3.721  0.00  0.00     0.024 C 
HETATM   12  C   UNK N   1      25.557  27.703  -4.436  0.00  0.00     0.002 C 
HETATM   13  C   UNK N   1      24.729  27.159  -5.596  0.00  0.00     0.000 C 
HETATM   14  C   UNK N   1      25.628  26.413  -6.577  0.00  0.00     0.002 C 
HETATM   15  C   UNK N   1      26.346  25.271  -5.864  0.00  0.00     0.024 C 
ENDBRANCH   1  10
TORSDOF 5
ENDMDL
MODEL 7
REMARK VINA RESULT:      -4.9      6.507      8.000
REMARK  5 active torsions:
REMARK  status: ('A' for Active; 'I' for Inactive)
REMARK    1  A    between atoms: O_1  and  S_2 
REMARK    2  A    between atoms: S_2  and  C_5 
REMARK    3  A    between atoms: C_5  and  C_6 
REMARK    4  A    between atoms: C_6  and  N_7 
REMARK    5  A    between atoms: N_7  and  C_8 
ROOT
HETATM    1  N   UNK N   1      36.938  13.830  12.752  0.00  0.00    -0.416 N 
HETATM    2  H   UNK N   1      37.885  14.167  12.577  0.00  0.00     0.153 HD
ENDROOT
BRANCH   1   3
HETATM    3  C   UNK N   1      35.807  13.943  11.846  0.00  0.00     0.131 C 
BRANCH   3   4
HETATM    4  C   UNK N   1      36.311  14.362  10.479  0.00  0.00     0.174 C 
BRANCH   4   5
HETATM    5  S   UNK N   1      35.439  15.856   9.929  0.00  0.00     0.095 S 
HETATM    6  O   UNK N   1      36.704  16.258  10.707  0.00  0.00    -0.601 OA
HETATM    7  O   UNK N   1      34.626  15.140  11.018  0.00  0.00    -0.601 OA
BRANCH   5   8
HETATM    8  O   UNK N   1      34.894  17.162  10.902  0.00  0.00    -0.296 OA
HETATM    9  H   UNK N   1      34.604  18.018  10.553  0.00  0.00     0.232 HD
ENDBRANCH   5   8
ENDBRANCH   4   5
ENDBRANCH   3   4
ENDBRANCH   1   3
BRANCH   1  10
HETATM   10  C   UNK N   1      36.477  13.151  13.953  0.00  0.00     0.076 C 
HETATM   11  C   UNK N   1      35.040  12.686  13.739  0.00  0.00     0.024 C 
HETATM   12  C   UNK N   1      34.520  11.985  14.990  0.00  0.00     0.002 C 
HETATM   13  C   UNK N   1      34.584  12.931  16.185  0.00  0.00     0.000 C 
HETATM   14  C   UNK N   1      36.020  13.396  16.409  0.00  0.00     0.002 C 
HETATM   15  C   UNK N   1      36.544  14.095  15.157  0.00  0.00     0.024 C 
ENDBRANCH   1  10
TORSDOF 5
ENDMDL
MODEL 8
REMARK VINA RESULT:      -4.8     11.192     12.117
REMARK  5 active torsions:
REMARK  status: ('A' for Active; 'I' for Inactive)
REMARK    1  A    between atoms: O_1  and  S_2 
REMARK    2  A    between atoms: S_2  and  C_5 
REMARK    3  A    between atoms: C_5  and  C_6 
REMARK    4  A    between atoms: C_6  and  N_7 
REMARK    5  A    between atoms: N_7  and  C_8 
ROOT
HETATM    1  N   UNK N   1      21.006  13.822   8.772  0.00  0.00    -0.416 N 
HETATM    2  H   UNK N   1      20.880  13.338   7.883  0.00  0.00     0.153 HD
ENDROOT
BRANCH   1   3
HETATM    3  C   UNK N   1      20.154  14.872   9.305  0.00  0.00     0.131 C 
BRANCH   3   4
HETATM    4  C   UNK N   1      20.528  16.188   8.653  0.00  0.00     0.174 C 
BRANCH   4   5
HETATM    5  S   UNK N   1      19.030  17.143   8.280  0.00  0.00     0.095 S 
HETATM    6  O   UNK N   1      19.969  17.986   9.159  0.00  0.00    -0.601 OA
HETATM    7  O   UNK N   1      18.693  15.978   9.224  0.00  0.00    -0.601 OA
BRANCH   5   8
HETATM    8  O   UNK N   1      17.953  17.873   9.400  0.00  0.00    -0.296 OA
HETATM    9  H   UNK N   1      17.850  18.831   9.514  0.00  0.00     0.232 HD
ENDBRANCH   5   8
ENDBRANCH   4   5
ENDBRANCH   3   4
ENDBRANCH   1   3
BRANCH   1  10
HETATM   10  C   UNK N   1      22.071  13.587   9.734  0.00  0.00     0.076 C 
HETATM   11  C   UNK N   1      23.345  13.215   8.983  0.00  0.00     0.024 C 
HETATM   12  C   UNK N   1      24.479  12.942   9.966  0.00  0.00     0.002 C 
HETATM   13  C   UNK N   1      24.090  11.812  10.913  0.00  0.00     0.000 C 
HETATM   14  C   UNK N   1      22.819  12.179  11.674  0.00  0.00     0.002 C 
HETATM   15  C   UNK N   1      21.684  12.455  10.691  0.00  0.00     0.024 C 
ENDBRANCH   1  10
TORSDOF 5
ENDMDL
MODEL 9
REMARK VINA RESULT:      -4.7      9.607     10.989
REMARK  5 active torsions:
REMARK  status: ('A' for Active; 'I' for Inactive)
REMARK    1  A    between atoms: O_1  and  S_2 
REMARK    2  A    between atoms: S_2  and  C_5 
REMARK    3  A    between atoms: C_5  and  C_6 
REMARK    4  A    between atoms: C_6  and  N_7 
REMARK    5  A    between atoms: N_7  and  C_8 
ROOT
HETATM    1  N   UNK N   1      23.354  18.594   3.795  0.00  0.00    -0.416 N 
HETATM    2  H   UNK N   1      22.862  17.700   3.817  0.00  0.00     0.153 HD
ENDROOT
BRANCH   1   3
HETATM    3  C   UNK N   1      22.850  19.835   3.233  0.00  0.00     0.131 C 
BRANCH   3   4
HETATM    4  C   UNK N   1      21.338  19.762   3.154  0.00  0.00     0.174 C 
BRANCH   4   5
HETATM    5  S   UNK N   1      20.744  20.735   1.741  0.00  0.00     0.095 S 
HETATM    6  O   UNK N   1      20.580  19.236   1.436  0.00  0.00    -0.601 OA
HETATM    7  O   UNK N   1      22.271  20.856   1.863  0.00  0.00    -0.601 OA
BRANCH   5   8
HETATM    8  O   UNK N   1      21.256  20.618   0.106  0.00  0.00    -0.296 OA
HETATM    9  H   UNK N   1      22.118  20.920  -0.219  0.00  0.00     0.232 HD
ENDBRANCH   5   8
ENDBRANCH   4   5
ENDBRANCH   3   4
ENDBRANCH   1   3
BRANCH   1  10
HETATM   10  C   UNK N   1      24.685  18.854   4.319  0.00  0.00     0.076 C 
HETATM   11  C   UNK N   1      25.091  20.279   3.960  0.00  0.00     0.024 C 
HETATM   12  C   UNK N   1      26.494  20.577   4.479  0.00  0.00     0.002 C 
HETATM   13  C   UNK N   1      27.494  19.591   3.885  0.00  0.00     0.000 C 
HETATM   14  C   UNK N   1      27.098  18.161   4.246  0.00  0.00     0.002 C 
HETATM   15  C   UNK N   1      25.693  17.862   3.729  0.00  0.00     0.024 C 
ENDBRANCH   1  10
TORSDOF 5
ENDMDL
