MODEL 1
REMARK VINA RESULT:      -8.8      0.000      0.000
REMARK  13 active torsions:
REMARK  status: ('A' for Active; 'I' for Inactive)
REMARK    1  A    between atoms: C_23  and  C_18 
REMARK    2  A    between atoms: C_29  and  C_18 
REMARK    3  A    between atoms: C_22  and  C_19 
REMARK    4  A    between atoms: N_37  and  C_19 
REMARK    5  A    between atoms: C_26  and  C_20 
REMARK    6  A    between atoms: O_39  and  C_21 
REMARK    7  A    between atoms: C_25  and  C_24 
REMARK    8  A    between atoms: C_32  and  C_27 
REMARK    9  A    between atoms: C_28  and  N_35 
REMARK   10  A    between atoms: C_30  and  C_29 
REMARK   11  A    between atoms: C_29  and  N_33 
REMARK   12  A    between atoms: C_30  and  O_40 
REMARK   13  A    between atoms: O_42  and  C_32 
ROOT
HETATM    1  C   UNK N   1      34.924  15.105   6.759  0.00  0.00     0.135 C 
HETATM    2  N   UNK N   1      35.003  14.543   7.918  0.00  0.00    -0.359 N 
ATOM      3  HN  UNK N   1      35.939  14.535   8.324  1.00  0.00     0.162 HD
ENDROOT
BRANCH   1   4
HETATM    4  C   UNK N   1      33.627  15.422   6.057  0.00  0.00     0.162 C 
BRANCH   4   5
HETATM    5  C   UNK N   1      33.169  16.881   6.275  0.00  0.00     0.072 C 
BRANCH   5   6
HETATM    6  C   UNK N   1      31.849  17.107   6.965  0.00  0.00    -0.055 A 
HETATM    7  C   UNK N   1      31.812  17.677   8.238  0.00  0.00     0.008 A 
HETATM    8  C   UNK N   1      30.580  17.930   8.855  0.00  0.00     0.020 A 
HETATM    9  C   UNK N   1      29.367  17.630   8.203  0.00  0.00     0.051 A 
HETATM   10  C   UNK N   1      29.414  17.073   6.902  0.00  0.00     0.019 A 
HETATM   11  C   UNK N   1      30.649  16.830   6.317  0.00  0.00     0.022 A 
BRANCH   9  12
HETATM   12  C   UNK N   1      28.087  17.909   8.906  0.00  0.00     0.177 C 
HETATM   13  O   UNK N   1      27.588  17.056   9.624  0.00  0.00    -0.646 OA
BRANCH  12  14
HETATM   14  O   UNK N   1      27.455  19.090   8.760  0.00  0.00    -0.773 OA
HETATM   15  H   UNK N   1      27.891  19.896   8.959  0.00  0.00     0.167 HD
ENDBRANCH  12  14
ENDBRANCH   9  12
BRANCH  10  16
HETATM   16  C   UNK N   1      28.205  16.739   6.127  0.00  0.00     0.271 C 
HETATM   17  O   UNK N   1      27.671  15.644   6.233  0.00  0.00    -0.301 OA
ENDBRANCH  10  16
ENDBRANCH   5   6
ENDBRANCH   4   5
BRANCH   4  18
HETATM   18  N   UNK N   1      33.610  15.023   4.650  0.00  0.00    -0.362 N 
HETATM   19  C   UNK N   1      33.161  13.953   4.080  0.00  0.00     0.107 C 
HETATM   20  C   UNK N   1      33.241  13.850   2.597  0.00  0.00     0.097 C 
ATOM     21  HN  UNK N   1      34.022  15.702   4.012  1.00  0.00     0.162 HD
BRANCH  19  22
HETATM   22  O   UNK N   1      32.619  12.938   4.775  0.00  0.00    -0.350 OA
HETATM   23  H   UNK N   1      32.318  13.056   5.655  0.00  0.00     0.219 HD
ENDBRANCH  19  22
ENDBRANCH   4  18
ENDBRANCH   1   4
BRANCH   1  24
HETATM   24  O   UNK N   1      36.071  15.481   6.162  0.00  0.00    -0.348 OA
HETATM   25  H   UNK N   1      36.623  15.431   5.407  0.00  0.00     0.219 HD
ENDBRANCH   1  24
BRANCH   2  26
HETATM   26  C   UNK N   1      33.978  13.916   8.741  0.00  0.00     0.175 C 
HETATM   27  C   UNK N   1      33.560  14.968   9.777  0.00  0.00     0.035 C 
HETATM   28  C   UNK N   1      34.591  15.233  10.891  0.00  0.00     0.004 C 
HETATM   29  C   UNK N   1      36.055  15.265  10.426  0.00  0.00     0.020 C 
HETATM   30  C   UNK N   1      36.630  13.913   9.938  0.00  0.00     0.126 C 
HETATM   31  N   UNK N   1      35.736  12.767  10.143  0.00  0.00    -0.346 N 
HETATM   32  C   UNK N   1      34.515  12.721   9.521  0.00  0.00     0.242 C 
HETATM   33  O   UNK N   1      33.810  11.719   9.637  0.00  0.00    -0.271 OA
BRANCH  31  34
HETATM   34  C   UNK N   1      36.172  11.695  11.027  0.00  0.00     0.164 C 
BRANCH  34  35
HETATM   35  C   UNK N   1      35.821  12.062  12.439  0.00  0.00    -0.040 A 
HETATM   36  C   UNK N   1      36.814  12.627  13.241  0.00  0.00     0.009 A 
HETATM   37  C   UNK N   1      36.658  12.691  14.613  0.00  0.00     0.013 A 
HETATM   38  C   UNK N   1      35.478  12.249  15.213  0.00  0.00    -0.026 A 
HETATM   39  C   UNK N   1      34.434  11.758  14.406  0.00  0.00     0.013 A 
HETATM   40  C   UNK N   1      34.623  11.625  13.021  0.00  0.00     0.009 A 
BRANCH  38  41
HETATM   41  C   UNK N   1      35.368  12.321  16.678  0.00  0.00    -0.026 A 
HETATM   42  C   UNK N   1      35.207  13.550  17.330  0.00  0.00     0.012 A 
HETATM   43  C   UNK N   1      35.180  13.602  18.727  0.00  0.00     0.001 A 
HETATM   44  C   UNK N   1      35.271  12.424  19.477  0.00  0.00     0.000 A 
HETATM   45  C   UNK N   1      35.398  11.193  18.833  0.00  0.00     0.001 A 
HETATM   46  C   UNK N   1      35.467  11.143  17.442  0.00  0.00     0.012 A 
ENDBRANCH  38  41
ENDBRANCH  34  35
ENDBRANCH  31  34
ENDBRANCH   2  26
TORSDOF 13
ENDMDL
MODEL 2
REMARK VINA RESULT:      -8.2      6.058     10.883
REMARK  13 active torsions:
REMARK  status: ('A' for Active; 'I' for Inactive)
REMARK    1  A    between atoms: C_23  and  C_18 
REMARK    2  A    between atoms: C_29  and  C_18 
REMARK    3  A    between atoms: C_22  and  C_19 
REMARK    4  A    between atoms: N_37  and  C_19 
REMARK    5  A    between atoms: C_26  and  C_20 
REMARK    6  A    between atoms: O_39  and  C_21 
REMARK    7  A    between atoms: C_25  and  C_24 
REMARK    8  A    between atoms: C_32  and  C_27 
REMARK    9  A    between atoms: C_28  and  N_35 
REMARK   10  A    between atoms: C_30  and  C_29 
REMARK   11  A    between atoms: C_29  and  N_33 
REMARK   12  A    between atoms: C_30  and  O_40 
REMARK   13  A    between atoms: O_42  and  C_32 
ROOT
HETATM    1  C   UNK N   1      23.448  15.636   6.161  0.00  0.00     0.135 C 
HETATM    2  N   UNK N   1      24.518  15.675   5.440  0.00  0.00    -0.359 N 
ATOM      3  HN  UNK N   1      25.177  14.916   5.614  1.00  0.00     0.162 HD
ENDROOT
BRANCH   1   4
HETATM    4  C   UNK N   1      22.245  16.519   5.944  0.00  0.00     0.162 C 
BRANCH   4   5
HETATM    5  C   UNK N   1      21.537  16.248   4.598  0.00  0.00     0.072 C 
BRANCH   5   6
HETATM    6  C   UNK N   1      21.365  17.405   3.649  0.00  0.00    -0.055 A 
HETATM    7  C   UNK N   1      20.257  17.459   2.803  0.00  0.00     0.008 A 
HETATM    8  C   UNK N   1      20.076  18.561   1.957  0.00  0.00     0.020 A 
HETATM    9  C   UNK N   1      20.993  19.631   1.954  0.00  0.00     0.051 A 
HETATM   10  C   UNK N   1      22.102  19.578   2.832  0.00  0.00     0.019 A 
HETATM   11  C   UNK N   1      22.258  18.473   3.656  0.00  0.00     0.022 A 
BRANCH   9  12
HETATM   12  C   UNK N   1      20.760  20.773   1.030  0.00  0.00     0.177 C 
HETATM   13  O   UNK N   1      20.717  21.912   1.470  0.00  0.00    -0.646 OA
BRANCH  12  14
HETATM   14  O   UNK N   1      20.586  20.577  -0.291  0.00  0.00    -0.773 OA
HETATM   15  H   UNK N   1      21.276  20.226  -0.820  0.00  0.00     0.167 HD
ENDBRANCH  12  14
ENDBRANCH   9  12
BRANCH  10  16
HETATM   16  C   UNK N   1      23.110  20.652   2.920  0.00  0.00     0.271 C 
HETATM   17  O   UNK N   1      24.013  20.737   2.100  0.00  0.00    -0.301 OA
ENDBRANCH  10  16
ENDBRANCH   5   6
ENDBRANCH   4   5
BRANCH   4  18
HETATM   18  N   UNK N   1      21.324  16.544   7.078  0.00  0.00    -0.362 N 
HETATM   19  C   UNK N   1      20.683  17.523   7.627  0.00  0.00     0.107 C 
HETATM   20  C   UNK N   1      19.763  17.227   8.759  0.00  0.00     0.097 C 
ATOM     21  HN  UNK N   1      21.160  15.635   7.511  1.00  0.00     0.162 HD
BRANCH  19  22
HETATM   22  O   UNK N   1      20.810  18.794   7.207  0.00  0.00    -0.350 OA
HETATM   23  H   UNK N   1      21.653  19.192   7.106  0.00  0.00     0.219 HD
ENDBRANCH  19  22
ENDBRANCH   4  18
ENDBRANCH   1   4
BRANCH   1  24
HETATM   24  O   UNK N   1      23.379  14.708   7.135  0.00  0.00    -0.348 OA
HETATM   25  H   UNK N   1      23.779  13.972   7.555  0.00  0.00     0.219 HD
ENDBRANCH   1  24
BRANCH   2  26
HETATM   26  C   UNK N   1      24.942  16.627   4.422  0.00  0.00     0.175 C 
HETATM   27  C   UNK N   1      25.747  15.822   3.394  0.00  0.00     0.035 C 
HETATM   28  C   UNK N   1      27.146  15.379   3.862  0.00  0.00     0.004 C 
HETATM   29  C   UNK N   1      27.222  14.907   5.322  0.00  0.00     0.020 C 
HETATM   30  C   UNK N   1      26.991  16.002   6.391  0.00  0.00     0.126 C 
HETATM   31  N   UNK N   1      26.890  17.362   5.850  0.00  0.00    -0.346 N 
HETATM   32  C   UNK N   1      25.881  17.690   4.982  0.00  0.00     0.242 C 
HETATM   33  O   UNK N   1      25.761  18.853   4.598  0.00  0.00    -0.271 OA
BRANCH  31  34
HETATM   34  C   UNK N   1      27.890  18.344   6.248  0.00  0.00     0.164 C 
BRANCH  34  35
HETATM   35  C   UNK N   1      29.063  17.622   6.844  0.00  0.00    -0.040 A 
HETATM   36  C   UNK N   1      29.168  17.570   8.235  0.00  0.00     0.009 A 
HETATM   37  C   UNK N   1      30.360  17.211   8.837  0.00  0.00     0.013 A 
HETATM   38  C   UNK N   1      31.458  16.833   8.063  0.00  0.00    -0.026 A 
HETATM   39  C   UNK N   1      31.337  16.797   6.661  0.00  0.00     0.013 A 
HETATM   40  C   UNK N   1      30.150  17.233   6.051  0.00  0.00     0.009 A 
BRANCH  38  41
HETATM   41  C   UNK N   1      32.710  16.477   8.751  0.00  0.00    -0.026 A 
HETATM   42  C   UNK N   1      32.848  15.248   9.406  0.00  0.00     0.012 A 
HETATM   43  C   UNK N   1      34.018  14.962  10.116  0.00  0.00     0.001 A 
HETATM   44  C   UNK N   1      35.070  15.883  10.140  0.00  0.00     0.000 A 
HETATM   45  C   UNK N   1      34.952  17.097   9.460  0.00  0.00     0.001 A 
HETATM   46  C   UNK N   1      33.770  17.401   8.787  0.00  0.00     0.012 A 
ENDBRANCH  38  41
ENDBRANCH  34  35
ENDBRANCH  31  34
ENDBRANCH   2  26
TORSDOF 13
ENDMDL
MODEL 3
REMARK VINA RESULT:      -8.2      3.190      6.134
REMARK  13 active torsions:
REMARK  status: ('A' for Active; 'I' for Inactive)
REMARK    1  A    between atoms: C_23  and  C_18 
REMARK    2  A    between atoms: C_29  and  C_18 
REMARK    3  A    between atoms: C_22  and  C_19 
REMARK    4  A    between atoms: N_37  and  C_19 
REMARK    5  A    between atoms: C_26  and  C_20 
REMARK    6  A    between atoms: O_39  and  C_21 
REMARK    7  A    between atoms: C_25  and  C_24 
REMARK    8  A    between atoms: C_32  and  C_27 
REMARK    9  A    between atoms: C_28  and  N_35 
REMARK   10  A    between atoms: C_30  and  C_29 
REMARK   11  A    between atoms: C_29  and  N_33 
REMARK   12  A    between atoms: C_30  and  O_40 
REMARK   13  A    between atoms: O_42  and  C_32 
ROOT
HETATM    1  C   UNK N   1      36.166  13.719  12.799  0.00  0.00     0.135 C 
HETATM    2  N   UNK N   1      36.233  12.710  13.601  0.00  0.00    -0.359 N 
ATOM      3  HN  UNK N   1      36.630  12.920  14.517  1.00  0.00     0.162 HD
ENDROOT
BRANCH   1   4
HETATM    4  C   UNK N   1      35.435  13.708  11.480  0.00  0.00     0.162 C 
BRANCH   4   5
HETATM    5  C   UNK N   1      34.441  14.881  11.336  0.00  0.00     0.072 C 
BRANCH   5   6
HETATM    6  C   UNK N   1      34.094  15.341   9.944  0.00  0.00    -0.055 A 
HETATM    7  C   UNK N   1      33.370  14.508   9.090  0.00  0.00     0.008 A 
HETATM    8  C   UNK N   1      33.008  14.959   7.814  0.00  0.00     0.020 A 
HETATM    9  C   UNK N   1      33.353  16.254   7.378  0.00  0.00     0.051 A 
HETATM   10  C   UNK N   1      34.067  17.101   8.260  0.00  0.00     0.019 A 
HETATM   11  C   UNK N   1      34.416  16.626   9.516  0.00  0.00     0.022 A 
BRANCH   9  12
HETATM   12  C   UNK N   1      32.952  16.681   6.011  0.00  0.00     0.177 C 
HETATM   13  O   UNK N   1      33.693  16.463   5.065  0.00  0.00    -0.646 OA
BRANCH  12  14
HETATM   14  O   UNK N   1      31.784  17.316   5.793  0.00  0.00    -0.773 OA
HETATM   15  H   UNK N   1      31.693  18.230   5.978  0.00  0.00     0.167 HD
ENDBRANCH  12  14
ENDBRANCH   9  12
BRANCH  10  16
HETATM   16  C   UNK N   1      34.461  18.477   7.908  0.00  0.00     0.271 C 
HETATM   17  O   UNK N   1      35.275  19.093   8.583  0.00  0.00    -0.301 OA
ENDBRANCH  10  16
ENDBRANCH   5   6
ENDBRANCH   4   5
BRANCH   4  18
HETATM   18  N   UNK N   1      36.316  13.561  10.323  0.00  0.00    -0.362 N 
HETATM   19  C   UNK N   1      37.263  14.319   9.878  0.00  0.00     0.107 C 
HETATM   20  C   UNK N   1      38.030  13.874   8.683  0.00  0.00     0.097 C 
ATOM     21  HN  UNK N   1      36.155  12.717   9.773  1.00  0.00     0.162 HD
BRANCH  19  22
HETATM   22  O   UNK N   1      37.585  15.488  10.461  0.00  0.00    -0.350 OA
HETATM   23  H   UNK N   1      38.426  15.881  10.332  0.00  0.00     0.219 HD
ENDBRANCH  19  22
ENDBRANCH   4  18
ENDBRANCH   1   4
BRANCH   1  24
HETATM   24  O   UNK N   1      36.740  14.873  13.191  0.00  0.00    -0.348 OA
HETATM   25  H   UNK N   1      37.510  15.406  13.210  0.00  0.00     0.219 HD
ENDBRANCH   1  24
BRANCH   2  26
HETATM   26  C   UNK N   1      35.838  11.320  13.413  0.00  0.00     0.175 C 
HETATM   27  C   UNK N   1      34.312  11.286  13.563  0.00  0.00     0.035 C 
HETATM   28  C   UNK N   1      33.793  11.460  15.004  0.00  0.00     0.004 C 
HETATM   29  C   UNK N   1      34.547  12.502  15.844  0.00  0.00     0.020 C 
HETATM   30  C   UNK N   1      36.010  12.141  16.199  0.00  0.00     0.126 C 
HETATM   31  N   UNK N   1      36.408  10.782  15.814  0.00  0.00    -0.346 N 
HETATM   32  C   UNK N   1      36.407  10.408  14.495  0.00  0.00     0.242 C 
HETATM   33  O   UNK N   1      36.818   9.292  14.178  0.00  0.00    -0.271 OA
BRANCH  31  34
HETATM   34  C   UNK N   1      36.790   9.846  16.862  0.00  0.00     0.164 C 
BRANCH  34  35
HETATM   35  C   UNK N   1      35.760   9.899  17.953  0.00  0.00    -0.040 A 
HETATM   36  C   UNK N   1      36.109  10.511  19.159  0.00  0.00     0.009 A 
HETATM   37  C   UNK N   1      35.342  10.316  20.293  0.00  0.00     0.013 A 
HETATM   38  C   UNK N   1      34.172   9.556  20.235  0.00  0.00    -0.026 A 
HETATM   39  C   UNK N   1      33.764   9.007  19.004  0.00  0.00     0.013 A 
HETATM   40  C   UNK N   1      34.583   9.144  17.872  0.00  0.00     0.009 A 
BRANCH  38  41
HETATM   41  C   UNK N   1      33.401   9.363  21.473  0.00  0.00    -0.026 A 
HETATM   42  C   UNK N   1      32.737   8.157  21.728  0.00  0.00     0.012 A 
HETATM   43  C   UNK N   1      31.950   8.022  22.875  0.00  0.00     0.001 A 
HETATM   44  C   UNK N   1      31.854   9.074  23.792  0.00  0.00     0.000 A 
HETATM   45  C   UNK N   1      32.541  10.267  23.560  0.00  0.00     0.001 A 
HETATM   46  C   UNK N   1      33.293  10.418  22.397  0.00  0.00     0.012 A 
ENDBRANCH  38  41
ENDBRANCH  34  35
ENDBRANCH  31  34
ENDBRANCH   2  26
TORSDOF 13
ENDMDL
MODEL 4
REMARK VINA RESULT:      -8.1      7.200     11.935
REMARK  13 active torsions:
REMARK  status: ('A' for Active; 'I' for Inactive)
REMARK    1  A    between atoms: C_23  and  C_18 
REMARK    2  A    between atoms: C_29  and  C_18 
REMARK    3  A    between atoms: C_22  and  C_19 
REMARK    4  A    between atoms: N_37  and  C_19 
REMARK    5  A    between atoms: C_26  and  C_20 
REMARK    6  A    between atoms: O_39  and  C_21 
REMARK    7  A    between atoms: C_25  and  C_24 
REMARK    8  A    between atoms: C_32  and  C_27 
REMARK    9  A    between atoms: C_28  and  N_35 
REMARK   10  A    between atoms: C_30  and  C_29 
REMARK   11  A    between atoms: C_29  and  N_33 
REMARK   12  A    between atoms: C_30  and  O_40 
REMARK   13  A    between atoms: O_42  and  C_32 
ROOT
HETATM    1  C   UNK N   1      28.580  18.373   4.924  0.00  0.00     0.135 C 
HETATM    2  N   UNK N   1      29.713  17.755   4.927  0.00  0.00    -0.359 N 
ATOM      3  HN  UNK N   1      30.441  18.197   4.365  1.00  0.00     0.162 HD
ENDROOT
BRANCH   1   4
HETATM    4  C   UNK N   1      27.426  18.035   5.834  0.00  0.00     0.162 C 
BRANCH   4   5
HETATM    5  C   UNK N   1      26.426  17.049   5.192  0.00  0.00     0.072 C 
BRANCH   5   6
HETATM    6  C   UNK N   1      25.096  17.592   4.738  0.00  0.00    -0.055 A 
HETATM    7  C   UNK N   1      23.911  16.982   5.152  0.00  0.00     0.008 A 
HETATM    8  C   UNK N   1      22.676  17.520   4.768  0.00  0.00     0.020 A 
HETATM    9  C   UNK N   1      22.607  18.684   3.975  0.00  0.00     0.051 A 
HETATM   10  C   UNK N   1      23.814  19.309   3.579  0.00  0.00     0.019 A 
HETATM   11  C   UNK N   1      25.023  18.752   3.972  0.00  0.00     0.022 A 
BRANCH   9  12
HETATM   12  C   UNK N   1      21.271  19.209   3.587  0.00  0.00     0.177 C 
HETATM   13  O   UNK N   1      20.715  18.779   2.588  0.00  0.00    -0.646 OA
BRANCH  12  14
HETATM   14  O   UNK N   1      20.658  20.163   4.315  0.00  0.00    -0.773 OA
HETATM   15  H   UNK N   1      20.068  20.769   3.913  0.00  0.00     0.167 HD
ENDBRANCH  12  14
ENDBRANCH   9  12
BRANCH  10  16
HETATM   16  C   UNK N   1      23.852  20.538   2.765  0.00  0.00     0.271 C 
HETATM   17  O   UNK N   1      24.884  20.900   2.218  0.00  0.00    -0.301 OA
ENDBRANCH  10  16
ENDBRANCH   5   6
ENDBRANCH   4   5
BRANCH   4  18
HETATM   18  N   UNK N   1      27.836  17.637   7.179  0.00  0.00    -0.362 N 
HETATM   19  C   UNK N   1      27.818  18.285   8.297  0.00  0.00     0.107 C 
HETATM   20  C   UNK N   1      28.263  17.586   9.533  0.00  0.00     0.097 C 
ATOM     21  HN  UNK N   1      28.200  16.687   7.246  1.00  0.00     0.162 HD
BRANCH  19  22
HETATM   22  O   UNK N   1      27.403  19.562   8.383  0.00  0.00    -0.350 OA
HETATM   23  H   UNK N   1      27.999  20.276   8.270  0.00  0.00     0.219 HD
ENDBRANCH  19  22
ENDBRANCH   4  18
ENDBRANCH   1   4
BRANCH   1  24
HETATM   24  O   UNK N   1      28.440  19.424   4.093  0.00  0.00    -0.348 OA
HETATM   25  H   UNK N   1      28.839  19.999   3.470  0.00  0.00     0.219 HD
ENDBRANCH   1  24
BRANCH   2  26
HETATM   26  C   UNK N   1      30.123  16.529   5.599  0.00  0.00     0.175 C 
HETATM   27  C   UNK N   1      31.655  16.570   5.665  0.00  0.00     0.035 C 
HETATM   28  C   UNK N   1      32.374  16.325   4.325  0.00  0.00     0.004 C 
HETATM   29  C   UNK N   1      31.717  16.991   3.106  0.00  0.00     0.020 C 
HETATM   30  C   UNK N   1      30.335  16.423   2.699  0.00  0.00     0.126 C 
HETATM   31  N   UNK N   1      29.930  15.226   3.444  0.00  0.00    -0.346 N 
HETATM   32  C   UNK N   1      29.750  15.283   4.802  0.00  0.00     0.242 C 
HETATM   33  O   UNK N   1      29.334  14.293   5.403  0.00  0.00    -0.271 OA
BRANCH  31  34
HETATM   34  C   UNK N   1      29.738  13.983   2.710  0.00  0.00     0.164 C 
BRANCH  34  35
HETATM   35  C   UNK N   1      28.340  13.955   2.166  0.00  0.00    -0.040 A 
HETATM   36  C   UNK N   1      27.642  15.161   2.079  0.00  0.00     0.009 A 
HETATM   37  C   UNK N   1      26.272  15.168   1.895  0.00  0.00     0.013 A 
HETATM   38  C   UNK N   1      25.574  13.972   1.730  0.00  0.00    -0.026 A 
HETATM   39  C   UNK N   1      26.279  12.753   1.728  0.00  0.00     0.013 A 
HETATM   40  C   UNK N   1      27.658  12.744   1.989  0.00  0.00     0.009 A 
BRANCH  38  41
HETATM   41  C   UNK N   1      24.113  14.032   1.556  0.00  0.00    -0.026 A 
HETATM   42  C   UNK N   1      23.460  13.190   0.647  0.00  0.00     0.012 A 
HETATM   43  C   UNK N   1      22.083  13.316   0.444  0.00  0.00     0.001 A 
HETATM   44  C   UNK N   1      21.346  14.252   1.177  0.00  0.00     0.000 A 
HETATM   45  C   UNK N   1      21.985  15.071   2.109  0.00  0.00     0.001 A 
HETATM   46  C   UNK N   1      23.365  14.975   2.283  0.00  0.00     0.012 A 
ENDBRANCH  38  41
ENDBRANCH  34  35
ENDBRANCH  31  34
ENDBRANCH   2  26
TORSDOF 13
ENDMDL
MODEL 5
REMARK VINA RESULT:      -8.1     16.441     21.016
REMARK  13 active torsions:
REMARK  status: ('A' for Active; 'I' for Inactive)
REMARK    1  A    between atoms: C_23  and  C_18 
REMARK    2  A    between atoms: C_29  and  C_18 
REMARK    3  A    between atoms: C_22  and  C_19 
REMARK    4  A    between atoms: N_37  and  C_19 
REMARK    5  A    between atoms: C_26  and  C_20 
REMARK    6  A    between atoms: O_39  and  C_21 
REMARK    7  A    between atoms: C_25  and  C_24 
REMARK    8  A    between atoms: C_32  and  C_27 
REMARK    9  A    between atoms: C_28  and  N_35 
REMARK   10  A    between atoms: C_30  and  C_29 
REMARK   11  A    between atoms: C_29  and  N_33 
REMARK   12  A    between atoms: C_30  and  O_40 
REMARK   13  A    between atoms: O_42  and  C_32 
ROOT
HETATM    1  C   UNK N   1      30.375  28.361  -3.813  0.00  0.00     0.135 C 
HETATM    2  N   UNK N   1      29.377  29.133  -4.082  0.00  0.00    -0.359 N 
ATOM      3  HN  UNK N   1      28.901  29.514  -3.264  1.00  0.00     0.162 HD
ENDROOT
BRANCH   1   4
HETATM    4  C   UNK N   1      31.355  27.851  -4.840  0.00  0.00     0.162 C 
BRANCH   4   5
HETATM    5  C   UNK N   1      30.841  26.602  -5.589  0.00  0.00     0.072 C 
BRANCH   5   6
HETATM    6  C   UNK N   1      31.184  25.250  -5.020  0.00  0.00    -0.055 A 
HETATM    7  C   UNK N   1      32.307  24.560  -5.478  0.00  0.00     0.008 A 
HETATM    8  C   UNK N   1      32.649  23.325  -4.911  0.00  0.00     0.020 A 
HETATM    9  C   UNK N   1      31.881  22.769  -3.868  0.00  0.00     0.051 A 
HETATM   10  C   UNK N   1      30.757  23.487  -3.393  0.00  0.00     0.019 A 
HETATM   11  C   UNK N   1      30.440  24.706  -3.976  0.00  0.00     0.022 A 
BRANCH   9  12
HETATM   12  C   UNK N   1      32.282  21.451  -3.306  0.00  0.00     0.177 C 
HETATM   13  O   UNK N   1      32.174  20.443  -3.986  0.00  0.00    -0.646 OA
BRANCH  12  14
HETATM   14  O   UNK N   1      32.757  21.344  -2.050  0.00  0.00    -0.773 OA
HETATM   15  H   UNK N   1      33.643  21.575  -1.851  0.00  0.00     0.167 HD
ENDBRANCH  12  14
ENDBRANCH   9  12
BRANCH  10  16
HETATM   16  C   UNK N   1      29.900  23.003  -2.296  0.00  0.00     0.271 C 
HETATM   17  O   UNK N   1      30.272  23.060  -1.132  0.00  0.00    -0.301 OA
ENDBRANCH  10  16
ENDBRANCH   5   6
ENDBRANCH   4   5
BRANCH   4  18
HETATM   18  N   UNK N   1      31.857  28.889  -5.738  0.00  0.00    -0.362 N 
HETATM   19  C   UNK N   1      32.735  29.818  -5.551  0.00  0.00     0.107 C 
HETATM   20  C   UNK N   1      33.079  30.713  -6.689  0.00  0.00     0.097 C 
ATOM     21  HN  UNK N   1      31.442  28.879  -6.670  1.00  0.00     0.162 HD
BRANCH  19  22
HETATM   22  O   UNK N   1      33.354  29.999  -4.370  0.00  0.00    -0.350 OA
HETATM   23  H   UNK N   1      33.217  30.774  -3.862  0.00  0.00     0.219 HD
ENDBRANCH  19  22
ENDBRANCH   4  18
ENDBRANCH   1   4
BRANCH   1  24
HETATM   24  O   UNK N   1      30.589  28.034  -2.524  0.00  0.00    -0.348 OA
HETATM   25  H   UNK N   1      30.614  27.361  -1.872  0.00  0.00     0.219 HD
ENDBRANCH   1  24
BRANCH   2  26
HETATM   26  C   UNK N   1      28.817  29.549  -5.361  0.00  0.00     0.175 C 
HETATM   27  C   UNK N   1      28.234  30.950  -5.136  0.00  0.00     0.035 C 
HETATM   28  C   UNK N   1      26.932  30.992  -4.313  0.00  0.00     0.004 C 
HETATM   29  C   UNK N   1      26.889  30.027  -3.119  0.00  0.00     0.020 C 
HETATM   30  C   UNK N   1      26.850  28.521  -3.479  0.00  0.00     0.126 C 
HETATM   31  N   UNK N   1      26.700  28.246  -4.913  0.00  0.00    -0.346 N 
HETATM   32  C   UNK N   1      27.661  28.657  -5.800  0.00  0.00     0.242 C 
HETATM   33  O   UNK N   1      27.562  28.351  -6.989  0.00  0.00    -0.271 OA
BRANCH  31  34
HETATM   34  C   UNK N   1      25.508  27.542  -5.364  0.00  0.00     0.164 C 
BRANCH  34  35
HETATM   35  C   UNK N   1      25.884  26.131  -5.712  0.00  0.00    -0.040 A 
HETATM   36  C   UNK N   1      26.620  25.396  -4.781  0.00  0.00     0.009 A 
HETATM   37  C   UNK N   1      27.262  24.231  -5.156  0.00  0.00     0.013 A 
HETATM   38  C   UNK N   1      27.134  23.738  -6.455  0.00  0.00    -0.026 A 
HETATM   39  C   UNK N   1      26.324  24.424  -7.379  0.00  0.00     0.013 A 
HETATM   40  C   UNK N   1      25.733  25.646  -7.018  0.00  0.00     0.009 A 
BRANCH  38  41
HETATM   41  C   UNK N   1      27.853  22.503  -6.810  0.00  0.00    -0.026 A 
HETATM   42  C   UNK N   1      29.063  22.170  -6.189  0.00  0.00     0.012 A 
HETATM   43  C   UNK N   1      29.766  21.032  -6.594  0.00  0.00     0.001 A 
HETATM   44  C   UNK N   1      29.244  20.200  -7.590  0.00  0.00     0.000 A 
HETATM   45  C   UNK N   1      28.022  20.507  -8.189  0.00  0.00     0.001 A 
HETATM   46  C   UNK N   1      27.340  21.664  -7.815  0.00  0.00     0.012 A 
ENDBRANCH  38  41
ENDBRANCH  34  35
ENDBRANCH  31  34
ENDBRANCH   2  26
TORSDOF 13
ENDMDL
MODEL 6
REMARK VINA RESULT:      -8.1      2.304      3.182
REMARK  13 active torsions:
REMARK  status: ('A' for Active; 'I' for Inactive)
REMARK    1  A    between atoms: C_23  and  C_18 
REMARK    2  A    between atoms: C_29  and  C_18 
REMARK    3  A    between atoms: C_22  and  C_19 
REMARK    4  A    between atoms: N_37  and  C_19 
REMARK    5  A    between atoms: C_26  and  C_20 
REMARK    6  A    between atoms: O_39  and  C_21 
REMARK    7  A    between atoms: C_25  and  C_24 
REMARK    8  A    between atoms: C_32  and  C_27 
REMARK    9  A    between atoms: C_28  and  N_35 
REMARK   10  A    between atoms: C_30  and  C_29 
REMARK   11  A    between atoms: C_29  and  N_33 
REMARK   12  A    between atoms: C_30  and  O_40 
REMARK   13  A    between atoms: O_42  and  C_32 
ROOT
HETATM    1  C   UNK N   1      32.751  14.675   8.983  0.00  0.00     0.135 C 
HETATM    2  N   UNK N   1      33.971  14.254   8.961  0.00  0.00    -0.359 N 
ATOM      3  HN  UNK N   1      34.077  13.249   9.098  1.00  0.00     0.162 HD
ENDROOT
BRANCH   1   4
HETATM    4  C   UNK N   1      32.328  16.071   8.601  0.00  0.00     0.162 C 
BRANCH   4   5
HETATM    5  C   UNK N   1      30.977  16.481   9.228  0.00  0.00     0.072 C 
BRANCH   5   6
HETATM    6  C   UNK N   1      29.999  17.232   8.362  0.00  0.00    -0.055 A 
HETATM    7  C   UNK N   1      29.155  18.189   8.925  0.00  0.00     0.008 A 
HETATM    8  C   UNK N   1      28.282  18.919   8.108  0.00  0.00     0.020 A 
HETATM    9  C   UNK N   1      28.250  18.712   6.714  0.00  0.00     0.051 A 
HETATM   10  C   UNK N   1      29.127  17.755   6.149  0.00  0.00     0.019 A 
HETATM   11  C   UNK N   1      29.978  17.044   6.983  0.00  0.00     0.022 A 
BRANCH   9  12
HETATM   12  C   UNK N   1      27.298  19.507   5.893  0.00  0.00     0.177 C 
HETATM   13  O   UNK N   1      27.644  20.584   5.433  0.00  0.00    -0.646 OA
BRANCH  12  14
HETATM   14  O   UNK N   1      26.049  19.064   5.650  0.00  0.00    -0.773 OA
HETATM   15  H   UNK N   1      25.629  18.466   6.236  0.00  0.00     0.167 HD
ENDBRANCH  12  14
ENDBRANCH   9  12
BRANCH  10  16
HETATM   16  C   UNK N   1      29.184  17.475   4.702  0.00  0.00     0.271 C 
HETATM   17  O   UNK N   1      30.249  17.241   4.147  0.00  0.00    -0.301 OA
ENDBRANCH  10  16
ENDBRANCH   5   6
ENDBRANCH   4   5
BRANCH   4  18
HETATM   18  N   UNK N   1      33.374  17.075   8.794  0.00  0.00    -0.362 N 
HETATM   19  C   UNK N   1      33.916  17.903   7.964  0.00  0.00     0.107 C 
HETATM   20  C   UNK N   1      34.941  18.854   8.473  0.00  0.00     0.097 C 
ATOM     21  HN  UNK N   1      33.737  17.129   9.745  1.00  0.00     0.162 HD
BRANCH  19  22
HETATM   22  O   UNK N   1      33.582  17.941   6.661  0.00  0.00    -0.350 OA
HETATM   23  H   UNK N   1      34.195  17.701   5.994  0.00  0.00     0.219 HD
ENDBRANCH  19  22
ENDBRANCH   4  18
ENDBRANCH   1   4
BRANCH   1  24
HETATM   24  O   UNK N   1      31.787  13.795   9.316  0.00  0.00    -0.348 OA
HETATM   25  H   UNK N   1      31.043  13.297   9.041  0.00  0.00     0.219 HD
ENDBRANCH   1  24
BRANCH   2  26
HETATM   26  C   UNK N   1      35.221  14.978   8.776  0.00  0.00     0.175 C 
HETATM   27  C   UNK N   1      35.858  14.412   7.500  0.00  0.00     0.035 C 
HETATM   28  C   UNK N   1      36.453  12.997   7.639  0.00  0.00     0.004 C 
HETATM   29  C   UNK N   1      35.619  12.024   8.486  0.00  0.00     0.020 C 
HETATM   30  C   UNK N   1      35.535  12.356   9.996  0.00  0.00     0.126 C 
HETATM   31  N   UNK N   1      36.398  13.464  10.420  0.00  0.00    -0.346 N 
HETATM   32  C   UNK N   1      36.208  14.723   9.911  0.00  0.00     0.242 C 
HETATM   33  O   UNK N   1      36.886  15.660  10.333  0.00  0.00    -0.271 OA
BRANCH  31  34
HETATM   34  C   UNK N   1      37.459  13.192  11.379  0.00  0.00     0.164 C 
BRANCH  34  35
HETATM   35  C   UNK N   1      36.838  12.793  12.686  0.00  0.00    -0.040 A 
HETATM   36  C   UNK N   1      36.114  13.755  13.392  0.00  0.00     0.009 A 
HETATM   37  C   UNK N   1      35.794  13.556  14.723  0.00  0.00     0.013 A 
HETATM   38  C   UNK N   1      36.135  12.364  15.363  0.00  0.00    -0.026 A 
HETATM   39  C   UNK N   1      36.788  11.350  14.636  0.00  0.00     0.013 A 
HETATM   40  C   UNK N   1      37.177  11.584  13.307  0.00  0.00     0.009 A 
BRANCH  38  41
HETATM   41  C   UNK N   1      35.788  12.209  16.785  0.00  0.00    -0.026 A 
HETATM   42  C   UNK N   1      35.360  13.303  17.546  0.00  0.00     0.012 A 
HETATM   43  C   UNK N   1      35.108  13.148  18.912  0.00  0.00     0.001 A 
HETATM   44  C   UNK N   1      35.242  11.893  19.515  0.00  0.00     0.000 A 
HETATM   45  C   UNK N   1      35.636  10.791  18.754  0.00  0.00     0.001 A 
HETATM   46  C   UNK N   1      35.927  10.952  17.401  0.00  0.00     0.012 A 
ENDBRANCH  38  41
ENDBRANCH  34  35
ENDBRANCH  31  34
ENDBRANCH   2  26
TORSDOF 13
ENDMDL
MODEL 7
REMARK VINA RESULT:      -7.9      2.232      3.557
REMARK  13 active torsions:
REMARK  status: ('A' for Active; 'I' for Inactive)
REMARK    1  A    between atoms: C_23  and  C_18 
REMARK    2  A    between atoms: C_29  and  C_18 
REMARK    3  A    between atoms: C_22  and  C_19 
REMARK    4  A    between atoms: N_37  and  C_19 
REMARK    5  A    between atoms: C_26  and  C_20 
REMARK    6  A    between atoms: O_39  and  C_21 
REMARK    7  A    between atoms: C_25  and  C_24 
REMARK    8  A    between atoms: C_32  and  C_27 
REMARK    9  A    between atoms: C_28  and  N_35 
REMARK   10  A    between atoms: C_30  and  C_29 
REMARK   11  A    between atoms: C_29  and  N_33 
REMARK   12  A    between atoms: C_30  and  O_40 
REMARK   13  A    between atoms: O_42  and  C_32 
ROOT
HETATM    1  C   UNK N   1      32.103  15.285   9.520  0.00  0.00     0.135 C 
HETATM    2  N   UNK N   1      32.969  14.362   9.272  0.00  0.00    -0.359 N 
ATOM      3  HN  UNK N   1      32.860  13.515   9.830  1.00  0.00     0.162 HD
ENDROOT
BRANCH   1   4
HETATM    4  C   UNK N   1      31.929  16.532   8.690  0.00  0.00     0.162 C 
BRANCH   4   5
HETATM    5  C   UNK N   1      30.548  17.195   8.885  0.00  0.00     0.072 C 
BRANCH   5   6
HETATM    6  C   UNK N   1      29.793  17.621   7.653  0.00  0.00    -0.055 A 
HETATM    7  C   UNK N   1      29.890  16.875   6.478  0.00  0.00     0.008 A 
HETATM    8  C   UNK N   1      29.148  17.248   5.350  0.00  0.00     0.020 A 
HETATM    9  C   UNK N   1      28.287  18.364   5.384  0.00  0.00     0.051 A 
HETATM   10  C   UNK N   1      28.177  19.101   6.588  0.00  0.00     0.019 A 
HETATM   11  C   UNK N   1      28.927  18.711   7.689  0.00  0.00     0.022 A 
BRANCH   9  12
HETATM   12  C   UNK N   1      27.528  18.723   4.156  0.00  0.00     0.177 C 
HETATM   13  O   UNK N   1      26.600  18.020   3.789  0.00  0.00    -0.646 OA
BRANCH  12  14
HETATM   14  O   UNK N   1      27.852  19.810   3.430  0.00  0.00    -0.773 OA
HETATM   15  H   UNK N   1      27.953  20.648   3.838  0.00  0.00     0.167 HD
ENDBRANCH  12  14
ENDBRANCH   9  12
BRANCH  10  16
HETATM   16  C   UNK N   1      27.294  20.273   6.734  0.00  0.00     0.271 C 
HETATM   17  O   UNK N   1      26.740  20.516   7.797  0.00  0.00    -0.301 OA
ENDBRANCH  10  16
ENDBRANCH   5   6
ENDBRANCH   4   5
BRANCH   4  18
HETATM   18  N   UNK N   1      33.038  17.477   8.813  0.00  0.00    -0.362 N 
HETATM   19  C   UNK N   1      33.806  18.003   7.916  0.00  0.00     0.107 C 
HETATM   20  C   UNK N   1      34.835  18.988   8.347  0.00  0.00     0.097 C 
ATOM     21  HN  UNK N   1      33.241  17.770   9.768  1.00  0.00     0.162 HD
BRANCH  19  22
HETATM   22  O   UNK N   1      33.701  17.699   6.609  0.00  0.00    -0.350 OA
HETATM   23  H   UNK N   1      34.460  17.512   6.091  0.00  0.00     0.219 HD
ENDBRANCH  19  22
ENDBRANCH   4  18
ENDBRANCH   1   4
BRANCH   1  24
HETATM   24  O   UNK N   1      31.263  15.098  10.557  0.00  0.00    -0.348 OA
HETATM   25  H   UNK N   1      31.091  15.227  11.469  0.00  0.00     0.219 HD
ENDBRANCH   1  24
BRANCH   2  26
HETATM   26  C   UNK N   1      34.077  14.330   8.327  0.00  0.00     0.175 C 
HETATM   27  C   UNK N   1      33.763  13.200   7.338  0.00  0.00     0.035 C 
HETATM   28  C   UNK N   1      33.925  11.775   7.901  0.00  0.00     0.004 C 
HETATM   29  C   UNK N   1      33.431  11.587   9.343  0.00  0.00     0.020 C 
HETATM   30  C   UNK N   1      34.249  12.326  10.430  0.00  0.00     0.126 C 
HETATM   31  N   UNK N   1      35.471  12.969   9.934  0.00  0.00    -0.346 N 
HETATM   32  C   UNK N   1      35.398  13.970   9.000  0.00  0.00     0.242 C 
HETATM   33  O   UNK N   1      36.423  14.554   8.651  0.00  0.00    -0.271 OA
BRANCH  31  34
HETATM   34  C   UNK N   1      36.755  12.510  10.448  0.00  0.00     0.164 C 
BRANCH  34  35
HETATM   35  C   UNK N   1      36.742  12.617  11.945  0.00  0.00    -0.040 A 
HETATM   36  C   UNK N   1      36.831  11.441  12.691  0.00  0.00     0.009 A 
HETATM   37  C   UNK N   1      36.508  11.435  14.034  0.00  0.00     0.013 A 
HETATM   38  C   UNK N   1      36.149  12.618  14.682  0.00  0.00    -0.026 A 
HETATM   39  C   UNK N   1      36.139  13.826  13.960  0.00  0.00     0.013 A 
HETATM   40  C   UNK N   1      36.396  13.817  12.579  0.00  0.00     0.009 A 
BRANCH  38  41
HETATM   41  C   UNK N   1      35.796  12.556  16.109  0.00  0.00    -0.026 A 
HETATM   42  C   UNK N   1      35.497  13.719  16.829  0.00  0.00     0.012 A 
HETATM   43  C   UNK N   1      35.237  13.644  18.201  0.00  0.00     0.001 A 
HETATM   44  C   UNK N   1      35.234  12.405  18.850  0.00  0.00     0.000 A 
HETATM   45  C   UNK N   1      35.498  11.238  18.131  0.00  0.00     0.001 A 
HETATM   46  C   UNK N   1      35.798  11.315  16.773  0.00  0.00     0.012 A 
ENDBRANCH  38  41
ENDBRANCH  34  35
ENDBRANCH  31  34
ENDBRANCH   2  26
TORSDOF 13
ENDMDL
MODEL 8
REMARK VINA RESULT:      -7.9      6.780     10.849
REMARK  13 active torsions:
REMARK  status: ('A' for Active; 'I' for Inactive)
REMARK    1  A    between atoms: C_23  and  C_18 
REMARK    2  A    between atoms: C_29  and  C_18 
REMARK    3  A    between atoms: C_22  and  C_19 
REMARK    4  A    between atoms: N_37  and  C_19 
REMARK    5  A    between atoms: C_26  and  C_20 
REMARK    6  A    between atoms: O_39  and  C_21 
REMARK    7  A    between atoms: C_25  and  C_24 
REMARK    8  A    between atoms: C_32  and  C_27 
REMARK    9  A    between atoms: C_28  and  N_35 
REMARK   10  A    between atoms: C_30  and  C_29 
REMARK   11  A    between atoms: C_29  and  N_33 
REMARK   12  A    between atoms: C_30  and  O_40 
REMARK   13  A    between atoms: O_42  and  C_32 
ROOT
HETATM    1  C   UNK N   1      29.162  18.097   5.153  0.00  0.00     0.135 C 
HETATM    2  N   UNK N   1      30.405  17.750   5.151  0.00  0.00    -0.359 N 
ATOM      3  HN  UNK N   1      31.016  18.360   4.607  1.00  0.00     0.162 HD
ENDROOT
BRANCH   1   4
HETATM    4  C   UNK N   1      28.111  17.482   6.043  0.00  0.00     0.162 C 
BRANCH   4   5
HETATM    5  C   UNK N   1      27.448  16.237   5.415  0.00  0.00     0.072 C 
BRANCH   5   6
HETATM    6  C   UNK N   1      26.075  15.850   5.902  0.00  0.00    -0.055 A 
HETATM    7  C   UNK N   1      24.942  16.457   5.359  0.00  0.00     0.008 A 
HETATM    8  C   UNK N   1      23.666  16.060   5.781  0.00  0.00     0.020 A 
HETATM    9  C   UNK N   1      23.505  15.040   6.741  0.00  0.00     0.051 A 
HETATM   10  C   UNK N   1      24.659  14.414   7.268  0.00  0.00     0.019 A 
HETATM   11  C   UNK N   1      25.910  14.830   6.835  0.00  0.00     0.022 A 
BRANCH   9  12
HETATM   12  C   UNK N   1      22.129  14.662   7.160  0.00  0.00     0.177 C 
HETATM   13  O   UNK N   1      21.479  15.418   7.867  0.00  0.00    -0.646 OA
BRANCH  12  14
HETATM   14  O   UNK N   1      21.582  13.490   6.783  0.00  0.00    -0.773 OA
HETATM   15  H   UNK N   1      21.181  12.923   7.411  0.00  0.00     0.167 HD
ENDBRANCH  12  14
ENDBRANCH   9  12
BRANCH  10  16
HETATM   16  C   UNK N   1      24.600  13.327   8.263  0.00  0.00     0.271 C 
HETATM   17  O   UNK N   1      25.175  13.424   9.338  0.00  0.00    -0.301 OA
ENDBRANCH  10  16
ENDBRANCH   5   6
ENDBRANCH   4   5
BRANCH   4  18
HETATM   18  N   UNK N   1      28.562  17.257   7.415  0.00  0.00    -0.362 N 
HETATM   19  C   UNK N   1      28.296  17.892   8.508  0.00  0.00     0.107 C 
HETATM   20  C   UNK N   1      28.877  17.390   9.783  0.00  0.00     0.097 C 
ATOM     21  HN  UNK N   1      29.195  16.466   7.528  1.00  0.00     0.162 HD
BRANCH  19  22
HETATM   22  O   UNK N   1      27.508  18.982   8.536  0.00  0.00    -0.350 OA
HETATM   23  H   UNK N   1      27.851  19.836   8.357  0.00  0.00     0.219 HD
ENDBRANCH  19  22
ENDBRANCH   4  18
ENDBRANCH   1   4
BRANCH   1  24
HETATM   24  O   UNK N   1      28.790  19.111   4.348  0.00  0.00    -0.348 OA
HETATM   25  H   UNK N   1      28.758  19.459   3.479  0.00  0.00     0.219 HD
ENDBRANCH   1  24
BRANCH   2  26
HETATM   26  C   UNK N   1      31.079  16.631   5.795  0.00  0.00     0.175 C 
HETATM   27  C   UNK N   1      32.580  16.841   5.556  0.00  0.00     0.035 C 
HETATM   28  C   UNK N   1      33.056  16.572   4.115  0.00  0.00     0.004 C 
HETATM   29  C   UNK N   1      32.105  17.068   3.015  0.00  0.00     0.020 C 
HETATM   30  C   UNK N   1      30.749  16.326   2.920  0.00  0.00     0.126 C 
HETATM   31  N   UNK N   1      30.640  15.153   3.794  0.00  0.00    -0.346 N 
HETATM   32  C   UNK N   1      30.715  15.294   5.156  0.00  0.00     0.242 C 
HETATM   33  O   UNK N   1      30.542  14.315   5.880  0.00  0.00    -0.271 OA
BRANCH  31  34
HETATM   34  C   UNK N   1      30.464  13.844   3.181  0.00  0.00     0.164 C 
BRANCH  34  35
HETATM   35  C   UNK N   1      28.996  13.591   2.996  0.00  0.00    -0.040 A 
HETATM   36  C   UNK N   1      28.304  14.374   2.070  0.00  0.00     0.009 A 
HETATM   37  C   UNK N   1      26.922  14.416   2.080  0.00  0.00     0.013 A 
HETATM   38  C   UNK N   1      26.195  13.629   2.974  0.00  0.00    -0.026 A 
HETATM   39  C   UNK N   1      26.880  12.770   3.854  0.00  0.00     0.013 A 
HETATM   40  C   UNK N   1      28.284  12.784   3.893  0.00  0.00     0.009 A 
BRANCH  38  41
HETATM   41  C   UNK N   1      24.727  13.724   2.957  0.00  0.00    -0.026 A 
HETATM   42  C   UNK N   1      24.078  14.728   2.230  0.00  0.00     0.012 A 
HETATM   43  C   UNK N   1      22.686  14.845   2.288  0.00  0.00     0.001 A 
HETATM   44  C   UNK N   1      21.934  13.935   3.038  0.00  0.00     0.000 A 
HETATM   45  C   UNK N   1      22.572  12.910   3.738  0.00  0.00     0.001 A 
HETATM   46  C   UNK N   1      23.963  12.817   3.715  0.00  0.00     0.012 A 
ENDBRANCH  38  41
ENDBRANCH  34  35
ENDBRANCH  31  34
ENDBRANCH   2  26
TORSDOF 13
ENDMDL
MODEL 9
REMARK VINA RESULT:      -7.9      6.175     10.949
REMARK  13 active torsions:
REMARK  status: ('A' for Active; 'I' for Inactive)
REMARK    1  A    between atoms: C_23  and  C_18 
REMARK    2  A    between atoms: C_29  and  C_18 
REMARK    3  A    between atoms: C_22  and  C_19 
REMARK    4  A    between atoms: N_37  and  C_19 
REMARK    5  A    between atoms: C_26  and  C_20 
REMARK    6  A    between atoms: O_39  and  C_21 
REMARK    7  A    between atoms: C_25  and  C_24 
REMARK    8  A    between atoms: C_32  and  C_27 
REMARK    9  A    between atoms: C_28  and  N_35 
REMARK   10  A    between atoms: C_30  and  C_29 
REMARK   11  A    between atoms: C_29  and  N_33 
REMARK   12  A    between atoms: C_30  and  O_40 
REMARK   13  A    between atoms: O_42  and  C_32 
ROOT
HETATM    1  C   UNK N   1      24.097  15.347   6.389  0.00  0.00     0.135 C 
HETATM    2  N   UNK N   1      25.082  16.051   5.944  0.00  0.00    -0.359 N 
ATOM      3  HN  UNK N   1      26.006  15.685   6.175  1.00  0.00     0.162 HD
ENDROOT
BRANCH   1   4
HETATM    4  C   UNK N   1      22.655  15.565   6.005  0.00  0.00     0.162 C 
BRANCH   4   5
HETATM    5  C   UNK N   1      22.173  14.591   4.907  0.00  0.00     0.072 C 
BRANCH   5   6
HETATM    6  C   UNK N   1      21.564  15.182   3.663  0.00  0.00    -0.055 A 
HETATM    7  C   UNK N   1      21.390  14.393   2.525  0.00  0.00     0.008 A 
HETATM    8  C   UNK N   1      20.779  14.934   1.386  0.00  0.00     0.020 A 
HETATM    9  C   UNK N   1      20.320  16.267   1.373  0.00  0.00     0.051 A 
HETATM   10  C   UNK N   1      20.479  17.052   2.540  0.00  0.00     0.019 A 
HETATM   11  C   UNK N   1      21.092  16.492   3.652  0.00  0.00     0.022 A 
BRANCH   9  12
HETATM   12  C   UNK N   1      19.686  16.795   0.135  0.00  0.00     0.177 C 
HETATM   13  O   UNK N   1      20.324  17.518  -0.614  0.00  0.00    -0.646 OA
BRANCH  12  14
HETATM   14  O   UNK N   1      18.409  16.497  -0.176  0.00  0.00    -0.773 OA
HETATM   15  H   UNK N   1      17.904  15.923   0.367  0.00  0.00     0.167 HD
ENDBRANCH  12  14
ENDBRANCH   9  12
BRANCH  10  16
HETATM   16  C   UNK N   1      20.020  18.450   2.636  0.00  0.00     0.271 C 
HETATM   17  O   UNK N   1      18.842  18.714   2.833  0.00  0.00    -0.301 OA
ENDBRANCH  10  16
ENDBRANCH   5   6
ENDBRANCH   4   5
BRANCH   4  18
HETATM   18  N   UNK N   1      21.747  15.630   7.149  0.00  0.00    -0.362 N 
HETATM   19  C   UNK N   1      21.038  16.605   7.613  0.00  0.00     0.107 C 
HETATM   20  C   UNK N   1      20.157  16.352   8.785  0.00  0.00     0.097 C 
ATOM     21  HN  UNK N   1      21.660  14.758   7.670  1.00  0.00     0.162 HD
BRANCH  19  22
HETATM   22  O   UNK N   1      21.061  17.836   7.070  0.00  0.00    -0.350 OA
HETATM   23  H   UNK N   1      20.625  18.019   6.260  0.00  0.00     0.219 HD
ENDBRANCH  19  22
ENDBRANCH   4  18
ENDBRANCH   1   4
BRANCH   1  24
HETATM   24  O   UNK N   1      24.381  14.315   7.207  0.00  0.00    -0.348 OA
HETATM   25  H   UNK N   1      24.875  13.531   7.349  0.00  0.00     0.219 HD
ENDBRANCH   1  24
BRANCH   2  26
HETATM   26  C   UNK N   1      25.093  17.284   5.168  0.00  0.00     0.175 C 
HETATM   27  C   UNK N   1      24.905  16.869   3.703  0.00  0.00     0.035 C 
HETATM   28  C   UNK N   1      26.130  16.200   3.051  0.00  0.00     0.004 C 
HETATM   29  C   UNK N   1      26.891  15.218   3.955  0.00  0.00     0.020 C 
HETATM   30  C   UNK N   1      27.626  15.853   5.161  0.00  0.00     0.126 C 
HETATM   31  N   UNK N   1      27.618  17.321   5.169  0.00  0.00    -0.346 N 
HETATM   32  C   UNK N   1      26.434  18.006   5.252  0.00  0.00     0.242 C 
HETATM   33  O   UNK N   1      26.445  19.234   5.337  0.00  0.00    -0.271 OA
BRANCH  31  34
HETATM   34  C   UNK N   1      28.890  18.023   5.074  0.00  0.00     0.164 C 
BRANCH  34  35
HETATM   35  C   UNK N   1      29.881  17.348   5.977  0.00  0.00    -0.040 A 
HETATM   36  C   UNK N   1      29.696  17.455   7.357  0.00  0.00     0.009 A 
HETATM   37  C   UNK N   1      30.720  17.141   8.230  0.00  0.00     0.013 A 
HETATM   38  C   UNK N   1      31.935  16.652   7.749  0.00  0.00    -0.026 A 
HETATM   39  C   UNK N   1      32.104  16.457   6.365  0.00  0.00     0.013 A 
HETATM   40  C   UNK N   1      31.089  16.847   5.476  0.00  0.00     0.009 A 
BRANCH  38  41
HETATM   41  C   UNK N   1      33.001  16.350   8.718  0.00  0.00    -0.026 A 
HETATM   42  C   UNK N   1      32.986  15.162   9.459  0.00  0.00     0.012 A 
HETATM   43  C   UNK N   1      33.968  14.930  10.427  0.00  0.00     0.001 A 
HETATM   44  C   UNK N   1      34.991  15.862  10.630  0.00  0.00     0.000 A 
HETATM   45  C   UNK N   1      35.031  17.032   9.871  0.00  0.00     0.001 A 
HETATM   46  C   UNK N   1      34.030  17.284   8.934  0.00  0.00     0.012 A 
ENDBRANCH  38  41
ENDBRANCH  34  35
ENDBRANCH  31  34
ENDBRANCH   2  26
TORSDOF 13
ENDMDL
