MODEL 1
REMARK VINA RESULT:      -5.9      0.000      0.000
REMARK  5 active torsions:
REMARK  status: ('A' for Active; 'I' for Inactive)
REMARK    1  A    between atoms: O_1  and  C_2 
REMARK    2  A    between atoms: C_3  and  C_2 
REMARK    3  A    between atoms: C_5  and  N_10 
REMARK    4  A    between atoms: C_6  and  O_7 
REMARK    5  A    between atoms: C_8  and  O_9 
ROOT
HETATM    1  C   UNK N   1      34.310  17.377   9.192  0.00  0.00     0.179 C 
HETATM    2  O   UNK N   1      35.399  16.558   9.478  0.00  0.00    -0.353 OA
HETATM    3  C   UNK N   1      34.805  15.626  10.340  0.00  0.00     0.263 C 
HETATM    4  C   UNK N   1      33.510  15.196   9.659  0.00  0.00     0.198 C 
HETATM    5  C   UNK N   1      33.152  16.451   8.872  0.00  0.00     0.182 C 
ENDROOT
BRANCH   3   6
HETATM    6  N   UNK N   1      35.763  14.575  10.749  0.00  0.00    -0.280 N 
HETATM    7  C   UNK N   1      36.882  14.431   9.984  0.00  0.00     0.100 A 
HETATM    8  C   UNK N   1      37.876  13.518  10.320  0.00  0.00     0.034 A 
HETATM    9  C   UNK N   1      37.720  12.755  11.468  0.00  0.00     0.094 A 
HETATM   10  N   UNK N   1      36.614  12.908  12.234  0.00  0.00    -0.319 N 
HETATM   11  C   UNK N   1      35.631  13.806  11.899  0.00  0.00     0.328 A 
ATOM     12  HN  UNK N   1      36.508  12.343  13.078  1.00  0.00     0.170 HD
HETATM   13  O   UNK N   1      34.667  13.921  12.628  0.00  0.00    -0.246 OA
ENDBRANCH   3   6
BRANCH   4  14
HETATM   14  O   UNK N   1      32.536  14.890  10.615  0.00  0.00    -0.388 OA
HETATM   15  H   UNK N   1      31.874  15.456  11.043  0.00  0.00     0.210 HD
ENDBRANCH   4  14
BRANCH   1  16
HETATM   16  C   UNK N   1      34.625  18.330   8.055  0.00  0.00     0.198 C 
BRANCH  16  17
HETATM   17  O   UNK N   1      35.407  19.383   8.529  0.00  0.00    -0.398 OA
HETATM   18  H   UNK N   1      36.346  19.533   8.334  0.00  0.00     0.209 HD
ENDBRANCH  16  17
ENDBRANCH   1  16
BRANCH   5  19
HETATM   19  O   UNK N   1      31.952  17.032   9.295  0.00  0.00    -0.390 OA
HETATM   20  H   UNK N   1      31.061  16.651   9.329  0.00  0.00     0.210 HD
ENDBRANCH   5  19
TORSDOF 5
ENDMDL
MODEL 2
REMARK VINA RESULT:      -5.7     15.501     17.495
REMARK  5 active torsions:
REMARK  status: ('A' for Active; 'I' for Inactive)
REMARK    1  A    between atoms: O_1  and  C_2 
REMARK    2  A    between atoms: C_3  and  C_2 
REMARK    3  A    between atoms: C_5  and  N_10 
REMARK    4  A    between atoms: C_6  and  O_7 
REMARK    5  A    between atoms: C_8  and  O_9 
ROOT
HETATM    1  C   UNK N   1      31.011  21.007  -4.035  0.00  0.00     0.179 C 
HETATM    2  O   UNK N   1      30.042  21.784  -4.664  0.00  0.00    -0.353 OA
HETATM    3  C   UNK N   1      29.591  22.560  -3.588  0.00  0.00     0.263 C 
HETATM    4  C   UNK N   1      30.846  23.077  -2.893  0.00  0.00     0.198 C 
HETATM    5  C   UNK N   1      31.838  21.958  -3.190  0.00  0.00     0.182 C 
ENDROOT
BRANCH   3   6
HETATM    6  N   UNK N   1      28.572  23.546  -4.016  0.00  0.00    -0.280 N 
HETATM    7  C   UNK N   1      28.632  23.968  -5.311  0.00  0.00     0.100 A 
HETATM    8  C   UNK N   1      27.683  24.841  -5.831  0.00  0.00     0.034 A 
HETATM    9  C   UNK N   1      26.651  25.271  -5.010  0.00  0.00     0.094 A 
HETATM   10  N   UNK N   1      26.585  24.841  -3.728  0.00  0.00    -0.319 N 
HETATM   11  C   UNK N   1      27.526  23.982  -3.214  0.00  0.00     0.328 A 
ATOM     12  HN  UNK N   1      25.822  25.161  -3.131  1.00  0.00     0.170 HD
HETATM   13  O   UNK N   1      27.414  23.609  -2.064  0.00  0.00    -0.246 OA
ENDBRANCH   3   6
BRANCH   4  14
HETATM   14  O   UNK N   1      30.620  23.216  -1.521  0.00  0.00    -0.388 OA
HETATM   15  H   UNK N   1      30.510  24.013  -0.978  0.00  0.00     0.210 HD
ENDBRANCH   4  14
BRANCH   1  16
HETATM   16  C   UNK N   1      31.848  20.249  -5.048  0.00  0.00     0.198 C 
BRANCH  16  17
HETATM   17  O   UNK N   1      32.703  19.371  -4.386  0.00  0.00    -0.398 OA
HETATM   18  H   UNK N   1      32.439  18.629  -3.818  0.00  0.00     0.209 HD
ENDBRANCH  16  17
ENDBRANCH   1  16
BRANCH   5  19
HETATM   19  O   UNK N   1      32.277  21.303  -2.035  0.00  0.00    -0.390 OA
HETATM   20  H   UNK N   1      32.693  20.432  -1.941  0.00  0.00     0.210 HD
ENDBRANCH   5  19
TORSDOF 5
ENDMDL
MODEL 3
REMARK VINA RESULT:      -5.7     13.252     15.302
REMARK  5 active torsions:
REMARK  status: ('A' for Active; 'I' for Inactive)
REMARK    1  A    between atoms: O_1  and  C_2 
REMARK    2  A    between atoms: C_3  and  C_2 
REMARK    3  A    between atoms: C_5  and  N_10 
REMARK    4  A    between atoms: C_6  and  O_7 
REMARK    5  A    between atoms: C_8  and  O_9 
ROOT
HETATM    1  C   UNK N   1      20.548  19.573   2.533  0.00  0.00     0.179 C 
HETATM    2  O   UNK N   1      21.702  19.017   3.080  0.00  0.00    -0.353 OA
HETATM    3  C   UNK N   1      21.146  18.079   3.961  0.00  0.00     0.263 C 
HETATM    4  C   UNK N   1      20.082  17.336   3.161  0.00  0.00     0.198 C 
HETATM    5  C   UNK N   1      19.644  18.410   2.171  0.00  0.00     0.182 C 
ENDROOT
BRANCH   3   6
HETATM    6  N   UNK N   1      22.194  17.283   4.640  0.00  0.00    -0.280 N 
HETATM    7  C   UNK N   1      23.395  17.176   4.003  0.00  0.00     0.100 A 
HETATM    8  C   UNK N   1      24.465  16.507   4.586  0.00  0.00     0.034 A 
HETATM    9  C   UNK N   1      24.299  15.954   5.848  0.00  0.00     0.094 A 
HETATM   10  N   UNK N   1      23.110  16.072   6.485  0.00  0.00    -0.319 N 
HETATM   11  C   UNK N   1      22.053  16.729   5.906  0.00  0.00     0.328 A 
ATOM     12  HN  UNK N   1      22.998  15.664   7.413  1.00  0.00     0.170 HD
HETATM   13  O   UNK N   1      21.012  16.825   6.525  0.00  0.00    -0.246 OA
ENDBRANCH   3   6
BRANCH   4  14
HETATM   14  O   UNK N   1      19.032  16.943   3.996  0.00  0.00    -0.388 OA
HETATM   15  H   UNK N   1      18.210  16.470   3.794  0.00  0.00     0.210 HD
ENDBRANCH   4  14
BRANCH   1  16
HETATM   16  C   UNK N   1      20.876  20.450   1.340  0.00  0.00     0.198 C 
BRANCH  16  17
HETATM   17  O   UNK N   1      20.542  19.784   0.162  0.00  0.00    -0.398 OA
HETATM   18  H   UNK N   1      20.262  20.195  -0.671  0.00  0.00     0.209 HD
ENDBRANCH  16  17
ENDBRANCH   1  16
BRANCH   5  19
HETATM   19  O   UNK N   1      18.306  18.784   2.335  0.00  0.00    -0.390 OA
HETATM   20  H   UNK N   1      17.711  19.232   1.714  0.00  0.00     0.210 HD
ENDBRANCH   5  19
TORSDOF 5
ENDMDL
MODEL 4
REMARK VINA RESULT:      -5.6      2.059      5.639
REMARK  5 active torsions:
REMARK  status: ('A' for Active; 'I' for Inactive)
REMARK    1  A    between atoms: O_1  and  C_2 
REMARK    2  A    between atoms: C_3  and  C_2 
REMARK    3  A    between atoms: C_5  and  N_10 
REMARK    4  A    between atoms: C_6  and  O_7 
REMARK    5  A    between atoms: C_8  and  O_9 
ROOT
HETATM    1  C   UNK N   1      35.506  13.371  13.170  0.00  0.00     0.179 C 
HETATM    2  O   UNK N   1      34.576  14.047  12.384  0.00  0.00    -0.353 OA
HETATM    3  C   UNK N   1      35.427  14.729  11.503  0.00  0.00     0.263 C 
HETATM    4  C   UNK N   1      36.434  13.694  11.014  0.00  0.00     0.198 C 
HETATM    5  C   UNK N   1      36.506  12.753  12.211  0.00  0.00     0.182 C 
ENDROOT
BRANCH   3   6
HETATM    6  N   UNK N   1      34.663  15.493  10.492  0.00  0.00    -0.280 N 
HETATM    7  C   UNK N   1      33.550  14.894   9.979  0.00  0.00     0.100 A 
HETATM    8  C   UNK N   1      32.727  15.554   9.073  0.00  0.00     0.034 A 
HETATM    9  C   UNK N   1      33.046  16.853   8.704  0.00  0.00     0.094 A 
HETATM   10  N   UNK N   1      34.144  17.451   9.223  0.00  0.00    -0.319 N 
HETATM   11  C   UNK N   1      34.959  16.797  10.114  0.00  0.00     0.328 A 
ATOM     12  HN  UNK N   1      34.371  18.407   8.947  1.00  0.00     0.170 HD
HETATM   13  O   UNK N   1      35.922  17.382  10.568  0.00  0.00    -0.246 OA
ENDBRANCH   3   6
BRANCH   4  14
HETATM   14  O   UNK N   1      37.668  14.300  10.759  0.00  0.00    -0.388 OA
HETATM   15  H   UNK N   1      38.163  14.961  11.268  0.00  0.00     0.210 HD
ENDBRANCH   4  14
BRANCH   1  16
HETATM   16  C   UNK N   1      34.830  12.339  14.052  0.00  0.00     0.198 C 
BRANCH  16  17
HETATM   17  O   UNK N   1      34.377  12.946  15.222  0.00  0.00    -0.398 OA
HETATM   18  H   UNK N   1      33.551  12.745  15.691  0.00  0.00     0.209 HD
ENDBRANCH  16  17
ENDBRANCH   1  16
BRANCH   5  19
HETATM   19  O   UNK N   1      37.773  12.726  12.804  0.00  0.00    -0.390 OA
HETATM   20  H   UNK N   1      38.462  12.045  12.754  0.00  0.00     0.210 HD
ENDBRANCH   5  19
TORSDOF 5
ENDMDL
MODEL 5
REMARK VINA RESULT:      -5.5      6.445      9.235
REMARK  5 active torsions:
REMARK  status: ('A' for Active; 'I' for Inactive)
REMARK    1  A    between atoms: O_1  and  C_2 
REMARK    2  A    between atoms: C_3  and  C_2 
REMARK    3  A    between atoms: C_5  and  N_10 
REMARK    4  A    between atoms: C_6  and  O_7 
REMARK    5  A    between atoms: C_8  and  O_9 
ROOT
HETATM    1  C   UNK N   1      30.308  17.153   7.968  0.00  0.00     0.179 C 
HETATM    2  O   UNK N   1      29.785  17.830   6.869  0.00  0.00    -0.353 OA
HETATM    3  C   UNK N   1      28.464  18.030   7.290  0.00  0.00     0.263 C 
HETATM    4  C   UNK N   1      28.558  18.566   8.715  0.00  0.00     0.198 C 
HETATM    5  C   UNK N   1      29.851  17.917   9.196  0.00  0.00     0.182 C 
ENDROOT
BRANCH   3   6
HETATM    6  N   UNK N   1      27.689  18.811   6.299  0.00  0.00    -0.280 N 
HETATM    7  C   UNK N   1      27.611  20.157   6.502  0.00  0.00     0.100 A 
HETATM    8  C   UNK N   1      26.963  20.988   5.594  0.00  0.00     0.034 A 
HETATM    9  C   UNK N   1      26.403  20.426   4.456  0.00  0.00     0.094 A 
HETATM   10  N   UNK N   1      26.493  19.091   4.249  0.00  0.00    -0.319 N 
HETATM   11  C   UNK N   1      27.129  18.270   5.149  0.00  0.00     0.328 A 
ATOM     12  HN  UNK N   1      26.080  18.686   3.409  1.00  0.00     0.170 HD
HETATM   13  O   UNK N   1      27.200  17.081   4.910  0.00  0.00    -0.246 OA
ENDBRANCH   3   6
BRANCH   4  14
HETATM   14  O   UNK N   1      27.457  18.145   9.466  0.00  0.00    -0.388 OA
HETATM   15  H   UNK N   1      26.526  18.415   9.426  0.00  0.00     0.210 HD
ENDBRANCH   4  14
BRANCH   1  16
HETATM   16  C   UNK N   1      31.818  17.045   7.877  0.00  0.00     0.198 C 
BRANCH  16  17
HETATM   17  O   UNK N   1      32.383  17.311   9.123  0.00  0.00    -0.398 OA
HETATM   18  H   UNK N   1      32.722  16.654   9.752  0.00  0.00     0.209 HD
ENDBRANCH  16  17
ENDBRANCH   1  16
BRANCH   5  19
HETATM   19  O   UNK N   1      29.648  17.028  10.256  0.00  0.00    -0.390 OA
HETATM   20  H   UNK N   1      29.381  16.096  10.236  0.00  0.00     0.210 HD
ENDBRANCH   5  19
TORSDOF 5
ENDMDL
MODEL 6
REMARK VINA RESULT:      -5.4      4.003      6.659
REMARK  5 active torsions:
REMARK  status: ('A' for Active; 'I' for Inactive)
REMARK    1  A    between atoms: O_1  and  C_2 
REMARK    2  A    between atoms: C_3  and  C_2 
REMARK    3  A    between atoms: C_5  and  N_10 
REMARK    4  A    between atoms: C_6  and  O_7 
REMARK    5  A    between atoms: C_8  and  O_9 
ROOT
HETATM    1  C   UNK N   1      32.956  16.020   8.884  0.00  0.00     0.179 C 
HETATM    2  O   UNK N   1      32.407  15.827   7.618  0.00  0.00    -0.353 OA
HETATM    3  C   UNK N   1      32.818  17.003   6.975  0.00  0.00     0.263 C 
HETATM    4  C   UNK N   1      34.300  17.158   7.298  0.00  0.00     0.198 C 
HETATM    5  C   UNK N   1      34.383  16.485   8.663  0.00  0.00     0.182 C 
ENDROOT
BRANCH   3   6
HETATM    6  N   UNK N   1      32.407  17.016   5.553  0.00  0.00    -0.280 N 
HETATM    7  C   UNK N   1      33.352  16.660   4.636  0.00  0.00     0.100 A 
HETATM    8  C   UNK N   1      33.050  16.577   3.282  0.00  0.00     0.034 A 
HETATM    9  C   UNK N   1      31.753  16.848   2.869  0.00  0.00     0.094 A 
HETATM   10  N   UNK N   1      30.812  17.188   3.781  0.00  0.00    -0.319 N 
HETATM   11  C   UNK N   1      31.113  17.275   5.118  0.00  0.00     0.328 A 
ATOM     12  HN  UNK N   1      29.861  17.385   3.470  1.00  0.00     0.170 HD
HETATM   13  O   UNK N   1      30.231  17.566   5.901  0.00  0.00    -0.246 OA
ENDBRANCH   3   6
BRANCH   4  14
HETATM   14  O   UNK N   1      34.643  18.512   7.367  0.00  0.00    -0.388 OA
HETATM   15  H   UNK N   1      34.887  19.062   8.128  0.00  0.00     0.210 HD
ENDBRANCH   4  14
BRANCH   1  16
HETATM   16  C   UNK N   1      32.878  14.752   9.713  0.00  0.00     0.198 C 
BRANCH  16  17
HETATM   17  O   UNK N   1      33.116  15.053  11.053  0.00  0.00    -0.398 OA
HETATM   18  H   UNK N   1      32.742  14.592  11.821  0.00  0.00     0.209 HD
ENDBRANCH  16  17
ENDBRANCH   1  16
BRANCH   5  19
HETATM   19  O   UNK N   1      34.753  17.370   9.682  0.00  0.00    -0.390 OA
HETATM   20  H   UNK N   1      34.691  18.338   9.709  0.00  0.00     0.210 HD
ENDBRANCH   5  19
TORSDOF 5
ENDMDL
MODEL 7
REMARK VINA RESULT:      -5.3      3.728      5.716
REMARK  5 active torsions:
REMARK  status: ('A' for Active; 'I' for Inactive)
REMARK    1  A    between atoms: O_1  and  C_2 
REMARK    2  A    between atoms: C_3  and  C_2 
REMARK    3  A    between atoms: C_5  and  N_10 
REMARK    4  A    between atoms: C_6  and  O_7 
REMARK    5  A    between atoms: C_8  and  O_9 
ROOT
HETATM    1  C   UNK N   1      28.846  17.564   7.263  0.00  0.00     0.179 C 
HETATM    2  O   UNK N   1      30.055  16.874   7.302  0.00  0.00    -0.353 OA
HETATM    3  C   UNK N   1      30.653  17.459   8.427  0.00  0.00     0.263 C 
HETATM    4  C   UNK N   1      29.583  17.460   9.513  0.00  0.00     0.198 C 
HETATM    5  C   UNK N   1      28.309  17.563   8.682  0.00  0.00     0.182 C 
ENDROOT
BRANCH   3   6
HETATM    6  N   UNK N   1      31.961  16.838   8.734  0.00  0.00    -0.280 N 
HETATM    7  C   UNK N   1      31.941  15.544   9.165  0.00  0.00     0.100 A 
HETATM    8  C   UNK N   1      33.118  14.848   9.417  0.00  0.00     0.034 A 
HETATM    9  C   UNK N   1      34.330  15.489   9.205  0.00  0.00     0.094 A 
HETATM   10  N   UNK N   1      34.349  16.768   8.764  0.00  0.00    -0.319 N 
HETATM   11  C   UNK N   1      33.186  17.457   8.520  0.00  0.00     0.328 A 
ATOM     12  HN  UNK N   1      35.245  17.231   8.610  1.00  0.00     0.170 HD
HETATM   13  O   UNK N   1      33.254  18.597   8.107  0.00  0.00    -0.246 OA
ENDBRANCH   3   6
BRANCH   4  14
HETATM   14  O   UNK N   1      29.743  18.566  10.353  0.00  0.00    -0.388 OA
HETATM   15  H   UNK N   1      30.543  19.049  10.613  0.00  0.00     0.210 HD
ENDBRANCH   4  14
BRANCH   1  16
HETATM   16  C   UNK N   1      27.886  16.929   6.275  0.00  0.00     0.198 C 
BRANCH  16  17
HETATM   17  O   UNK N   1      26.583  17.331   6.564  0.00  0.00    -0.398 OA
HETATM   18  H   UNK N   1      25.771  16.840   6.357  0.00  0.00     0.209 HD
ENDBRANCH  16  17
ENDBRANCH   1  16
BRANCH   5  19
HETATM   19  O   UNK N   1      27.602  18.746   8.919  0.00  0.00    -0.390 OA
HETATM   20  H   UNK N   1      27.763  19.639   8.576  0.00  0.00     0.210 HD
ENDBRANCH   5  19
TORSDOF 5
ENDMDL
MODEL 8
REMARK VINA RESULT:      -5.2      2.383      5.175
REMARK  5 active torsions:
REMARK  status: ('A' for Active; 'I' for Inactive)
REMARK    1  A    between atoms: O_1  and  C_2 
REMARK    2  A    between atoms: C_3  and  C_2 
REMARK    3  A    between atoms: C_5  and  N_10 
REMARK    4  A    between atoms: C_6  and  O_7 
REMARK    5  A    between atoms: C_8  and  O_9 
ROOT
HETATM    1  C   UNK N   1      35.795  13.500  10.416  0.00  0.00     0.179 C 
HETATM    2  O   UNK N   1      35.763  14.285   9.267  0.00  0.00    -0.353 OA
HETATM    3  C   UNK N   1      34.432  14.725   9.289  0.00  0.00     0.263 C 
HETATM    4  C   UNK N   1      34.177  15.206  10.714  0.00  0.00     0.198 C 
HETATM    5  C   UNK N   1      35.124  14.313  11.508  0.00  0.00     0.182 C 
ENDROOT
BRANCH   3   6
HETATM    6  N   UNK N   1      34.149  15.658   8.175  0.00  0.00    -0.280 N 
HETATM    7  C   UNK N   1      34.177  16.990   8.466  0.00  0.00     0.100 A 
HETATM    8  C   UNK N   1      33.990  17.950   7.478  0.00  0.00     0.034 A 
HETATM    9  C   UNK N   1      33.787  17.531   6.171  0.00  0.00     0.094 A 
HETATM   10  N   UNK N   1      33.772  16.209   5.881  0.00  0.00    -0.319 N 
HETATM   11  C   UNK N   1      33.953  15.261   6.859  0.00  0.00     0.328 A 
ATOM     12  HN  UNK N   1      33.624  15.909   4.917  1.00  0.00     0.170 HD
HETATM   13  O   UNK N   1      33.950  14.088   6.547  0.00  0.00    -0.246 OA
ENDBRANCH   3   6
BRANCH   4  14
HETATM   14  O   UNK N   1      32.843  14.987  11.069  0.00  0.00    -0.388 OA
HETATM   15  H   UNK N   1      32.285  14.199  10.971  0.00  0.00     0.210 HD
ENDBRANCH   4  14
BRANCH   1  16
HETATM   16  C   UNK N   1      37.216  13.108  10.772  0.00  0.00     0.198 C 
BRANCH  16  17
HETATM   17  O   UNK N   1      37.480  13.449  12.097  0.00  0.00    -0.398 OA
HETATM   18  H   UNK N   1      37.211  14.268  12.544  0.00  0.00     0.209 HD
ENDBRANCH  16  17
ENDBRANCH   1  16
BRANCH   5  19
HETATM   19  O   UNK N   1      34.453  13.458  12.388  0.00  0.00    -0.390 OA
HETATM   20  H   UNK N   1      34.639  13.263  13.320  0.00  0.00     0.210 HD
ENDBRANCH   5  19
TORSDOF 5
ENDMDL
MODEL 9
REMARK VINA RESULT:      -5.0     12.197     12.981
REMARK  5 active torsions:
REMARK  status: ('A' for Active; 'I' for Inactive)
REMARK    1  A    between atoms: O_1  and  C_2 
REMARK    2  A    between atoms: C_3  and  C_2 
REMARK    3  A    between atoms: C_5  and  N_10 
REMARK    4  A    between atoms: C_6  and  O_7 
REMARK    5  A    between atoms: C_8  and  O_9 
ROOT
HETATM    1  C   UNK N   1      42.978  22.394   2.265  0.00  0.00     0.179 C 
HETATM    2  O   UNK N   1      43.037  21.003   2.289  0.00  0.00    -0.353 OA
HETATM    3  C   UNK N   1      44.310  20.805   2.842  0.00  0.00     0.263 C 
HETATM    4  C   UNK N   1      44.385  21.729   4.053  0.00  0.00     0.198 C 
HETATM    5  C   UNK N   1      43.462  22.864   3.624  0.00  0.00     0.182 C 
ENDROOT
BRANCH   3   6
HETATM    6  N   UNK N   1      44.600  19.367   3.041  0.00  0.00    -0.280 N 
HETATM    7  C   UNK N   1      43.580  18.495   2.799  0.00  0.00     0.100 A 
HETATM    8  C   UNK N   1      43.767  17.120   2.892  0.00  0.00     0.034 A 
HETATM    9  C   UNK N   1      45.026  16.639   3.223  0.00  0.00     0.094 A 
HETATM   10  N   UNK N   1      46.041  17.506   3.449  0.00  0.00    -0.319 N 
HETATM   11  C   UNK N   1      45.854  18.863   3.361  0.00  0.00     0.328 A 
ATOM     12  HN  UNK N   1      46.964  17.143   3.689  1.00  0.00     0.170 HD
HETATM   13  O   UNK N   1      46.800  19.600   3.554  0.00  0.00    -0.246 OA
ENDBRANCH   3   6
BRANCH   4  14
HETATM   14  O   UNK N   1      45.697  22.174   4.244  0.00  0.00    -0.388 OA
HETATM   15  H   UNK N   1      46.434  21.771   4.729  0.00  0.00     0.210 HD
ENDBRANCH   4  14
BRANCH   1  16
HETATM   16  C   UNK N   1      41.576  22.877   1.946  0.00  0.00     0.198 C 
BRANCH  16  17
HETATM   17  O   UNK N   1      41.587  24.258   1.760  0.00  0.00    -0.398 OA
HETATM   18  H   UNK N   1      41.752  24.928   2.442  0.00  0.00     0.209 HD
ENDBRANCH  16  17
ENDBRANCH   1  16
BRANCH   5  19
HETATM   19  O   UNK N   1      44.132  24.085   3.489  0.00  0.00    -0.390 OA
HETATM   20  H   UNK N   1      44.824  24.342   2.859  0.00  0.00     0.210 HD
ENDBRANCH   5  19
TORSDOF 5
ENDMDL
