MODEL 1
REMARK VINA RESULT:      -3.2      0.000      0.000
REMARK  2 active torsions:
REMARK  status: ('A' for Active; 'I' for Inactive)
REMARK    1  A    between atoms: C_2  and  O_3 
REMARK    2  A    between atoms: C_2  and  C_4 
ROOT
HETATM    1  C   UNK N   1      23.223  11.878  13.102  0.00  0.00     0.040 C 
HETATM    2  C   UNK N   1      23.765  11.969  11.692  0.00  0.00     0.124 C 
ENDROOT
BRANCH   2   3
HETATM    3  O   UNK N   1      25.083  12.389  11.522  0.00  0.00    -0.395 OA
HETATM    4  H   UNK N   1      25.298  13.050  10.846  0.00  0.00     0.210 HD
ENDBRANCH   2   3
BRANCH   2   5
HETATM    5  C   UNK N   1      22.919  11.618  10.475  0.00  0.00     0.116 C 
HETATM    6 Br   UNK N   1      21.389  12.800  10.296  0.00  0.00    -0.094 Br
ENDBRANCH   2   5
TORSDOF 2
ENDMDL
MODEL 2
REMARK VINA RESULT:      -2.9      1.314      1.992
REMARK  2 active torsions:
REMARK  status: ('A' for Active; 'I' for Inactive)
REMARK    1  A    between atoms: C_2  and  O_3 
REMARK    2  A    between atoms: C_2  and  C_4 
ROOT
HETATM    1  C   UNK N   1      24.728  13.131   9.328  0.00  0.00     0.040 C 
HETATM    2  C   UNK N   1      24.267  12.353  10.542  0.00  0.00     0.124 C 
ENDROOT
BRANCH   2   3
HETATM    3  O   UNK N   1      25.098  12.331  11.661  0.00  0.00    -0.395 OA
HETATM    4  H   UNK N   1      26.013  12.646  11.592  0.00  0.00     0.210 HD
ENDBRANCH   2   3
BRANCH   2   5
HETATM    5  C   UNK N   1      22.939  11.608  10.569  0.00  0.00     0.116 C 
HETATM    6 Br   UNK N   1      21.435  12.804  10.288  0.00  0.00    -0.094 Br
ENDBRANCH   2   5
TORSDOF 2
ENDMDL
MODEL 3
REMARK VINA RESULT:      -2.8     12.767     12.963
REMARK  2 active torsions:
REMARK  status: ('A' for Active; 'I' for Inactive)
REMARK    1  A    between atoms: C_2  and  O_3 
REMARK    2  A    between atoms: C_2  and  C_4 
ROOT
HETATM    1  C   UNK N   1      34.846  16.918   9.409  0.00  0.00     0.040 C 
HETATM    2  C   UNK N   1      34.466  18.060   8.491  0.00  0.00     0.124 C 
ENDROOT
BRANCH   2   3
HETATM    3  O   UNK N   1      35.288  19.186   8.472  0.00  0.00    -0.395 OA
HETATM    4  H   UNK N   1      34.896  20.073   8.457  0.00  0.00     0.210 HD
ENDBRANCH   2   3
BRANCH   2   5
HETATM    5  C   UNK N   1      33.230  18.009   7.603  0.00  0.00     0.116 C 
HETATM    6 Br   UNK N   1      33.624  17.244   5.862  0.00  0.00    -0.094 Br
ENDBRANCH   2   5
TORSDOF 2
ENDMDL
MODEL 4
REMARK VINA RESULT:      -2.8      8.896      9.123
REMARK  2 active torsions:
REMARK  status: ('A' for Active; 'I' for Inactive)
REMARK    1  A    between atoms: C_2  and  O_3 
REMARK    2  A    between atoms: C_2  and  C_4 
ROOT
HETATM    1  C   UNK N   1      29.850  18.642   9.414  0.00  0.00     0.040 C 
HETATM    2  C   UNK N   1      28.543  18.464   8.672  0.00  0.00     0.124 C 
ENDROOT
BRANCH   2   3
HETATM    3  O   UNK N   1      27.403  18.161   9.415  0.00  0.00    -0.395 OA
HETATM    4  H   UNK N   1      26.628  17.774   8.979  0.00  0.00     0.210 HD
ENDBRANCH   2   3
BRANCH   2   5
HETATM    5  C   UNK N   1      28.445  18.607   7.159  0.00  0.00     0.116 C 
HETATM    6 Br   UNK N   1      27.471  20.206   6.647  0.00  0.00    -0.094 Br
ENDBRANCH   2   5
TORSDOF 2
ENDMDL
MODEL 5
REMARK VINA RESULT:      -2.6     13.776     13.973
REMARK  2 active torsions:
REMARK  status: ('A' for Active; 'I' for Inactive)
REMARK    1  A    between atoms: C_2  and  O_3 
REMARK    2  A    between atoms: C_2  and  C_4 
ROOT
HETATM    1  C   UNK N   1      36.241  14.191  13.590  0.00  0.00     0.040 C 
HETATM    2  C   UNK N   1      36.657  13.865  15.009  0.00  0.00     0.124 C 
ENDROOT
BRANCH   2   3
HETATM    3  O   UNK N   1      37.678  14.621  15.582  0.00  0.00    -0.395 OA
HETATM    4  H   UNK N   1      37.552  15.571  15.732  0.00  0.00     0.210 HD
ENDBRANCH   2   3
BRANCH   2   5
HETATM    5  C   UNK N   1      35.998  12.750  15.810  0.00  0.00     0.116 C 
HETATM    6 Br   UNK N   1      35.120  13.429  17.403  0.00  0.00    -0.094 Br
ENDBRANCH   2   5
TORSDOF 2
ENDMDL
MODEL 6
REMARK VINA RESULT:      -2.6     12.048     12.450
REMARK  2 active torsions:
REMARK  status: ('A' for Active; 'I' for Inactive)
REMARK    1  A    between atoms: C_2  and  O_3 
REMARK    2  A    between atoms: C_2  and  C_4 
ROOT
HETATM    1  C   UNK N   1      21.215  20.843   2.459  0.00  0.00     0.040 C 
HETATM    2  C   UNK N   1      20.729  19.768   1.511  0.00  0.00     0.124 C 
ENDROOT
BRANCH   2   3
HETATM    3  O   UNK N   1      20.721  20.052   0.146  0.00  0.00    -0.395 OA
HETATM    4  H   UNK N   1      20.468  19.366  -0.491  0.00  0.00     0.210 HD
ENDBRANCH   2   3
BRANCH   2   5
HETATM    5  C   UNK N   1      20.258  18.406   2.004  0.00  0.00     0.116 C 
HETATM    6 Br   UNK N   1      21.409  17.710   3.405  0.00  0.00    -0.094 Br
ENDBRANCH   2   5
TORSDOF 2
ENDMDL
MODEL 7
REMARK VINA RESULT:      -2.6     11.903     12.202
REMARK  2 active torsions:
REMARK  status: ('A' for Active; 'I' for Inactive)
REMARK    1  A    between atoms: C_2  and  O_3 
REMARK    2  A    between atoms: C_2  and  C_4 
ROOT
HETATM    1  C   UNK N   1      33.662  10.821  14.646  0.00  0.00     0.040 C 
HETATM    2  C   UNK N   1      34.589  11.978  14.339  0.00  0.00     0.124 C 
ENDROOT
BRANCH   2   3
HETATM    3  O   UNK N   1      34.381  12.688  13.158  0.00  0.00    -0.395 OA
HETATM    4  H   UNK N   1      33.507  12.683  12.737  0.00  0.00     0.210 HD
ENDBRANCH   2   3
BRANCH   2   5
HETATM    5  C   UNK N   1      35.723  12.377  15.274  0.00  0.00     0.116 C 
HETATM    6 Br   UNK N   1      35.057  13.135  16.933  0.00  0.00    -0.094 Br
ENDBRANCH   2   5
TORSDOF 2
ENDMDL
MODEL 8
REMARK VINA RESULT:      -2.6     19.219     19.489
REMARK  2 active torsions:
REMARK  status: ('A' for Active; 'I' for Inactive)
REMARK    1  A    between atoms: C_2  and  O_3 
REMARK    2  A    between atoms: C_2  and  C_4 
ROOT
HETATM    1  C   UNK N   1      30.403  23.955  -3.665  0.00  0.00     0.040 C 
HETATM    2  C   UNK N   1      30.862  22.933  -2.647  0.00  0.00     0.124 C 
ENDROOT
BRANCH   2   3
HETATM    3  O   UNK N   1      30.349  23.021  -1.354  0.00  0.00    -0.395 OA
HETATM    4  H   UNK N   1      30.950  23.134  -0.601  0.00  0.00     0.210 HD
ENDBRANCH   2   3
BRANCH   2   5
HETATM    5  C   UNK N   1      31.853  21.831  -2.997  0.00  0.00     0.116 C 
HETATM    6 Br   UNK N   1      31.159  20.647  -4.371  0.00  0.00    -0.094 Br
ENDBRANCH   2   5
TORSDOF 2
ENDMDL
MODEL 9
REMARK VINA RESULT:      -2.5     22.348     22.577
REMARK  2 active torsions:
REMARK  status: ('A' for Active; 'I' for Inactive)
REMARK    1  A    between atoms: C_2  and  O_3 
REMARK    2  A    between atoms: C_2  and  C_4 
ROOT
HETATM    1  C   UNK N   1      26.869  28.879  -5.024  0.00  0.00     0.040 C 
HETATM    2  C   UNK N   1      25.684  28.070  -4.542  0.00  0.00     0.124 C 
ENDROOT
BRANCH   2   3
HETATM    3  O   UNK N   1      25.334  28.159  -3.195  0.00  0.00    -0.395 OA
HETATM    4  H   UNK N   1      24.409  28.051  -2.926  0.00  0.00     0.210 HD
ENDBRANCH   2   3
BRANCH   2   5
HETATM    5  C   UNK N   1      24.879  27.176  -5.476  0.00  0.00     0.116 C 
HETATM    6 Br   UNK N   1      25.577  25.365  -5.519  0.00  0.00    -0.094 Br
ENDBRANCH   2   5
TORSDOF 2
ENDMDL
