MODEL 1
REMARK VINA RESULT:      -9.3      0.000      0.000
REMARK  13 active torsions:
REMARK  status: ('A' for Active; 'I' for Inactive)
REMARK    1  A    between atoms: C_40  and  C_7 
REMARK    2  A    between atoms: C_23  and  N_41 
REMARK    3  A    between atoms: O_43  and  C_25 
REMARK    4  A    between atoms: C_26  and  O_44 
REMARK    5  A    between atoms: C_27  and  O_53 
REMARK    6  A    between atoms: C_28  and  O_54 
REMARK    7  A    between atoms: C_29  and  O_53 
REMARK    8  A    between atoms: C_30  and  O_55 
REMARK    9  A    between atoms: O_47  and  C_36 
REMARK   10  A    between atoms: C_37  and  O_55 
REMARK   11  A    between atoms: C_38  and  O_54 
REMARK   12  A    between atoms: C_39  and  O_48 
REMARK   13  A    between atoms: C_40  and  O_49 
ROOT
HETATM    1  C   UNK N   1      34.631  13.052   7.543  0.00  0.00     0.004 A 
HETATM    2  C   UNK N   1      33.843  14.089   8.050  0.00  0.00     0.017 A 
HETATM    3  C   UNK N   1      34.801  12.902   6.166  0.00  0.00     0.037 A 
HETATM    4  C   UNK N   1      30.318  17.542   7.267  0.00  0.00     0.027 C 
HETATM    5  C   UNK N   1      27.647  18.879   4.198  0.00  0.00     0.078 C 
HETATM    6  C   UNK N   1      33.219  14.993   7.189  0.00  0.00     0.032 A 
HETATM    7  C   UNK N   1      31.426  16.781   6.802  0.00  0.00     0.033 C 
HETATM    8  C   UNK N   1      29.306  17.920   6.363  0.00  0.00    -0.014 C 
HETATM    9  C   UNK N   1      34.201  13.795   5.289  0.00  0.00     0.080 A 
HETATM   10  C   UNK N   1      28.275  17.476   4.194  0.00  0.00     0.164 C 
HETATM   11  C   UNK N   1      33.412  14.853   5.792  0.00  0.00     0.062 A 
HETATM   12  C   UNK N   1      29.465  17.533   5.031  0.00  0.00     0.014 C 
HETATM   13  C   UNK N   1      31.633  16.611   5.417  0.00  0.00     0.063 C 
HETATM   14  C   UNK N   1      32.308  16.047   7.728  0.00  0.00     0.194 C 
HETATM   15  C   UNK N   1      32.734  15.776   4.892  0.00  0.00     0.199 C 
HETATM   16  C   UNK N   1      30.686  17.053   4.542  0.00  0.00     0.090 C 
HETATM   17  C   UNK N   1      28.074  18.765   6.764  0.00  0.00     0.186 C 
HETATM   18  C   UNK N   1      27.031  19.082   5.602  0.00  0.00     0.090 C 
HETATM   19  O   UNK N   1      32.170  16.184   8.938  0.00  0.00    -0.287 OA
HETATM   20  O   UNK N   1      32.974  15.733   3.686  0.00  0.00    -0.286 OA
ENDROOT
BRANCH  10  21
HETATM   21  O   UNK N   1      28.619  16.767   3.009  0.00  0.00    -0.351 OA
BRANCH  21  22
HETATM   22  C   UNK N   1      27.997  15.575   2.941  0.00  0.00     0.263 C 
HETATM   23  C   UNK N   1      26.716  15.592   2.103  0.00  0.00     0.099 C 
HETATM   24  C   UNK N   1      26.166  14.131   1.934  0.00  0.00     0.258 C 
HETATM   25  C   UNK N   1      26.946  13.206   2.944  0.00  0.00     0.186 C 
HETATM   26  C   UNK N   1      28.508  13.391   2.603  0.00  0.00     0.151 C 
HETATM   27  C   UNK N   1      28.950  12.655   1.345  0.00  0.00     0.042 C 
HETATM   28  O   UNK N   1      28.880  14.698   2.337  0.00  0.00    -0.354 OA
BRANCH  24  29
HETATM   29  N   UNK N   1      24.704  14.137   2.146  0.00  0.00     0.087 N 
HETATM   30  C   UNK N   1      24.006  14.156   0.868  0.00  0.00     0.310 C 
HETATM   31  C   UNK N   1      24.303  15.371   2.816  0.00  0.00     0.310 C 
ENDBRANCH  24  29
BRANCH  25  32
HETATM   32  O   UNK N   1      26.410  11.901   3.126  0.00  0.00    -0.351 OA
BRANCH  32  33
HETATM   33  C   UNK N   1      26.321  11.454   4.455  0.00  0.00     0.263 C 
HETATM   34  C   UNK N   1      25.111  10.555   4.640  0.00  0.00     0.095 C 
HETATM   35  C   UNK N   1      23.880  11.280   5.144  0.00  0.00     0.154 C 
HETATM   36  C   UNK N   1      24.289  12.209   6.301  0.00  0.00     0.182 C 
HETATM   37  C   UNK N   1      25.262  13.216   5.717  0.00  0.00     0.152 C 
HETATM   38  C   UNK N   1      25.618  14.290   6.734  0.00  0.00     0.042 C 
HETATM   39  O   UNK N   1      26.434  12.488   5.438  0.00  0.00    -0.354 OA
BRANCH  35  40
HETATM   40  O   UNK N   1      23.261  11.995   4.115  0.00  0.00    -0.393 OA
HETATM   41  H   UNK N   1      23.038  12.301   3.221  0.00  0.00     0.210 HD
ENDBRANCH  35  40
BRANCH  36  42
HETATM   42  O   UNK N   1      23.161  12.799   6.951  0.00  0.00    -0.351 OA
BRANCH  42  43
HETATM   43  C   UNK N   1      22.452  11.788   7.676  0.00  0.00     0.261 C 
HETATM   44  C   UNK N   1      23.343  11.017   8.679  0.00  0.00     0.068 C 
HETATM   45  C   UNK N   1      23.647  11.814   9.955  0.00  0.00     0.086 C 
HETATM   46  C   UNK N   1      22.410  12.528  10.390  0.00  0.00     0.155 C 
HETATM   47  C   UNK N   1      21.675  13.254   9.327  0.00  0.00     0.190 C 
HETATM   48  O   UNK N   1      22.018  12.492  11.546  0.00  0.00    -0.295 OA
HETATM   49  C   UNK N   1      20.439  13.993   9.811  0.00  0.00     0.048 C 
HETATM   50  O   UNK N   1      21.300  12.316   8.336  0.00  0.00    -0.349 OA
ENDBRANCH  42  43
ENDBRANCH  36  42
ENDBRANCH  32  33
ENDBRANCH  25  32
ENDBRANCH  21  22
ENDBRANCH  10  21
BRANCH  18  51
HETATM   51  C   UNK N   1      26.505  20.522   5.656  0.00  0.00     0.036 C 
HETATM   52  C   UNK N   1      27.453  21.487   6.347  0.00  0.00     0.008 C 
ENDBRANCH  18  51
BRANCH  18  53
HETATM   53  O   UNK N   1      25.928  18.221   5.700  0.00  0.00    -0.387 OA
HETATM   54  H   UNK N   1      25.024  17.881   5.614  0.00  0.00     0.210 HD
ENDBRANCH  18  53
BRANCH  16  55
HETATM   55  O   UNK N   1      30.904  16.904   3.213  0.00  0.00    -0.359 OA
HETATM   56  H   UNK N   1      30.251  16.553   2.640  0.00  0.00     0.217 HD
ENDBRANCH  16  55
BRANCH  17  57
HETATM   57  O   UNK N   1      27.415  18.194   7.858  0.00  0.00    -0.388 OA
HETATM   58  H   UNK N   1      27.232  17.350   8.299  0.00  0.00     0.210 HD
ENDBRANCH  17  57
BRANCH   9  59
HETATM   59  O   UNK N   1      34.356  13.609   3.961  0.00  0.00    -0.360 OA
HETATM   60  H   UNK N   1      34.062  14.250   3.344  0.00  0.00     0.217 HD
ENDBRANCH   9  59
TORSDOF 13
ENDMDL
MODEL 2
REMARK VINA RESULT:      -9.3      2.800      9.606
REMARK  13 active torsions:
REMARK  status: ('A' for Active; 'I' for Inactive)
REMARK    1  A    between atoms: C_40  and  C_7 
REMARK    2  A    between atoms: C_23  and  N_41 
REMARK    3  A    between atoms: O_43  and  C_25 
REMARK    4  A    between atoms: C_26  and  O_44 
REMARK    5  A    between atoms: C_27  and  O_53 
REMARK    6  A    between atoms: C_28  and  O_54 
REMARK    7  A    between atoms: C_29  and  O_53 
REMARK    8  A    between atoms: C_30  and  O_55 
REMARK    9  A    between atoms: O_47  and  C_36 
REMARK   10  A    between atoms: C_37  and  O_55 
REMARK   11  A    between atoms: C_38  and  O_54 
REMARK   12  A    between atoms: C_39  and  O_48 
REMARK   13  A    between atoms: C_40  and  O_49 
ROOT
HETATM    1  C   UNK N   1      23.050  12.242  10.494  0.00  0.00     0.004 A 
HETATM    2  C   UNK N   1      23.593  11.699   9.326  0.00  0.00     0.017 A 
HETATM    3  C   UNK N   1      21.837  12.932  10.454  0.00  0.00     0.037 A 
HETATM    4  C   UNK N   1      23.722  11.587   4.332  0.00  0.00     0.027 C 
HETATM    5  C   UNK N   1      22.031  13.601   0.952  0.00  0.00     0.078 C 
HETATM    6  C   UNK N   1      22.930  11.833   8.105  0.00  0.00     0.032 A 
HETATM    7  C   UNK N   1      22.998  11.748   5.545  0.00  0.00     0.033 C 
HETATM    8  C   UNK N   1      23.332  12.312   3.189  0.00  0.00    -0.014 C 
HETATM    9  C   UNK N   1      21.152  13.069   9.255  0.00  0.00     0.080 A 
HETATM   10  C   UNK N   1      22.080  14.234   2.352  0.00  0.00     0.164 C 
HETATM   11  C   UNK N   1      21.688  12.514   8.071  0.00  0.00     0.062 A 
HETATM   12  C   UNK N   1      22.222  13.148   3.312  0.00  0.00     0.014 C 
HETATM   13  C   UNK N   1      21.766  12.437   5.545  0.00  0.00     0.063 C 
HETATM   14  C   UNK N   1      23.554  11.328   6.845  0.00  0.00     0.194 C 
HETATM   15  C   UNK N   1      21.011  12.682   6.792  0.00  0.00     0.199 C 
HETATM   16  C   UNK N   1      21.355  13.068   4.409  0.00  0.00     0.090 C 
HETATM   17  C   UNK N   1      24.041  12.189   1.819  0.00  0.00     0.186 C 
HETATM   18  C   UNK N   1      23.461  13.099   0.646  0.00  0.00     0.090 C 
HETATM   19  O   UNK N   1      24.613  10.712   6.884  0.00  0.00    -0.287 OA
HETATM   20  O   UNK N   1      19.886  13.178   6.762  0.00  0.00    -0.286 OA
ENDROOT
BRANCH  10  21
HETATM   21  O   UNK N   1      21.086  15.121   2.854  0.00  0.00    -0.351 OA
BRANCH  21  22
HETATM   22  C   UNK N   1      21.612  16.307   3.212  0.00  0.00     0.263 C 
HETATM   23  C   UNK N   1      20.847  17.515   2.664  0.00  0.00     0.099 C 
HETATM   24  C   UNK N   1      21.423  18.840   3.280  0.00  0.00     0.258 C 
HETATM   25  C   UNK N   1      22.781  18.484   3.997  0.00  0.00     0.186 C 
HETATM   26  C   UNK N   1      22.432  17.330   5.064  0.00  0.00     0.151 C 
HETATM   27  C   UNK N   1      21.728  17.845   6.312  0.00  0.00     0.042 C 
HETATM   28  O   UNK N   1      21.554  16.368   4.593  0.00  0.00    -0.354 OA
BRANCH  24  29
HETATM   29  N   UNK N   1      21.566  19.848   2.210  0.00  0.00     0.087 N 
HETATM   30  C   UNK N   1      21.066  21.140   2.660  0.00  0.00     0.310 C 
HETATM   31  C   UNK N   1      20.723  19.491   1.073  0.00  0.00     0.310 C 
ENDBRANCH  24  29
BRANCH  25  32
HETATM   32  O   UNK N   1      23.581  19.593   4.388  0.00  0.00    -0.351 OA
BRANCH  32  33
HETATM   33  C   UNK N   1      24.836  19.694   3.765  0.00  0.00     0.263 C 
HETATM   34  C   UNK N   1      25.429  18.317   3.523  0.00  0.00     0.095 C 
HETATM   35  C   UNK N   1      26.373  17.857   4.614  0.00  0.00     0.154 C 
HETATM   36  C   UNK N   1      27.323  19.014   4.972  0.00  0.00     0.182 C 
HETATM   37  C   UNK N   1      26.449  20.135   5.503  0.00  0.00     0.152 C 
HETATM   38  C   UNK N   1      27.292  21.283   6.039  0.00  0.00     0.042 C 
HETATM   39  O   UNK N   1      25.736  20.616   4.388  0.00  0.00    -0.354 OA
BRANCH  35  40
HETATM   40  O   UNK N   1      25.667  17.416   5.737  0.00  0.00    -0.393 OA
HETATM   41  H   UNK N   1      24.932  17.270   6.354  0.00  0.00     0.210 HD
ENDBRANCH  35  40
BRANCH  36  42
HETATM   42  O   UNK N   1      28.360  18.611   5.868  0.00  0.00    -0.351 OA
BRANCH  42  43
HETATM   43  C   UNK N   1      28.768  17.275   5.549  0.00  0.00     0.261 C 
HETATM   44  C   UNK N   1      29.720  17.202   4.332  0.00  0.00     0.068 C 
HETATM   45  C   UNK N   1      31.156  17.633   4.662  0.00  0.00     0.086 C 
HETATM   46  C   UNK N   1      31.538  17.079   5.994  0.00  0.00     0.155 C 
HETATM   47  C   UNK N   1      30.541  17.252   7.076  0.00  0.00     0.190 C 
HETATM   48  O   UNK N   1      32.597  16.496   6.170  0.00  0.00    -0.295 OA
HETATM   49  C   UNK N   1      30.975  16.703   8.425  0.00  0.00     0.048 C 
HETATM   50  O   UNK N   1      29.344  16.612   6.676  0.00  0.00    -0.349 OA
ENDBRANCH  42  43
ENDBRANCH  36  42
ENDBRANCH  32  33
ENDBRANCH  25  32
ENDBRANCH  21  22
ENDBRANCH  10  21
BRANCH  18  51
HETATM   51  C   UNK N   1      23.398  12.361  -0.699  0.00  0.00     0.036 C 
HETATM   52  C   UNK N   1      23.453  10.850  -0.563  0.00  0.00     0.008 C 
ENDBRANCH  18  51
BRANCH  18  53
HETATM   53  O   UNK N   1      24.271  14.232   0.473  0.00  0.00    -0.387 OA
HETATM   54  H   UNK N   1      24.662  15.106   0.623  0.00  0.00     0.210 HD
ENDBRANCH  18  53
BRANCH  16  55
HETATM   55  O   UNK N   1      20.161  13.708   4.412  0.00  0.00    -0.359 OA
HETATM   56  H   UNK N   1      19.646  13.801   3.634  0.00  0.00     0.217 HD
ENDBRANCH  16  55
BRANCH  17  57
HETATM   57  O   UNK N   1      25.417  12.396   1.951  0.00  0.00    -0.388 OA
HETATM   58  H   UNK N   1      26.112  12.607   2.593  0.00  0.00     0.210 HD
ENDBRANCH  17  57
BRANCH   9  59
HETATM   59  O   UNK N   1      19.997  13.768   9.239  0.00  0.00    -0.360 OA
HETATM   60  H   UNK N   1      19.172  13.343   9.368  0.00  0.00     0.217 HD
ENDBRANCH   9  59
TORSDOF 13
ENDMDL
MODEL 3
REMARK VINA RESULT:      -8.8      3.016     10.370
REMARK  13 active torsions:
REMARK  status: ('A' for Active; 'I' for Inactive)
REMARK    1  A    between atoms: C_40  and  C_7 
REMARK    2  A    between atoms: C_23  and  N_41 
REMARK    3  A    between atoms: O_43  and  C_25 
REMARK    4  A    between atoms: C_26  and  O_44 
REMARK    5  A    between atoms: C_27  and  O_53 
REMARK    6  A    between atoms: C_28  and  O_54 
REMARK    7  A    between atoms: C_29  and  O_53 
REMARK    8  A    between atoms: C_30  and  O_55 
REMARK    9  A    between atoms: O_47  and  C_36 
REMARK   10  A    between atoms: C_37  and  O_55 
REMARK   11  A    between atoms: C_38  and  O_54 
REMARK   12  A    between atoms: C_39  and  O_48 
REMARK   13  A    between atoms: C_40  and  O_49 
ROOT
HETATM    1  C   UNK N   1      19.506  16.082   9.008  0.00  0.00     0.004 A 
HETATM    2  C   UNK N   1      19.942  14.967   8.288  0.00  0.00     0.017 A 
HETATM    3  C   UNK N   1      19.875  17.368   8.609  0.00  0.00     0.037 A 
HETATM    4  C   UNK N   1      23.140  12.998   4.993  0.00  0.00     0.027 C 
HETATM    5  C   UNK N   1      26.610  14.078   2.727  0.00  0.00     0.078 C 
HETATM    6  C   UNK N   1      20.746  15.120   7.158  0.00  0.00     0.032 A 
HETATM    7  C   UNK N   1      22.366  14.096   5.457  0.00  0.00     0.033 C 
HETATM    8  C   UNK N   1      24.371  13.237   4.353  0.00  0.00    -0.014 C 
HETATM    9  C   UNK N   1      20.665  17.548   7.482  0.00  0.00     0.080 A 
HETATM   10  C   UNK N   1      26.172  14.845   3.986  0.00  0.00     0.164 C 
HETATM   11  C   UNK N   1      21.100  16.427   6.741  0.00  0.00     0.062 A 
HETATM   12  C   UNK N   1      24.757  14.568   4.190  0.00  0.00     0.014 C 
HETATM   13  C   UNK N   1      22.705  15.411   5.072  0.00  0.00     0.063 C 
HETATM   14  C   UNK N   1      21.282  13.923   6.442  0.00  0.00     0.194 C 
HETATM   15  C   UNK N   1      21.967  16.586   5.581  0.00  0.00     0.199 C 
HETATM   16  C   UNK N   1      23.860  15.626   4.380  0.00  0.00     0.090 C 
HETATM   17  C   UNK N   1      25.276  12.112   3.794  0.00  0.00     0.186 C 
HETATM   18  C   UNK N   1      26.638  12.581   3.112  0.00  0.00     0.090 C 
HETATM   19  O   UNK N   1      20.947  12.796   6.787  0.00  0.00    -0.287 OA
HETATM   20  O   UNK N   1      22.197  17.713   5.146  0.00  0.00    -0.286 OA
ENDROOT
BRANCH  10  21
HETATM   21  O   UNK N   1      26.365  16.244   4.167  0.00  0.00    -0.351 OA
BRANCH  21  22
HETATM   22  C   UNK N   1      27.518  16.510   4.808  0.00  0.00     0.263 C 
HETATM   23  C   UNK N   1      27.352  16.746   6.311  0.00  0.00     0.099 C 
HETATM   24  C   UNK N   1      28.761  16.867   6.994  0.00  0.00     0.258 C 
HETATM   25  C   UNK N   1      29.836  17.017   5.852  0.00  0.00     0.186 C 
HETATM   26  C   UNK N   1      29.649  15.738   4.894  0.00  0.00     0.151 C 
HETATM   27  C   UNK N   1      30.219  14.450   5.475  0.00  0.00     0.042 C 
HETATM   28  O   UNK N   1      28.329  15.401   4.646  0.00  0.00    -0.354 OA
BRANCH  24  29
HETATM   29  N   UNK N   1      28.743  18.000   7.942  0.00  0.00     0.087 N 
HETATM   30  C   UNK N   1      27.994  17.648   9.140  0.00  0.00     0.310 C 
HETATM   31  C   UNK N   1      28.018  19.125   7.359  0.00  0.00     0.310 C 
ENDBRANCH  24  29
BRANCH  25  32
HETATM   32  O   UNK N   1      31.138  17.401   6.276  0.00  0.00    -0.351 OA
BRANCH  32  33
HETATM   33  C   UNK N   1      31.431  17.182   7.633  0.00  0.00     0.263 C 
HETATM   34  C   UNK N   1      32.493  18.154   8.117  0.00  0.00     0.095 C 
HETATM   35  C   UNK N   1      33.901  17.602   8.060  0.00  0.00     0.154 C 
HETATM   36  C   UNK N   1      33.899  16.172   8.630  0.00  0.00     0.182 C 
HETATM   37  C   UNK N   1      33.000  15.352   7.724  0.00  0.00     0.152 C 
HETATM   38  C   UNK N   1      33.042  13.877   8.095  0.00  0.00     0.042 C 
HETATM   39  O   UNK N   1      31.694  15.816   7.970  0.00  0.00    -0.354 OA
BRANCH  35  40
HETATM   40  O   UNK N   1      34.398  17.625   6.753  0.00  0.00    -0.393 OA
HETATM   41  H   UNK N   1      34.632  17.955   5.871  0.00  0.00     0.210 HD
ENDBRANCH  35  40
BRANCH  36  42
HETATM   42  O   UNK N   1      35.218  15.641   8.776  0.00  0.00    -0.351 OA
BRANCH  42  43
HETATM   43  C   UNK N   1      35.692  15.913  10.100  0.00  0.00     0.261 C 
HETATM   44  C   UNK N   1      34.773  15.343  11.207  0.00  0.00     0.068 C 
HETATM   45  C   UNK N   1      34.919  13.826  11.393  0.00  0.00     0.086 C 
HETATM   46  C   UNK N   1      36.364  13.461  11.306  0.00  0.00     0.155 C 
HETATM   47  C   UNK N   1      37.113  14.055  10.173  0.00  0.00     0.190 C 
HETATM   48  O   UNK N   1      36.898  12.740  12.134  0.00  0.00    -0.295 OA
HETATM   49  C   UNK N   1      38.573  13.638  10.098  0.00  0.00     0.048 C 
HETATM   50  O   UNK N   1      37.036  15.464  10.287  0.00  0.00    -0.349 OA
ENDBRANCH  42  43
ENDBRANCH  36  42
ENDBRANCH  32  33
ENDBRANCH  25  32
ENDBRANCH  21  22
ENDBRANCH  10  21
BRANCH  18  51
HETATM   51  C   UNK N   1      26.959  11.796   1.832  0.00  0.00     0.036 C 
HETATM   52  C   UNK N   1      25.726  11.414   1.031  0.00  0.00     0.008 C 
ENDBRANCH  18  51
BRANCH  18  53
HETATM   53  O   UNK N   1      27.706  12.400   4.002  0.00  0.00    -0.387 OA
HETATM   54  H   UNK N   1      28.415  11.968   4.503  0.00  0.00     0.210 HD
ENDBRANCH  18  53
BRANCH  16  55
HETATM   55  O   UNK N   1      24.166  16.889   3.996  0.00  0.00    -0.359 OA
HETATM   56  H   UNK N   1      24.337  17.568   4.617  0.00  0.00     0.217 HD
ENDBRANCH  16  55
BRANCH  17  57
HETATM   57  O   UNK N   1      25.536  11.150   4.774  0.00  0.00    -0.388 OA
HETATM   58  H   UNK N   1      26.252  10.701   5.248  0.00  0.00     0.210 HD
ENDBRANCH  17  57
BRANCH   9  59
HETATM   59  O   UNK N   1      21.033  18.800   7.136  0.00  0.00    -0.360 OA
HETATM   60  H   UNK N   1      21.700  19.257   7.608  0.00  0.00     0.217 HD
ENDBRANCH   9  59
TORSDOF 13
ENDMDL
MODEL 4
REMARK VINA RESULT:      -8.5      7.414     11.975
REMARK  13 active torsions:
REMARK  status: ('A' for Active; 'I' for Inactive)
REMARK    1  A    between atoms: C_40  and  C_7 
REMARK    2  A    between atoms: C_23  and  N_41 
REMARK    3  A    between atoms: O_43  and  C_25 
REMARK    4  A    between atoms: C_26  and  O_44 
REMARK    5  A    between atoms: C_27  and  O_53 
REMARK    6  A    between atoms: C_28  and  O_54 
REMARK    7  A    between atoms: C_29  and  O_53 
REMARK    8  A    between atoms: C_30  and  O_55 
REMARK    9  A    between atoms: O_47  and  C_36 
REMARK   10  A    between atoms: C_37  and  O_55 
REMARK   11  A    between atoms: C_38  and  O_54 
REMARK   12  A    between atoms: C_39  and  O_48 
REMARK   13  A    between atoms: C_40  and  O_49 
ROOT
HETATM    1  C   UNK N   1      32.741  17.127   3.284  0.00  0.00     0.004 A 
HETATM    2  C   UNK N   1      33.257  17.583   4.501  0.00  0.00     0.017 A 
HETATM    3  C   UNK N   1      32.057  15.912   3.218  0.00  0.00     0.037 A 
HETATM    4  C   UNK N   1      34.661  16.568   9.187  0.00  0.00     0.027 C 
HETATM    5  C   UNK N   1      35.100  13.237  11.842  0.00  0.00     0.078 C 
HETATM    6  C   UNK N   1      33.092  16.835   5.667  0.00  0.00     0.032 A 
HETATM    7  C   UNK N   1      33.801  16.338   8.078  0.00  0.00     0.033 C 
HETATM    8  C   UNK N   1      34.983  15.503  10.050  0.00  0.00    -0.014 C 
HETATM    9  C   UNK N   1      31.870  15.155   4.366  0.00  0.00     0.080 A 
HETATM   10  C   UNK N   1      35.061  13.077  10.313  0.00  0.00     0.164 C 
HETATM   11  C   UNK N   1      32.378  15.613   5.602  0.00  0.00     0.062 A 
HETATM   12  C   UNK N   1      34.410  14.262   9.772  0.00  0.00     0.014 C 
HETATM   13  C   UNK N   1      33.090  15.123   7.979  0.00  0.00     0.063 C 
HETATM   14  C   UNK N   1      33.720  17.281   6.948  0.00  0.00     0.194 C 
HETATM   15  C   UNK N   1      32.234  14.816   6.813  0.00  0.00     0.199 C 
HETATM   16  C   UNK N   1      33.348  14.124   8.869  0.00  0.00     0.090 C 
HETATM   17  C   UNK N   1      35.891  15.657  11.294  0.00  0.00     0.186 C 
HETATM   18  C   UNK N   1      36.148  14.333  12.142  0.00  0.00     0.090 C 
HETATM   19  O   UNK N   1      34.309  18.354   7.006  0.00  0.00    -0.287 OA
HETATM   20  O   UNK N   1      31.530  13.808   6.795  0.00  0.00    -0.286 OA
ENDROOT
BRANCH  10  21
HETATM   21  O   UNK N   1      34.508  11.945   9.650  0.00  0.00    -0.351 OA
BRANCH  21  22
HETATM   22  C   UNK N   1      35.020  10.792  10.119  0.00  0.00     0.263 C 
HETATM   23  C   UNK N   1      34.255   9.545   9.669  0.00  0.00     0.099 C 
HETATM   24  C   UNK N   1      35.028   8.252  10.112  0.00  0.00     0.258 C 
HETATM   25  C   UNK N   1      36.147   8.689  11.132  0.00  0.00     0.186 C 
HETATM   26  C   UNK N   1      37.040   9.789  10.368  0.00  0.00     0.151 C 
HETATM   27  C   UNK N   1      37.991   9.196   9.337  0.00  0.00     0.042 C 
HETATM   28  O   UNK N   1      36.307  10.696   9.620  0.00  0.00    -0.354 OA
BRANCH  24  29
HETATM   29  N   UNK N   1      34.065   7.281  10.672  0.00  0.00     0.087 N 
HETATM   30  C   UNK N   1      34.326   5.948  10.149  0.00  0.00     0.310 C 
HETATM   31  C   UNK N   1      32.713   7.606  10.225  0.00  0.00     0.310 C 
ENDBRANCH  24  29
BRANCH  25  32
HETATM   32  O   UNK N   1      36.781   7.633  11.843  0.00  0.00    -0.351 OA
BRANCH  32  33
HETATM   33  C   UNK N   1      37.391   7.990  13.057  0.00  0.00     0.263 C 
HETATM   34  C   UNK N   1      37.581   6.771  13.943  0.00  0.00     0.095 C 
HETATM   35  C   UNK N   1      36.463   6.561  14.943  0.00  0.00     0.154 C 
HETATM   36  C   UNK N   1      36.131   7.909  15.608  0.00  0.00     0.182 C 
HETATM   37  C   UNK N   1      35.648   8.824  14.499  0.00  0.00     0.152 C 
HETATM   38  C   UNK N   1      35.137  10.144  15.059  0.00  0.00     0.042 C 
HETATM   39  O   UNK N   1      36.786   9.105  13.720  0.00  0.00    -0.354 OA
BRANCH  35  40
HETATM   40  O   UNK N   1      35.336   6.008  14.329  0.00  0.00    -0.393 OA
HETATM   41  H   UNK N   1      34.685   5.788  13.643  0.00  0.00     0.210 HD
ENDBRANCH  35  40
BRANCH  36  42
HETATM   42  O   UNK N   1      35.208   7.769  16.691  0.00  0.00    -0.351 OA
BRANCH  42  43
HETATM   43  C   UNK N   1      35.926   7.801  17.930  0.00  0.00     0.261 C 
HETATM   44  C   UNK N   1      36.750   9.096  18.125  0.00  0.00     0.068 C 
HETATM   45  C   UNK N   1      35.891  10.307  18.514  0.00  0.00     0.086 C 
HETATM   46  C   UNK N   1      34.859   9.875  19.503  0.00  0.00     0.155 C 
HETATM   47  C   UNK N   1      34.123   8.633  19.168  0.00  0.00     0.190 C 
HETATM   48  O   UNK N   1      34.656  10.494  20.535  0.00  0.00    -0.295 OA
HETATM   49  C   UNK N   1      33.061   8.239  20.181  0.00  0.00     0.048 C 
HETATM   50  O   UNK N   1      35.065   7.583  19.049  0.00  0.00    -0.349 OA
ENDBRANCH  42  43
ENDBRANCH  36  42
ENDBRANCH  32  33
ENDBRANCH  25  32
ENDBRANCH  21  22
ENDBRANCH  10  21
BRANCH  18  51
HETATM   51  C   UNK N   1      36.111  14.584  13.656  0.00  0.00     0.036 C 
HETATM   52  C   UNK N   1      36.644  13.421  14.476  0.00  0.00     0.008 C 
ENDBRANCH  18  51
BRANCH  18  53
HETATM   53  O   UNK N   1      37.407  13.800  11.829  0.00  0.00    -0.387 OA
HETATM   54  H   UNK N   1      38.329  13.748  11.532  0.00  0.00     0.210 HD
ENDBRANCH  18  53
BRANCH  16  55
HETATM   55  O   UNK N   1      32.645  12.969   8.779  0.00  0.00    -0.359 OA
HETATM   56  H   UNK N   1      33.005  12.147   9.048  0.00  0.00     0.217 HD
ENDBRANCH  16  55
BRANCH  17  57
HETATM   57  O   UNK N   1      37.109  16.251  10.950  0.00  0.00    -0.388 OA
HETATM   58  H   UNK N   1      37.765  16.902  11.245  0.00  0.00     0.210 HD
ENDBRANCH  17  57
BRANCH   9  59
HETATM   59  O   UNK N   1      31.232  13.969   4.269  0.00  0.00    -0.360 OA
HETATM   60  H   UNK N   1      30.919  13.523   5.031  0.00  0.00     0.217 HD
ENDBRANCH   9  59
TORSDOF 13
ENDMDL
MODEL 5
REMARK VINA RESULT:      -8.4      3.570      9.552
REMARK  13 active torsions:
REMARK  status: ('A' for Active; 'I' for Inactive)
REMARK    1  A    between atoms: C_40  and  C_7 
REMARK    2  A    between atoms: C_23  and  N_41 
REMARK    3  A    between atoms: O_43  and  C_25 
REMARK    4  A    between atoms: C_26  and  O_44 
REMARK    5  A    between atoms: C_27  and  O_53 
REMARK    6  A    between atoms: C_28  and  O_54 
REMARK    7  A    between atoms: C_29  and  O_53 
REMARK    8  A    between atoms: C_30  and  O_55 
REMARK    9  A    between atoms: O_47  and  C_36 
REMARK   10  A    between atoms: C_37  and  O_55 
REMARK   11  A    between atoms: C_38  and  O_54 
REMARK   12  A    between atoms: C_39  and  O_48 
REMARK   13  A    between atoms: C_40  and  O_49 
ROOT
HETATM    1  C   UNK N   1      21.694  20.097   2.096  0.00  0.00     0.004 A 
HETATM    2  C   UNK N   1      22.425  19.607   3.182  0.00  0.00     0.017 A 
HETATM    3  C   UNK N   1      20.402  19.631   1.847  0.00  0.00     0.037 A 
HETATM    4  C   UNK N   1      23.065  16.059   6.641  0.00  0.00     0.027 C 
HETATM    5  C   UNK N   1      21.438  12.275   7.813  0.00  0.00     0.078 C 
HETATM    6  C   UNK N   1      21.874  18.650   4.036  0.00  0.00     0.032 A 
HETATM    7  C   UNK N   1      22.208  16.850   5.828  0.00  0.00     0.033 C 
HETATM    8  C   UNK N   1      22.688  14.744   6.975  0.00  0.00    -0.014 C 
HETATM    9  C   UNK N   1      19.827  18.688   2.688  0.00  0.00     0.080 A 
HETATM   10  C   UNK N   1      21.252  12.853   6.401  0.00  0.00     0.164 C 
HETATM   11  C   UNK N   1      20.554  18.196   3.795  0.00  0.00     0.062 A 
HETATM   12  C   UNK N   1      21.459  14.292   6.493  0.00  0.00     0.014 C 
HETATM   13  C   UNK N   1      20.894  16.415   5.557  0.00  0.00     0.063 C 
HETATM   14  C   UNK N   1      22.689  18.064   5.143  0.00  0.00     0.194 C 
HETATM   15  C   UNK N   1      19.991  17.173   4.666  0.00  0.00     0.199 C 
HETATM   16  C   UNK N   1      20.509  15.169   5.955  0.00  0.00     0.090 C 
HETATM   17  C   UNK N   1      23.539  13.812   7.870  0.00  0.00     0.186 C 
HETATM   18  C   UNK N   1      22.950  12.354   8.126  0.00  0.00     0.090 C 
HETATM   19  O   UNK N   1      23.818  18.483   5.367  0.00  0.00    -0.287 OA
HETATM   20  O   UNK N   1      18.813  16.846   4.534  0.00  0.00    -0.286 OA
ENDROOT
BRANCH  10  21
HETATM   21  O   UNK N   1      20.092  12.638   5.604  0.00  0.00    -0.351 OA
BRANCH  21  22
HETATM   22  C   UNK N   1      20.410  12.269   4.349  0.00  0.00     0.263 C 
HETATM   23  C   UNK N   1      20.617  10.762   4.179  0.00  0.00     0.099 C 
HETATM   24  C   UNK N   1      20.803  10.414   2.659  0.00  0.00     0.258 C 
HETATM   25  C   UNK N   1      21.025  11.766   1.882  0.00  0.00     0.186 C 
HETATM   26  C   UNK N   1      19.749  12.689   2.220  0.00  0.00     0.151 C 
HETATM   27  C   UNK N   1      18.486  12.284   1.471  0.00  0.00     0.042 C 
HETATM   28  O   UNK N   1      19.347  12.638   3.544  0.00  0.00    -0.354 OA
BRANCH  24  29
HETATM   29  N   UNK N   1      21.921   9.460   2.515  0.00  0.00     0.087 N 
HETATM   30  C   UNK N   1      21.437   8.182   2.013  0.00  0.00     0.310 C 
HETATM   31  C   UNK N   1      22.493   9.160   3.825  0.00  0.00     0.310 C 
ENDBRANCH  24  29
BRANCH  25  32
HETATM   32  O   UNK N   1      21.470  11.640   0.537  0.00  0.00    -0.351 OA
BRANCH  32  33
HETATM   33  C   UNK N   1      22.274  12.687   0.056  0.00  0.00     0.263 C 
HETATM   34  C   UNK N   1      23.688  12.200  -0.214  0.00  0.00     0.095 C 
HETATM   35  C   UNK N   1      24.644  12.429   0.937  0.00  0.00     0.154 C 
HETATM   36  C   UNK N   1      24.450  13.861   1.468  0.00  0.00     0.182 C 
HETATM   37  C   UNK N   1      23.023  13.936   1.978  0.00  0.00     0.152 C 
HETATM   38  C   UNK N   1      22.757  15.263   2.675  0.00  0.00     0.042 C 
HETATM   39  O   UNK N   1      22.210  13.889   0.830  0.00  0.00    -0.354 OA
BRANCH  35  40
HETATM   40  O   UNK N   1      24.452  11.484   1.948  0.00  0.00    -0.393 OA
HETATM   41  H   UNK N   1      24.309  11.107   2.831  0.00  0.00     0.210 HD
ENDBRANCH  35  40
BRANCH  36  42
HETATM   42  O   UNK N   1      25.434  14.221   2.439  0.00  0.00    -0.351 OA
BRANCH  42  43
HETATM   43  C   UNK N   1      26.214  15.313   1.939  0.00  0.00     0.261 C 
HETATM   44  C   UNK N   1      26.027  16.618   2.749  0.00  0.00     0.068 C 
HETATM   45  C   UNK N   1      26.776  16.611   4.089  0.00  0.00     0.086 C 
HETATM   46  C   UNK N   1      28.120  15.993   3.893  0.00  0.00     0.155 C 
HETATM   47  C   UNK N   1      28.143  14.724   3.126  0.00  0.00     0.190 C 
HETATM   48  O   UNK N   1      29.138  16.516   4.317  0.00  0.00    -0.295 OA
HETATM   49  C   UNK N   1      29.523  14.107   2.972  0.00  0.00     0.048 C 
HETATM   50  O   UNK N   1      27.600  14.978   1.844  0.00  0.00    -0.349 OA
ENDBRANCH  42  43
ENDBRANCH  36  42
ENDBRANCH  32  33
ENDBRANCH  25  32
ENDBRANCH  21  22
ENDBRANCH  10  21
BRANCH  18  51
HETATM   51  C   UNK N   1      23.132  11.888   9.577  0.00  0.00     0.036 C 
HETATM   52  C   UNK N   1      22.297  12.674  10.573  0.00  0.00     0.008 C 
ENDBRANCH  18  51
BRANCH  18  53
HETATM   53  O   UNK N   1      23.594  11.425   7.296  0.00  0.00    -0.387 OA
HETATM   54  H   UNK N   1      24.032  10.610   7.003  0.00  0.00     0.210 HD
ENDBRANCH  18  53
BRANCH  16  55
HETATM   55  O   UNK N   1      19.237  14.768   5.710  0.00  0.00    -0.359 OA
HETATM   56  H   UNK N   1      18.525  15.375   5.669  0.00  0.00     0.217 HD
ENDBRANCH  16  55
BRANCH  17  57
HETATM   57  O   UNK N   1      24.849  13.723   7.391  0.00  0.00    -0.388 OA
HETATM   58  H   UNK N   1      25.603  14.254   7.089  0.00  0.00     0.210 HD
ENDBRANCH  17  57
BRANCH   9  59
HETATM   59  O   UNK N   1      18.588  18.232   2.407  0.00  0.00    -0.360 OA
HETATM   60  H   UNK N   1      18.417  17.315   2.320  0.00  0.00     0.217 HD
ENDBRANCH   9  59
TORSDOF 13
ENDMDL
MODEL 6
REMARK VINA RESULT:      -8.3      3.432      9.271
REMARK  13 active torsions:
REMARK  status: ('A' for Active; 'I' for Inactive)
REMARK    1  A    between atoms: C_40  and  C_7 
REMARK    2  A    between atoms: C_23  and  N_41 
REMARK    3  A    between atoms: O_43  and  C_25 
REMARK    4  A    between atoms: C_26  and  O_44 
REMARK    5  A    between atoms: C_27  and  O_53 
REMARK    6  A    between atoms: C_28  and  O_54 
REMARK    7  A    between atoms: C_29  and  O_53 
REMARK    8  A    between atoms: C_30  and  O_55 
REMARK    9  A    between atoms: O_47  and  C_36 
REMARK   10  A    between atoms: C_37  and  O_55 
REMARK   11  A    between atoms: C_38  and  O_54 
REMARK   12  A    between atoms: C_39  and  O_48 
REMARK   13  A    between atoms: C_40  and  O_49 
ROOT
HETATM    1  C   UNK N   1      25.793  11.253   1.420  0.00  0.00     0.004 A 
HETATM    2  C   UNK N   1      25.563  12.626   1.301  0.00  0.00     0.017 A 
HETATM    3  C   UNK N   1      26.033  10.683   2.671  0.00  0.00     0.037 A 
HETATM    4  C   UNK N   1      25.911  17.198   3.288  0.00  0.00     0.027 C 
HETATM    5  C   UNK N   1      27.503  19.173   6.738  0.00  0.00     0.078 C 
HETATM    6  C   UNK N   1      25.564  13.447   2.430  0.00  0.00     0.032 A 
HETATM    7  C   UNK N   1      25.717  15.797   3.439  0.00  0.00     0.033 C 
HETATM    8  C   UNK N   1      26.552  17.925   4.309  0.00  0.00    -0.014 C 
HETATM    9  C   UNK N   1      26.028  11.475   3.811  0.00  0.00     0.080 A 
HETATM   10  C   UNK N   1      27.998  17.794   6.272  0.00  0.00     0.164 C 
HETATM   11  C   UNK N   1      25.785  12.863   3.701  0.00  0.00     0.062 A 
HETATM   12  C   UNK N   1      26.950  17.216   5.443  0.00  0.00     0.014 C 
HETATM   13  C   UNK N   1      25.946  15.185   4.690  0.00  0.00     0.063 C 
HETATM   14  C   UNK N   1      25.406  14.926   2.291  0.00  0.00     0.194 C 
HETATM   15  C   UNK N   1      25.819  13.724   4.876  0.00  0.00     0.199 C 
HETATM   16  C   UNK N   1      26.492  15.918   5.701  0.00  0.00     0.090 C 
HETATM   17  C   UNK N   1      26.789  19.453   4.249  0.00  0.00     0.186 C 
HETATM   18  C   UNK N   1      27.542  20.096   5.498  0.00  0.00     0.090 C 
HETATM   19  O   UNK N   1      25.183  15.423   1.193  0.00  0.00    -0.287 OA
HETATM   20  O   UNK N   1      25.905  13.220   5.995  0.00  0.00    -0.286 OA
ENDROOT
BRANCH  10  21
HETATM   21  O   UNK N   1      28.453  16.776   7.158  0.00  0.00    -0.351 OA
BRANCH  21  22
HETATM   22  C   UNK N   1      29.787  16.610   7.084  0.00  0.00     0.263 C 
HETATM   23  C   UNK N   1      30.374  16.913   5.704  0.00  0.00     0.099 C 
HETATM   24  C   UNK N   1      31.943  16.868   5.766  0.00  0.00     0.258 C 
HETATM   25  C   UNK N   1      32.349  16.222   7.144  0.00  0.00     0.186 C 
HETATM   26  C   UNK N   1      31.646  17.119   8.281  0.00  0.00     0.151 C 
HETATM   27  C   UNK N   1      32.340  18.452   8.524  0.00  0.00     0.042 C 
HETATM   28  O   UNK N   1      30.349  17.501   7.982  0.00  0.00    -0.354 OA
BRANCH  24  29
HETATM   29  N   UNK N   1      32.452  16.128   4.593  0.00  0.00     0.087 N 
HETATM   30  C   UNK N   1      32.598  17.021   3.453  0.00  0.00     0.310 C 
HETATM   31  C   UNK N   1      31.473  15.131   4.170  0.00  0.00     0.310 C 
ENDBRANCH  24  29
BRANCH  25  32
HETATM   32  O   UNK N   1      33.717  15.857   7.276  0.00  0.00    -0.351 OA
BRANCH  32  33
HETATM   33  C   UNK N   1      33.963  14.531   7.671  0.00  0.00     0.263 C 
HETATM   34  C   UNK N   1      33.110  14.161   8.872  0.00  0.00     0.095 C 
HETATM   35  C   UNK N   1      33.813  14.343  10.201  0.00  0.00     0.154 C 
HETATM   36  C   UNK N   1      35.232  13.757  10.099  0.00  0.00     0.182 C 
HETATM   37  C   UNK N   1      35.952  14.564   9.035  0.00  0.00     0.152 C 
HETATM   38  C   UNK N   1      37.422  14.179   8.953  0.00  0.00     0.042 C 
HETATM   39  O   UNK N   1      35.349  14.202   7.816  0.00  0.00    -0.354 OA
BRANCH  35  40
HETATM   40  O   UNK N   1      33.848  15.691  10.572  0.00  0.00    -0.393 OA
HETATM   41  H   UNK N   1      33.908  16.656  10.498  0.00  0.00     0.210 HD
ENDBRANCH  35  40
BRANCH  36  42
HETATM   42  O   UNK N   1      35.903  13.728  11.361  0.00  0.00    -0.351 OA
BRANCH  42  43
HETATM   43  C   UNK N   1      35.018  13.198  12.354  0.00  0.00     0.261 C 
HETATM   44  C   UNK N   1      35.083  11.656  12.469  0.00  0.00     0.068 C 
HETATM   45  C   UNK N   1      36.328  11.157  13.215  0.00  0.00     0.086 C 
HETATM   46  C   UNK N   1      36.581  12.044  14.389  0.00  0.00     0.155 C 
HETATM   47  C   UNK N   1      36.520  13.501  14.123  0.00  0.00     0.190 C 
HETATM   48  O   UNK N   1      36.798  11.594  15.502  0.00  0.00    -0.295 OA
HETATM   49  C   UNK N   1      36.812  14.374  15.332  0.00  0.00     0.048 C 
HETATM   50  O   UNK N   1      35.228  13.803  13.631  0.00  0.00    -0.349 OA
ENDBRANCH  42  43
ENDBRANCH  36  42
ENDBRANCH  32  33
ENDBRANCH  25  32
ENDBRANCH  21  22
ENDBRANCH  10  21
BRANCH  18  51
HETATM   51  C   UNK N   1      26.939  21.442   5.923  0.00  0.00     0.036 C 
HETATM   52  C   UNK N   1      26.312  21.414   7.307  0.00  0.00     0.008 C 
ENDBRANCH  18  51
BRANCH  18  53
HETATM   53  O   UNK N   1      28.891  20.313   5.184  0.00  0.00    -0.387 OA
HETATM   54  H   UNK N   1      29.688  20.723   4.814  0.00  0.00     0.210 HD
ENDBRANCH  18  53
BRANCH  16  55
HETATM   55  O   UNK N   1      26.688  15.328   6.905  0.00  0.00    -0.359 OA
HETATM   56  H   UNK N   1      27.533  15.032   7.180  0.00  0.00     0.217 HD
ENDBRANCH  16  55
BRANCH  17  57
HETATM   57  O   UNK N   1      27.437  19.809   3.063  0.00  0.00    -0.388 OA
HETATM   58  H   UNK N   1      27.333  20.321   2.246  0.00  0.00     0.210 HD
ENDBRANCH  17  57
BRANCH   9  59
HETATM   59  O   UNK N   1      26.293  10.904   5.005  0.00  0.00    -0.360 OA
HETATM   60  H   UNK N   1      26.510   9.995   5.069  0.00  0.00     0.217 HD
ENDBRANCH   9  59
TORSDOF 13
ENDMDL
MODEL 7
REMARK VINA RESULT:      -8.2      3.552      9.660
REMARK  13 active torsions:
REMARK  status: ('A' for Active; 'I' for Inactive)
REMARK    1  A    between atoms: C_40  and  C_7 
REMARK    2  A    between atoms: C_23  and  N_41 
REMARK    3  A    between atoms: O_43  and  C_25 
REMARK    4  A    between atoms: C_26  and  O_44 
REMARK    5  A    between atoms: C_27  and  O_53 
REMARK    6  A    between atoms: C_28  and  O_54 
REMARK    7  A    between atoms: C_29  and  O_53 
REMARK    8  A    between atoms: C_30  and  O_55 
REMARK    9  A    between atoms: O_47  and  C_36 
REMARK   10  A    between atoms: C_37  and  O_55 
REMARK   11  A    between atoms: C_38  and  O_54 
REMARK   12  A    between atoms: C_39  and  O_48 
REMARK   13  A    between atoms: C_40  and  O_49 
ROOT
HETATM    1  C   UNK N   1      19.690  15.410   0.821  0.00  0.00     0.004 A 
HETATM    2  C   UNK N   1      20.118  16.408   1.702  0.00  0.00     0.017 A 
HETATM    3  C   UNK N   1      20.404  14.215   0.708  0.00  0.00     0.037 A 
HETATM    4  C   UNK N   1      23.780  18.360   4.484  0.00  0.00     0.027 C 
HETATM    5  C   UNK N   1      27.933  17.767   5.341  0.00  0.00     0.078 C 
HETATM    6  C   UNK N   1      21.258  16.223   2.485  0.00  0.00     0.032 A 
HETATM    7  C   UNK N   1      23.118  17.230   3.932  0.00  0.00     0.033 C 
HETATM    8  C   UNK N   1      25.173  18.322   4.681  0.00  0.00    -0.014 C 
HETATM    9  C   UNK N   1      21.534  14.003   1.485  0.00  0.00     0.080 A 
HETATM   10  C   UNK N   1      27.265  17.219   4.070  0.00  0.00     0.164 C 
HETATM   11  C   UNK N   1      21.967  15.001   2.386  0.00  0.00     0.062 A 
HETATM   12  C   UNK N   1      25.834  17.144   4.333  0.00  0.00     0.014 C 
HETATM   13  C   UNK N   1      23.804  16.003   3.805  0.00  0.00     0.063 C 
HETATM   14  C   UNK N   1      21.762  17.324   3.361  0.00  0.00     0.194 C 
HETATM   15  C   UNK N   1      23.176  14.821   3.178  0.00  0.00     0.199 C 
HETATM   16  C   UNK N   1      25.139  15.955   4.076  0.00  0.00     0.090 C 
HETATM   17  C   UNK N   1      25.981  19.490   5.295  0.00  0.00     0.186 C 
HETATM   18  C   UNK N   1      27.553  19.263   5.427  0.00  0.00     0.090 C 
HETATM   19  O   UNK N   1      21.127  18.368   3.467  0.00  0.00    -0.287 OA
HETATM   20  O   UNK N   1      23.742  13.729   3.182  0.00  0.00    -0.286 OA
ENDROOT
BRANCH  10  21
HETATM   21  O   UNK N   1      27.648  16.003   3.436  0.00  0.00    -0.351 OA
BRANCH  21  22
HETATM   22  C   UNK N   1      28.907  15.650   3.752  0.00  0.00     0.263 C 
HETATM   23  C   UNK N   1      29.331  14.291   3.190  0.00  0.00     0.099 C 
HETATM   24  C   UNK N   1      30.860  14.053   3.455  0.00  0.00     0.258 C 
HETATM   25  C   UNK N   1      31.345  15.150   4.477  0.00  0.00     0.186 C 
HETATM   26  C   UNK N   1      30.981  16.570   3.812  0.00  0.00     0.151 C 
HETATM   27  C   UNK N   1      31.922  16.977   2.686  0.00  0.00     0.042 C 
HETATM   28  O   UNK N   1      29.739  16.608   3.199  0.00  0.00    -0.354 OA
BRANCH  24  29
HETATM   29  N   UNK N   1      31.058  12.669   3.936  0.00  0.00     0.087 N 
HETATM   30  C   UNK N   1      31.981  11.957   3.064  0.00  0.00     0.310 C 
HETATM   31  C   UNK N   1      29.803  11.927   3.847  0.00  0.00     0.310 C 
ENDBRANCH  24  29
BRANCH  25  32
HETATM   32  O   UNK N   1      32.635  14.942   5.040  0.00  0.00    -0.351 OA
BRANCH  32  33
HETATM   33  C   UNK N   1      32.826  15.446   6.337  0.00  0.00     0.263 C 
HETATM   34  C   UNK N   1      34.119  16.241   6.420  0.00  0.00     0.095 C 
HETATM   35  C   UNK N   1      35.302  15.434   6.910  0.00  0.00     0.154 C 
HETATM   36  C   UNK N   1      34.869  14.607   8.134  0.00  0.00     0.182 C 
HETATM   37  C   UNK N   1      33.785  13.663   7.648  0.00  0.00     0.152 C 
HETATM   38  C   UNK N   1      33.384  12.680   8.738  0.00  0.00     0.042 C 
HETATM   39  O   UNK N   1      32.669  14.479   7.380  0.00  0.00    -0.354 OA
BRANCH  35  40
HETATM   40  O   UNK N   1      35.807  14.613   5.897  0.00  0.00    -0.393 OA
HETATM   41  H   UNK N   1      35.944  13.831   5.339  0.00  0.00     0.210 HD
ENDBRANCH  35  40
BRANCH  36  42
HETATM   42  O   UNK N   1      35.970  13.951   8.767  0.00  0.00    -0.351 OA
BRANCH  42  43
HETATM   43  C   UNK N   1      36.463  14.776   9.829  0.00  0.00     0.261 C 
HETATM   44  C   UNK N   1      35.364  15.642  10.490  0.00  0.00     0.068 C 
HETATM   45  C   UNK N   1      34.457  14.847  11.439  0.00  0.00     0.086 C 
HETATM   46  C   UNK N   1      35.292  13.898  12.231  0.00  0.00     0.155 C 
HETATM   47  C   UNK N   1      36.281  13.107  11.460  0.00  0.00     0.190 C 
HETATM   48  O   UNK N   1      35.183  13.800  13.443  0.00  0.00    -0.295 OA
HETATM   49  C   UNK N   1      37.092  12.130  12.293  0.00  0.00     0.048 C 
HETATM   50  O   UNK N   1      37.158  14.012  10.816  0.00  0.00    -0.349 OA
ENDBRANCH  42  43
ENDBRANCH  36  42
ENDBRANCH  32  33
ENDBRANCH  25  32
ENDBRANCH  21  22
ENDBRANCH  10  21
BRANCH  18  51
HETATM   51  C   UNK N   1      28.117  19.793   6.753  0.00  0.00     0.036 C 
HETATM   52  C   UNK N   1      28.172  18.743   7.849  0.00  0.00     0.008 C 
ENDBRANCH  18  51
BRANCH  18  53
HETATM   53  O   UNK N   1      28.222  19.923   4.385  0.00  0.00    -0.387 OA
HETATM   54  H   UNK N   1      28.435  20.243   3.495  0.00  0.00     0.210 HD
ENDBRANCH  18  53
BRANCH  16  55
HETATM   55  O   UNK N   1      25.785  14.768   3.973  0.00  0.00    -0.359 OA
HETATM   56  H   UNK N   1      25.365  14.004   3.632  0.00  0.00     0.217 HD
ENDBRANCH  16  55
BRANCH  17  57
HETATM   57  O   UNK N   1      25.724  20.684   4.614  0.00  0.00    -0.388 OA
HETATM   58  H   UNK N   1      26.148  21.395   4.109  0.00  0.00     0.210 HD
ENDBRANCH  17  57
BRANCH   9  59
HETATM   59  O   UNK N   1      22.223  12.851   1.333  0.00  0.00    -0.360 OA
HETATM   60  H   UNK N   1      23.096  12.763   1.659  0.00  0.00     0.217 HD
ENDBRANCH   9  59
TORSDOF 13
ENDMDL
MODEL 8
REMARK VINA RESULT:      -8.0      3.143      6.456
REMARK  13 active torsions:
REMARK  status: ('A' for Active; 'I' for Inactive)
REMARK    1  A    between atoms: C_40  and  C_7 
REMARK    2  A    between atoms: C_23  and  N_41 
REMARK    3  A    between atoms: O_43  and  C_25 
REMARK    4  A    between atoms: C_26  and  O_44 
REMARK    5  A    between atoms: C_27  and  O_53 
REMARK    6  A    between atoms: C_28  and  O_54 
REMARK    7  A    between atoms: C_29  and  O_53 
REMARK    8  A    between atoms: C_30  and  O_55 
REMARK    9  A    between atoms: O_47  and  C_36 
REMARK   10  A    between atoms: C_37  and  O_55 
REMARK   11  A    between atoms: C_38  and  O_54 
REMARK   12  A    between atoms: C_39  and  O_48 
REMARK   13  A    between atoms: C_40  and  O_49 
ROOT
HETATM    1  C   UNK N   1      33.775  16.786   8.533  0.00  0.00     0.004 A 
HETATM    2  C   UNK N   1      32.410  17.054   8.669  0.00  0.00     0.017 A 
HETATM    3  C   UNK N   1      34.363  16.738   7.267  0.00  0.00     0.037 A 
HETATM    4  C   UNK N   1      27.874  17.261   6.585  0.00  0.00     0.027 C 
HETATM    5  C   UNK N   1      25.911  16.376   2.883  0.00  0.00     0.078 C 
HETATM    6  C   UNK N   1      31.616  17.284   7.545  0.00  0.00     0.032 A 
HETATM    7  C   UNK N   1      29.285  17.414   6.490  0.00  0.00     0.033 C 
HETATM    8  C   UNK N   1      27.144  16.839   5.458  0.00  0.00    -0.014 C 
HETATM    9  C   UNK N   1      33.597  16.975   6.134  0.00  0.00     0.080 A 
HETATM   10  C   UNK N   1      27.257  15.746   3.277  0.00  0.00     0.164 C 
HETATM   11  C   UNK N   1      32.219  17.258   6.263  0.00  0.00     0.062 A 
HETATM   12  C   UNK N   1      27.860  16.609   4.283  0.00  0.00     0.014 C 
HETATM   13  C   UNK N   1      29.915  17.375   5.228  0.00  0.00     0.063 C 
HETATM   14  C   UNK N   1      30.142  17.484   7.688  0.00  0.00     0.194 C 
HETATM   15  C   UNK N   1      31.384  17.465   5.088  0.00  0.00     0.199 C 
HETATM   16  C   UNK N   1      29.182  17.045   4.127  0.00  0.00     0.090 C 
HETATM   17  C   UNK N   1      25.606  16.665   5.453  0.00  0.00     0.186 C 
HETATM   18  C   UNK N   1      24.960  16.167   4.084  0.00  0.00     0.090 C 
HETATM   19  O   UNK N   1      29.631  17.538   8.800  0.00  0.00    -0.287 OA
HETATM   20  O   UNK N   1      31.908  17.550   3.979  0.00  0.00    -0.286 OA
ENDROOT
BRANCH  10  21
HETATM   21  O   UNK N   1      28.274  15.403   2.342  0.00  0.00    -0.351 OA
BRANCH  21  22
HETATM   22  C   UNK N   1      28.663  14.122   2.473  0.00  0.00     0.263 C 
HETATM   23  C   UNK N   1      27.548  13.181   2.939  0.00  0.00     0.099 C 
HETATM   24  C   UNK N   1      28.046  11.692   2.887  0.00  0.00     0.258 C 
HETATM   25  C   UNK N   1      29.607  11.716   2.677  0.00  0.00     0.186 C 
HETATM   26  C   UNK N   1      29.863  12.569   1.336  0.00  0.00     0.151 C 
HETATM   27  C   UNK N   1      29.545  11.805   0.056  0.00  0.00     0.042 C 
HETATM   28  O   UNK N   1      29.070  13.698   1.220  0.00  0.00    -0.354 OA
BRANCH  24  29
HETATM   29  N   UNK N   1      27.626  10.999   4.122  0.00  0.00     0.087 N 
HETATM   30  C   UNK N   1      26.760   9.873   3.803  0.00  0.00     0.310 C 
HETATM   31  C   UNK N   1      26.805  11.889   4.939  0.00  0.00     0.310 C 
ENDBRANCH  24  29
BRANCH  25  32
HETATM   32  O   UNK N   1      30.275  10.475   2.865  0.00  0.00    -0.351 OA
BRANCH  32  33
HETATM   33  C   UNK N   1      31.640  10.555   3.188  0.00  0.00     0.263 C 
HETATM   34  C   UNK N   1      32.030   9.446   4.150  0.00  0.00     0.095 C 
HETATM   35  C   UNK N   1      31.995   9.859   5.607  0.00  0.00     0.154 C 
HETATM   36  C   UNK N   1      32.677  11.231   5.752  0.00  0.00     0.182 C 
HETATM   37  C   UNK N   1      31.851  12.206   4.933  0.00  0.00     0.152 C 
HETATM   38  C   UNK N   1      32.337  13.635   5.125  0.00  0.00     0.042 C 
HETATM   39  O   UNK N   1      32.080  11.856   3.588  0.00  0.00    -0.354 OA
BRANCH  35  40
HETATM   40  O   UNK N   1      30.684   9.891   6.090  0.00  0.00    -0.393 OA
HETATM   41  H   UNK N   1      29.730  10.064   6.130  0.00  0.00     0.210 HD
ENDBRANCH  35  40
BRANCH  36  42
HETATM   42  O   UNK N   1      32.845  11.616   7.118  0.00  0.00    -0.351 OA
BRANCH  42  43
HETATM   43  C   UNK N   1      34.128  11.177   7.577  0.00  0.00     0.261 C 
HETATM   44  C   UNK N   1      35.278  11.527   6.602  0.00  0.00     0.068 C 
HETATM   45  C   UNK N   1      35.689  13.004   6.657  0.00  0.00     0.086 C 
HETATM   46  C   UNK N   1      35.701  13.455   8.080  0.00  0.00     0.155 C 
HETATM   47  C   UNK N   1      34.516  13.077   8.887  0.00  0.00     0.190 C 
HETATM   48  O   UNK N   1      36.641  14.074   8.553  0.00  0.00    -0.295 OA
HETATM   49  C   UNK N   1      34.547  13.578  10.322  0.00  0.00     0.048 C 
HETATM   50  O   UNK N   1      34.419  11.665   8.888  0.00  0.00    -0.349 OA
ENDBRANCH  42  43
ENDBRANCH  36  42
ENDBRANCH  32  33
ENDBRANCH  25  32
ENDBRANCH  21  22
ENDBRANCH  10  21
BRANCH  18  51
HETATM   51  C   UNK N   1      23.651  16.895   3.749  0.00  0.00     0.036 C 
HETATM   52  C   UNK N   1      23.596  18.317   4.281  0.00  0.00     0.008 C 
ENDBRANCH  18  51
BRANCH  18  53
HETATM   53  O   UNK N   1      24.679  14.795   4.158  0.00  0.00    -0.387 OA
HETATM   54  H   UNK N   1      24.234  13.945   4.017  0.00  0.00     0.210 HD
ENDBRANCH  18  53
BRANCH  16  55
HETATM   55  O   UNK N   1      29.790  17.032   2.916  0.00  0.00    -0.359 OA
HETATM   56  H   UNK N   1      30.723  17.017   2.830  0.00  0.00     0.217 HD
ENDBRANCH  16  55
BRANCH  17  57
HETATM   57  O   UNK N   1      25.196  15.840   6.505  0.00  0.00    -0.388 OA
HETATM   58  H   UNK N   1      24.567  15.775   7.240  0.00  0.00     0.210 HD
ENDBRANCH  17  57
BRANCH   9  59
HETATM   59  O   UNK N   1      34.183  16.892   4.921  0.00  0.00    -0.360 OA
HETATM   60  H   UNK N   1      34.739  16.172   4.700  0.00  0.00     0.217 HD
ENDBRANCH   9  59
TORSDOF 13
ENDMDL
MODEL 9
REMARK VINA RESULT:      -8.0      8.175     12.933
REMARK  13 active torsions:
REMARK  status: ('A' for Active; 'I' for Inactive)
REMARK    1  A    between atoms: C_40  and  C_7 
REMARK    2  A    between atoms: C_23  and  N_41 
REMARK    3  A    between atoms: O_43  and  C_25 
REMARK    4  A    between atoms: C_26  and  O_44 
REMARK    5  A    between atoms: C_27  and  O_53 
REMARK    6  A    between atoms: C_28  and  O_54 
REMARK    7  A    between atoms: C_29  and  O_53 
REMARK    8  A    between atoms: C_30  and  O_55 
REMARK    9  A    between atoms: O_47  and  C_36 
REMARK   10  A    between atoms: C_37  and  O_55 
REMARK   11  A    between atoms: C_38  and  O_54 
REMARK   12  A    between atoms: C_39  and  O_48 
REMARK   13  A    between atoms: C_40  and  O_49 
ROOT
HETATM    1  C   UNK N   1      32.946   5.396  19.335  0.00  0.00     0.004 A 
HETATM    2  C   UNK N   1      33.173   6.762  19.522  0.00  0.00     0.017 A 
HETATM    3  C   UNK N   1      33.715   4.671  18.422  0.00  0.00     0.037 A 
HETATM    4  C   UNK N   1      35.143  11.030  17.829  0.00  0.00     0.027 C 
HETATM    5  C   UNK N   1      37.177  12.580  14.394  0.00  0.00     0.078 C 
HETATM    6  C   UNK N   1      34.173   7.421  18.805  0.00  0.00     0.032 A 
HETATM    7  C   UNK N   1      35.191   9.615  17.962  0.00  0.00     0.033 C 
HETATM    8  C   UNK N   1      35.663  11.637  16.669  0.00  0.00    -0.014 C 
HETATM    9  C   UNK N   1      34.723   5.300  17.706  0.00  0.00     0.080 A 
HETATM   10  C   UNK N   1      36.329  11.299  14.344  0.00  0.00     0.164 C 
HETATM   11  C   UNK N   1      34.967   6.678  17.897  0.00  0.00     0.062 A 
HETATM   12  C   UNK N   1      36.225  10.797  15.708  0.00  0.00     0.014 C 
HETATM   13  C   UNK N   1      35.960   8.848  17.062  0.00  0.00     0.063 C 
HETATM   14  C   UNK N   1      34.355   8.897  18.942  0.00  0.00     0.194 C 
HETATM   15  C   UNK N   1      35.989   7.372  17.124  0.00  0.00     0.199 C 
HETATM   16  C   UNK N   1      36.530   9.459  15.984  0.00  0.00     0.090 C 
HETATM   17  C   UNK N   1      35.677  13.167  16.440  0.00  0.00     0.186 C 
HETATM   18  C   UNK N   1      36.298  13.664  15.059  0.00  0.00     0.090 C 
HETATM   19  O   UNK N   1      33.688   9.530  19.752  0.00  0.00    -0.287 OA
HETATM   20  O   UNK N   1      36.754   6.724  16.411  0.00  0.00    -0.286 OA
ENDROOT
BRANCH  10  21
HETATM   21  O   UNK N   1      36.620  10.189  13.501  0.00  0.00    -0.351 OA
BRANCH  21  22
HETATM   22  C   UNK N   1      36.285  10.434  12.221  0.00  0.00     0.263 C 
HETATM   23  C   UNK N   1      37.131   9.667  11.201  0.00  0.00     0.099 C 
HETATM   24  C   UNK N   1      36.551   9.875   9.757  0.00  0.00     0.258 C 
HETATM   25  C   UNK N   1      35.500  11.046   9.828  0.00  0.00     0.186 C 
HETATM   26  C   UNK N   1      34.421  10.610  10.940  0.00  0.00     0.151 C 
HETATM   27  C   UNK N   1      33.440   9.549  10.457  0.00  0.00     0.042 C 
HETATM   28  O   UNK N   1      34.973  10.024  12.067  0.00  0.00    -0.354 OA
BRANCH  24  29
HETATM   29  N   UNK N   1      37.665  10.137   8.822  0.00  0.00     0.087 N 
HETATM   30  C   UNK N   1      38.509   8.957   8.695  0.00  0.00     0.310 C 
HETATM   31  C   UNK N   1      38.540  11.171   9.366  0.00  0.00     0.310 C 
ENDBRANCH  24  29
BRANCH  25  32
HETATM   32  O   UNK N   1      35.059  11.557   8.576  0.00  0.00    -0.351 OA
BRANCH  32  33
HETATM   33  C   UNK N   1      35.162  12.948   8.410  0.00  0.00     0.263 C 
HETATM   34  C   UNK N   1      34.469  13.679   9.547  0.00  0.00     0.095 C 
HETATM   35  C   UNK N   1      33.041  14.076   9.238  0.00  0.00     0.154 C 
HETATM   36  C   UNK N   1      32.989  14.693   7.829  0.00  0.00     0.182 C 
HETATM   37  C   UNK N   1      33.425  13.602   6.869  0.00  0.00     0.152 C 
HETATM   38  C   UNK N   1      33.263  14.044   5.423  0.00  0.00     0.042 C 
HETATM   39  O   UNK N   1      34.801  13.420   7.108  0.00  0.00    -0.354 OA
BRANCH  35  40
HETATM   40  O   UNK N   1      32.179  12.980   9.343  0.00  0.00    -0.393 OA
HETATM   41  H   UNK N   1      31.846  12.071   9.277  0.00  0.00     0.210 HD
ENDBRANCH  35  40
BRANCH  36  42
HETATM   42  O   UNK N   1      31.710  15.256   7.527  0.00  0.00    -0.351 OA
BRANCH  42  43
HETATM   43  C   UNK N   1      31.864  16.651   7.243  0.00  0.00     0.261 C 
HETATM   44  C   UNK N   1      31.251  17.069   5.885  0.00  0.00     0.068 C 
HETATM   45  C   UNK N   1      29.720  17.177   5.920  0.00  0.00     0.086 C 
HETATM   46  C   UNK N   1      29.306  17.821   7.202  0.00  0.00     0.155 C 
HETATM   47  C   UNK N   1      29.952  17.294   8.428  0.00  0.00     0.190 C 
HETATM   48  O   UNK N   1      28.505  18.741   7.231  0.00  0.00    -0.295 OA
HETATM   49  C   UNK N   1      29.485  17.952   9.716  0.00  0.00     0.048 C 
HETATM   50  O   UNK N   1      31.350  17.468   8.296  0.00  0.00    -0.349 OA
ENDBRANCH  42  43
ENDBRANCH  36  42
ENDBRANCH  32  33
ENDBRANCH  25  32
ENDBRANCH  21  22
ENDBRANCH  10  21
BRANCH  18  51
HETATM   51  C   UNK N   1      37.174  14.914  15.220  0.00  0.00     0.036 C 
HETATM   52  C   UNK N   1      37.214  15.446  16.642  0.00  0.00     0.008 C 
ENDBRANCH  18  51
BRANCH  18  53
HETATM   53  O   UNK N   1      35.270  13.977  14.157  0.00  0.00    -0.387 OA
HETATM   54  H   UNK N   1      34.448  14.349  13.802  0.00  0.00     0.210 HD
ENDBRANCH  18  53
BRANCH  16  55
HETATM   55  O   UNK N   1      37.285   8.718  15.136  0.00  0.00    -0.359 OA
HETATM   56  H   UNK N   1      38.030   9.075  14.696  0.00  0.00     0.217 HD
ENDBRANCH  16  55
BRANCH  17  57
HETATM   57  O   UNK N   1      34.399  13.708  16.614  0.00  0.00    -0.388 OA
HETATM   58  H   UNK N   1      33.816  14.427  16.326  0.00  0.00     0.210 HD
ENDBRANCH  17  57
BRANCH   9  59
HETATM   59  O   UNK N   1      35.431   4.582  16.808  0.00  0.00    -0.360 OA
HETATM   60  H   UNK N   1      36.157   4.958  16.351  0.00  0.00     0.217 HD
ENDBRANCH   9  59
TORSDOF 13
ENDMDL
