MODEL 1
REMARK VINA RESULT:      -6.2      0.000      0.000
REMARK  4 active torsions:
REMARK  status: ('A' for Active; 'I' for Inactive)
REMARK    1  A    between atoms: N_1  and  C_2 
REMARK    2  A    between atoms: C_14  and  N_13 
REMARK    3  A    between atoms: C_17  and  O_18 
REMARK    4  A    between atoms: C_19  and  O_20 
ROOT
HETATM    1  C   UNK N   1      36.361  13.482  12.433  0.00  0.00     0.131 A 
HETATM    2  N   UNK N   1      35.487  12.532  11.981  0.00  0.00    -0.337 N 
ATOM      3  HN  UNK N   1      35.436  12.331  10.982  1.00  0.00     0.168 HD
HETATM    4  C   UNK N   1      34.677  11.846  12.852  0.00  0.00     0.183 A 
HETATM    5  N   UNK N   1      34.722  12.107  14.195  0.00  0.00    -0.336 N 
ATOM      6  HN  UNK N   1      34.117  11.611  14.848  1.00  0.00     0.168 HD
HETATM    7  C   UNK N   1      35.599  13.045  14.630  0.00  0.00     0.141 A 
HETATM    8  C   UNK N   1      36.408  13.724  13.796  0.00  0.00     0.122 A 
HETATM    9  N   UNK N   1      37.168  14.585  14.500  0.00  0.00    -0.346 N 
ATOM     10  HN  UNK N   1      37.873  15.231  14.145  1.00  0.00     0.167 HD
HETATM   11  C   UNK N   1      36.782  14.396  15.794  0.00  0.00     0.186 A 
HETATM   12  N   UNK N   1      35.810  13.448  15.889  0.00  0.00    -0.316 N 
ENDROOT
BRANCH  12  13
HETATM   13  C   UNK N   1      35.083  13.008  17.084  0.00  0.00     0.146 C 
HETATM   14  C   UNK N   1      35.308  11.580  17.435  0.00  0.00    -0.000 C 
HETATM   15  C   UNK N   1      35.296  11.409  18.747  0.00  0.00     0.005 C 
HETATM   16  C   UNK N   1      35.118  12.705  19.458  0.00  0.00     0.171 C 
HETATM   17  C   UNK N   1      35.539  13.688  18.371  0.00  0.00     0.177 C 
BRANCH  16  18
HETATM   18  O   UNK N   1      35.980  12.795  20.549  0.00  0.00    -0.389 OA
HETATM   19  H   UNK N   1      36.938  12.837  20.690  0.00  0.00     0.210 HD
ENDBRANCH  16  18
BRANCH  17  20
HETATM   20  O   UNK N   1      34.970  14.948  18.547  0.00  0.00    -0.390 OA
HETATM   21  H   UNK N   1      35.207  15.762  19.018  0.00  0.00     0.210 HD
ENDBRANCH  17  20
ENDBRANCH  12  13
BRANCH   1  22
HETATM   22  N   UNK N   1      37.180  14.191  11.531  0.00  0.00    -0.383 N 
HETATM   23  H   UNK N   1      38.122  14.385  11.740  0.00  0.00     0.157 HD
HETATM   24  H   UNK N   1      36.802  14.498  10.675  0.00  0.00     0.157 HD
ENDBRANCH   1  22
TORSDOF 4
ENDMDL
MODEL 2
REMARK VINA RESULT:      -6.0      9.693     11.196
REMARK  4 active torsions:
REMARK  status: ('A' for Active; 'I' for Inactive)
REMARK    1  A    between atoms: N_1  and  C_2 
REMARK    2  A    between atoms: C_14  and  N_13 
REMARK    3  A    between atoms: C_17  and  O_18 
REMARK    4  A    between atoms: C_19  and  O_20 
ROOT
HETATM    1  C   UNK N   1      28.319  18.458   7.735  0.00  0.00     0.131 A 
HETATM    2  N   UNK N   1      28.337  18.702   9.081  0.00  0.00    -0.337 N 
ATOM      3  HN  UNK N   1      27.536  19.156   9.519  1.00  0.00     0.168 HD
HETATM    4  C   UNK N   1      29.417  18.343   9.850  0.00  0.00     0.183 A 
HETATM    5  N   UNK N   1      30.506  17.741   9.280  0.00  0.00    -0.336 N 
ATOM      6  HN  UNK N   1      31.316  17.482   9.841  1.00  0.00     0.168 HD
HETATM    7  C   UNK N   1      30.472  17.498   7.947  0.00  0.00     0.141 A 
HETATM    8  C   UNK N   1      29.421  17.833   7.175  0.00  0.00     0.122 A 
HETATM    9  N   UNK N   1      29.661  17.473   5.899  0.00  0.00    -0.346 N 
ATOM     10  HN  UNK N   1      29.052  17.596   5.090  1.00  0.00     0.167 HD
HETATM   11  C   UNK N   1      30.902  16.907   5.936  0.00  0.00     0.186 A 
HETATM   12  N   UNK N   1      31.416  16.919   7.196  0.00  0.00    -0.316 N 
ENDROOT
BRANCH  12  13
HETATM   13  C   UNK N   1      32.740  16.475   7.640  0.00  0.00     0.146 C 
HETATM   14  C   UNK N   1      32.872  14.998   7.764  0.00  0.00    -0.000 C 
HETATM   15  C   UNK N   1      34.094  14.605   7.445  0.00  0.00     0.005 C 
HETATM   16  C   UNK N   1      34.934  15.755   7.009  0.00  0.00     0.171 C 
HETATM   17  C   UNK N   1      33.859  16.773   6.647  0.00  0.00     0.177 C 
BRANCH  16  18
HETATM   18  O   UNK N   1      35.683  15.423   5.882  0.00  0.00    -0.389 OA
HETATM   19  H   UNK N   1      36.616  15.455   5.621  0.00  0.00     0.210 HD
ENDBRANCH  16  18
BRANCH  17  20
HETATM   20  O   UNK N   1      34.322  18.086   6.733  0.00  0.00    -0.390 OA
HETATM   21  H   UNK N   1      34.025  18.953   6.417  0.00  0.00     0.210 HD
ENDBRANCH  17  20
ENDBRANCH  12  13
BRANCH   1  22
HETATM   22  N   UNK N   1      27.212  18.841   6.951  0.00  0.00    -0.383 N 
HETATM   23  H   UNK N   1      26.338  19.032   7.360  0.00  0.00     0.157 HD
HETATM   24  H   UNK N   1      27.317  18.919   5.975  0.00  0.00     0.157 HD
ENDBRANCH   1  22
TORSDOF 4
ENDMDL
MODEL 3
REMARK VINA RESULT:      -6.0      8.130     10.107
REMARK  4 active torsions:
REMARK  status: ('A' for Active; 'I' for Inactive)
REMARK    1  A    between atoms: N_1  and  C_2 
REMARK    2  A    between atoms: C_14  and  N_13 
REMARK    3  A    between atoms: C_17  and  O_18 
REMARK    4  A    between atoms: C_19  and  O_20 
ROOT
HETATM    1  C   UNK N   1      28.412  18.249   7.771  0.00  0.00     0.131 A 
HETATM    2  N   UNK N   1      28.481  18.754   9.040  0.00  0.00    -0.337 N 
ATOM      3  HN  UNK N   1      27.740  19.368   9.377  1.00  0.00     0.168 HD
HETATM    4  C   UNK N   1      29.533  18.445   9.867  0.00  0.00     0.183 A 
HETATM    5  N   UNK N   1      30.543  17.631   9.432  0.00  0.00    -0.336 N 
ATOM      6  HN  UNK N   1      31.334  17.405  10.034  1.00  0.00     0.168 HD
HETATM    7  C   UNK N   1      30.459  17.131   8.174  0.00  0.00     0.141 A 
HETATM    8  C   UNK N   1      29.433  17.412   7.350  0.00  0.00     0.122 A 
HETATM    9  N   UNK N   1      29.609  16.782   6.172  0.00  0.00    -0.346 N 
ATOM     10  HN  UNK N   1      29.001  16.803   5.354  1.00  0.00     0.167 HD
HETATM   11  C   UNK N   1      30.786  16.108   6.323  0.00  0.00     0.186 A 
HETATM   12  N   UNK N   1      31.323  16.317   7.556  0.00  0.00    -0.316 N 
ENDROOT
BRANCH  12  13
HETATM   13  C   UNK N   1      32.603  15.836   8.083  0.00  0.00     0.146 C 
HETATM   14  C   UNK N   1      33.493  16.917   8.587  0.00  0.00    -0.000 C 
HETATM   15  C   UNK N   1      34.199  16.500   9.626  0.00  0.00     0.005 C 
HETATM   16  C   UNK N   1      33.840  15.102   9.997  0.00  0.00     0.171 C 
HETATM   17  C   UNK N   1      32.473  14.973   9.334  0.00  0.00     0.177 C 
BRANCH  16  18
HETATM   18  O   UNK N   1      33.720  14.971  11.379  0.00  0.00    -0.389 OA
HETATM   19  H   UNK N   1      34.310  15.028  12.146  0.00  0.00     0.210 HD
ENDBRANCH  16  18
BRANCH  17  20
HETATM   20  O   UNK N   1      32.148  13.648   9.045  0.00  0.00    -0.390 OA
HETATM   21  H   UNK N   1      32.457  12.775   9.331  0.00  0.00     0.210 HD
ENDBRANCH  17  20
ENDBRANCH  12  13
BRANCH   1  22
HETATM   22  N   UNK N   1      27.335  18.580   6.924  0.00  0.00    -0.383 N 
HETATM   23  H   UNK N   1      26.733  19.331   7.133  0.00  0.00     0.157 HD
HETATM   24  H   UNK N   1      27.183  18.052   6.108  0.00  0.00     0.157 HD
ENDBRANCH   1  22
TORSDOF 4
ENDMDL
MODEL 4
REMARK VINA RESULT:      -5.9      4.620      6.296
REMARK  4 active torsions:
REMARK  status: ('A' for Active; 'I' for Inactive)
REMARK    1  A    between atoms: N_1  and  C_2 
REMARK    2  A    between atoms: C_14  and  N_13 
REMARK    3  A    between atoms: C_17  and  O_18 
REMARK    4  A    between atoms: C_19  and  O_20 
ROOT
HETATM    1  C   UNK N   1      34.447  17.396   8.226  0.00  0.00     0.131 A 
HETATM    2  N   UNK N   1      34.361  16.666   7.073  0.00  0.00    -0.337 N 
ATOM      3  HN  UNK N   1      34.043  17.117   6.215  1.00  0.00     0.168 HD
HETATM    4  C   UNK N   1      34.699  15.335   7.053  0.00  0.00     0.183 A 
HETATM    5  N   UNK N   1      35.120  14.708   8.194  0.00  0.00    -0.336 N 
ATOM      6  HN  UNK N   1      35.362  13.718   8.192  1.00  0.00     0.168 HD
HETATM    7  C   UNK N   1      35.207  15.445   9.329  0.00  0.00     0.141 A 
HETATM    8  C   UNK N   1      34.890  16.752   9.370  0.00  0.00     0.122 A 
HETATM    9  N   UNK N   1      35.072  17.226  10.618  0.00  0.00    -0.346 N 
ATOM     10  HN  UNK N   1      34.916  18.175  10.956  1.00  0.00     0.167 HD
HETATM   11  C   UNK N   1      35.513  16.147  11.327  0.00  0.00     0.186 A 
HETATM   12  N   UNK N   1      35.598  15.038  10.542  0.00  0.00    -0.316 N 
ENDROOT
BRANCH  12  13
HETATM   13  C   UNK N   1      35.958  13.673  10.935  0.00  0.00     0.146 C 
HETATM   14  C   UNK N   1      37.382  13.326  10.678  0.00  0.00    -0.000 C 
HETATM   15  C   UNK N   1      37.843  12.506  11.608  0.00  0.00     0.005 C 
HETATM   16  C   UNK N   1      36.812  12.234  12.647  0.00  0.00     0.171 C 
HETATM   17  C   UNK N   1      35.875  13.418  12.437  0.00  0.00     0.177 C 
BRANCH  16  18
HETATM   18  O   UNK N   1      37.369  12.281  13.923  0.00  0.00    -0.389 OA
HETATM   19  H   UNK N   1      37.178  12.731  14.761  0.00  0.00     0.210 HD
ENDBRANCH  16  18
BRANCH  17  20
HETATM   20  O   UNK N   1      34.576  13.150  12.868  0.00  0.00    -0.390 OA
HETATM   21  H   UNK N   1      34.156  12.505  13.458  0.00  0.00     0.210 HD
ENDBRANCH  17  20
ENDBRANCH  12  13
BRANCH   1  22
HETATM   22  N   UNK N   1      34.085  18.759   8.241  0.00  0.00    -0.383 N 
HETATM   23  H   UNK N   1      33.174  19.048   8.008  0.00  0.00     0.157 HD
HETATM   24  H   UNK N   1      34.757  19.433   8.491  0.00  0.00     0.157 HD
ENDBRANCH   1  22
TORSDOF 4
ENDMDL
MODEL 5
REMARK VINA RESULT:      -5.8      8.074     10.218
REMARK  4 active torsions:
REMARK  status: ('A' for Active; 'I' for Inactive)
REMARK    1  A    between atoms: N_1  and  C_2 
REMARK    2  A    between atoms: C_14  and  N_13 
REMARK    3  A    between atoms: C_17  and  O_18 
REMARK    4  A    between atoms: C_19  and  O_20 
ROOT
HETATM    1  C   UNK N   1      34.248  14.675   8.419  0.00  0.00     0.131 A 
HETATM    2  N   UNK N   1      34.905  15.610   9.170  0.00  0.00    -0.337 N 
ATOM      3  HN  UNK N   1      35.811  15.380   9.579  1.00  0.00     0.168 HD
HETATM    4  C   UNK N   1      34.363  16.854   9.382  0.00  0.00     0.183 A 
HETATM    5  N   UNK N   1      33.145  17.181   8.851  0.00  0.00    -0.336 N 
ATOM      6  HN  UNK N   1      32.729  18.097   9.013  1.00  0.00     0.168 HD
HETATM    7  C   UNK N   1      32.507  16.247   8.103  0.00  0.00     0.141 A 
HETATM    8  C   UNK N   1      33.023  15.025   7.874  0.00  0.00     0.122 A 
HETATM    9  N   UNK N   1      32.180  14.312   7.102  0.00  0.00    -0.346 N 
ATOM     10  HN  UNK N   1      32.298  13.357   6.764  1.00  0.00     0.167 HD
HETATM   11  C   UNK N   1      31.135  15.158   6.875  0.00  0.00     0.186 A 
HETATM   12  N   UNK N   1      31.323  16.357   7.490  0.00  0.00    -0.316 N 
ENDROOT
BRANCH  12  13
HETATM   13  C   UNK N   1      30.408  17.501   7.550  0.00  0.00     0.146 C 
HETATM   14  C   UNK N   1      29.267  17.411   6.600  0.00  0.00    -0.000 C 
HETATM   15  C   UNK N   1      28.178  17.956   7.117  0.00  0.00     0.005 C 
HETATM   16  C   UNK N   1      28.422  18.436   8.506  0.00  0.00     0.171 C 
HETATM   17  C   UNK N   1      29.661  17.626   8.874  0.00  0.00     0.177 C 
BRANCH  16  18
HETATM   18  O   UNK N   1      27.359  18.100   9.342  0.00  0.00    -0.389 OA
HETATM   19  H   UNK N   1      26.422  18.333   9.419  0.00  0.00     0.210 HD
ENDBRANCH  16  18
BRANCH  17  20
HETATM   20  O   UNK N   1      30.421  18.243   9.867  0.00  0.00    -0.390 OA
HETATM   21  H   UNK N   1      31.100  18.934   9.898  0.00  0.00     0.210 HD
ENDBRANCH  17  20
ENDBRANCH  12  13
BRANCH   1  22
HETATM   22  N   UNK N   1      34.805  13.396   8.217  0.00  0.00    -0.383 N 
HETATM   23  H   UNK N   1      34.291  12.679   7.780  0.00  0.00     0.157 HD
HETATM   24  H   UNK N   1      35.725  13.217   8.518  0.00  0.00     0.157 HD
ENDBRANCH   1  22
TORSDOF 4
ENDMDL
MODEL 6
REMARK VINA RESULT:      -5.8     12.610     14.255
REMARK  4 active torsions:
REMARK  status: ('A' for Active; 'I' for Inactive)
REMARK    1  A    between atoms: N_1  and  C_2 
REMARK    2  A    between atoms: C_14  and  N_13 
REMARK    3  A    between atoms: C_17  and  O_18 
REMARK    4  A    between atoms: C_19  and  O_20 
ROOT
HETATM    1  C   UNK N   1      25.266  19.605   3.445  0.00  0.00     0.131 A 
HETATM    2  N   UNK N   1      24.157  18.931   3.877  0.00  0.00    -0.337 N 
ATOM      3  HN  UNK N   1      23.265  19.078   3.405  1.00  0.00     0.168 HD
HETATM    4  C   UNK N   1      24.228  18.059   4.936  0.00  0.00     0.183 A 
HETATM    5  N   UNK N   1      25.413  17.855   5.590  0.00  0.00    -0.336 N 
ATOM      6  HN  UNK N   1      25.473  17.219   6.384  1.00  0.00     0.168 HD
HETATM    7  C   UNK N   1      26.506  18.524   5.147  0.00  0.00     0.141 A 
HETATM    8  C   UNK N   1      26.462  19.376   4.106  0.00  0.00     0.122 A 
HETATM    9  N   UNK N   1      27.688  19.892   3.888  0.00  0.00    -0.346 N 
ATOM     10  HN  UNK N   1      27.965  20.563   3.172  1.00  0.00     0.167 HD
HETATM   11  C   UNK N   1      28.471  19.314   4.843  0.00  0.00     0.186 A 
HETATM   12  N   UNK N   1      27.753  18.467   5.630  0.00  0.00    -0.316 N 
ENDROOT
BRANCH  12  13
HETATM   13  C   UNK N   1      28.205  17.714   6.803  0.00  0.00     0.146 C 
HETATM   14  C   UNK N   1      29.505  17.018   6.609  0.00  0.00    -0.000 C 
HETATM   15  C   UNK N   1      30.201  16.995   7.734  0.00  0.00     0.005 C 
HETATM   16  C   UNK N   1      29.490  17.721   8.823  0.00  0.00     0.171 C 
HETATM   17  C   UNK N   1      28.532  18.586   8.011  0.00  0.00     0.177 C 
BRANCH  16  18
HETATM   18  O   UNK N   1      30.373  18.524   9.542  0.00  0.00    -0.389 OA
HETATM   19  H   UNK N   1      30.335  19.076  10.339  0.00  0.00     0.210 HD
ENDBRANCH  16  18
BRANCH  17  20
HETATM   20  O   UNK N   1      27.399  18.947   8.739  0.00  0.00    -0.390 OA
HETATM   21  H   UNK N   1      27.084  19.746   9.192  0.00  0.00     0.210 HD
ENDBRANCH  17  20
ENDBRANCH  12  13
BRANCH   1  22
HETATM   22  N   UNK N   1      25.182  20.508   2.366  0.00  0.00    -0.383 N 
HETATM   23  H   UNK N   1      24.333  20.949   2.134  0.00  0.00     0.157 HD
HETATM   24  H   UNK N   1      25.988  20.701   1.835  0.00  0.00     0.157 HD
ENDBRANCH   1  22
TORSDOF 4
ENDMDL
MODEL 7
REMARK VINA RESULT:      -5.6      8.124     10.175
REMARK  4 active torsions:
REMARK  status: ('A' for Active; 'I' for Inactive)
REMARK    1  A    between atoms: N_1  and  C_2 
REMARK    2  A    between atoms: C_14  and  N_13 
REMARK    3  A    between atoms: C_17  and  O_18 
REMARK    4  A    between atoms: C_19  and  O_20 
ROOT
HETATM    1  C   UNK N   1      30.507  17.639   4.553  0.00  0.00     0.131 A 
HETATM    2  N   UNK N   1      31.511  17.592   3.625  0.00  0.00    -0.337 N 
ATOM      3  HN  UNK N   1      31.331  17.914   2.674  1.00  0.00     0.168 HD
HETATM    4  C   UNK N   1      32.757  17.119   3.956  0.00  0.00     0.183 A 
HETATM    5  N   UNK N   1      33.017  16.673   5.224  0.00  0.00    -0.336 N 
ATOM      6  HN  UNK N   1      33.935  16.309   5.476  1.00  0.00     0.168 HD
HETATM    7  C   UNK N   1      32.015  16.732   6.135  0.00  0.00     0.141 A 
HETATM    8  C   UNK N   1      30.789  17.201   5.836  0.00  0.00     0.122 A 
HETATM    9  N   UNK N   1      30.002  17.144   6.928  0.00  0.00    -0.346 N 
ATOM     10  HN  UNK N   1      29.025  17.428   7.010  1.00  0.00     0.167 HD
HETATM   11  C   UNK N   1      30.806  16.622   7.898  0.00  0.00     0.186 A 
HETATM   12  N   UNK N   1      32.054  16.360   7.420  0.00  0.00    -0.316 N 
ENDROOT
BRANCH  12  13
HETATM   13  C   UNK N   1      33.180  15.734   8.118  0.00  0.00     0.146 C 
HETATM   14  C   UNK N   1      34.123  16.706   8.735  0.00  0.00    -0.000 C 
HETATM   15  C   UNK N   1      34.625  16.226   9.861  0.00  0.00     0.005 C 
HETATM   16  C   UNK N   1      34.046  14.893  10.186  0.00  0.00     0.171 C 
HETATM   17  C   UNK N   1      32.774  14.921   9.343  0.00  0.00     0.177 C 
BRANCH  16  18
HETATM   18  O   UNK N   1      33.726  14.806  11.539  0.00  0.00    -0.389 OA
HETATM   19  H   UNK N   1      34.206  14.836  12.380  0.00  0.00     0.210 HD
ENDBRANCH  16  18
BRANCH  17  20
HETATM   20  O   UNK N   1      32.326  13.641   9.018  0.00  0.00    -0.390 OA
HETATM   21  H   UNK N   1      31.811  12.948   9.460  0.00  0.00     0.210 HD
ENDBRANCH  17  20
ENDBRANCH  12  13
BRANCH   1  22
HETATM   22  N   UNK N   1      29.227  18.114   4.202  0.00  0.00    -0.383 N 
HETATM   23  H   UNK N   1      29.023  18.399   3.282  0.00  0.00     0.157 HD
HETATM   24  H   UNK N   1      28.525  18.162   4.890  0.00  0.00     0.157 HD
ENDBRANCH   1  22
TORSDOF 4
ENDMDL
MODEL 8
REMARK VINA RESULT:      -5.6      4.667      7.730
REMARK  4 active torsions:
REMARK  status: ('A' for Active; 'I' for Inactive)
REMARK    1  A    between atoms: N_1  and  C_2 
REMARK    2  A    between atoms: C_14  and  N_13 
REMARK    3  A    between atoms: C_17  and  O_18 
REMARK    4  A    between atoms: C_19  and  O_20 
ROOT
HETATM    1  C   UNK N   1      35.142  12.884  13.208  0.00  0.00     0.131 A 
HETATM    2  N   UNK N   1      35.892  13.762  13.941  0.00  0.00    -0.337 N 
ATOM      3  HN  UNK N   1      36.075  13.566  14.925  1.00  0.00     0.168 HD
HETATM    4  C   UNK N   1      36.404  14.902  13.371  0.00  0.00     0.183 A 
HETATM    5  N   UNK N   1      36.163  15.189  12.055  0.00  0.00    -0.336 N 
ATOM      6  HN  UNK N   1      36.528  16.039  11.626  1.00  0.00     0.168 HD
HETATM    7  C   UNK N   1      35.424  14.307  11.337  0.00  0.00     0.141 A 
HETATM    8  C   UNK N   1      34.921  13.180  11.872  0.00  0.00     0.122 A 
HETATM    9  N   UNK N   1      34.235  12.498  10.934  0.00  0.00    -0.346 N 
ATOM     10  HN  UNK N   1      33.744  11.610  11.040  1.00  0.00     0.167 HD
HETATM   11  C   UNK N   1      34.348  13.263   9.811  0.00  0.00     0.186 A 
HETATM   12  N   UNK N   1      35.079  14.387  10.047  0.00  0.00    -0.316 N 
ENDROOT
BRANCH  12  13
HETATM   13  C   UNK N   1      35.367  15.493   9.129  0.00  0.00     0.146 C 
HETATM   14  C   UNK N   1      34.830  15.293   7.756  0.00  0.00    -0.000 C 
HETATM   15  C   UNK N   1      34.451  16.444   7.225  0.00  0.00     0.005 C 
HETATM   16  C   UNK N   1      34.628  17.567   8.188  0.00  0.00     0.171 C 
HETATM   17  C   UNK N   1      34.686  16.805   9.508  0.00  0.00     0.177 C 
BRANCH  16  18
HETATM   18  O   UNK N   1      33.523  18.415   8.169  0.00  0.00    -0.389 OA
HETATM   19  H   UNK N   1      33.334  19.332   8.422  0.00  0.00     0.210 HD
ENDBRANCH  16  18
BRANCH  17  20
HETATM   20  O   UNK N   1      35.377  17.507  10.494  0.00  0.00    -0.390 OA
HETATM   21  H   UNK N   1      35.397  17.511  11.464  0.00  0.00     0.210 HD
ENDBRANCH  17  20
ENDBRANCH  12  13
BRANCH   1  22
HETATM   22  N   UNK N   1      34.610  11.723  13.803  0.00  0.00    -0.383 N 
HETATM   23  H   UNK N   1      35.169  11.132  14.358  0.00  0.00     0.157 HD
HETATM   24  H   UNK N   1      33.662  11.499  13.662  0.00  0.00     0.157 HD
ENDBRANCH   1  22
TORSDOF 4
ENDMDL
MODEL 9
REMARK VINA RESULT:      -5.6      9.709     12.042
REMARK  4 active torsions:
REMARK  status: ('A' for Active; 'I' for Inactive)
REMARK    1  A    between atoms: N_1  and  C_2 
REMARK    2  A    between atoms: C_14  and  N_13 
REMARK    3  A    between atoms: C_17  and  O_18 
REMARK    4  A    between atoms: C_19  and  O_20 
ROOT
HETATM    1  C   UNK N   1      33.786  16.884   8.521  0.00  0.00     0.131 A 
HETATM    2  N   UNK N   1      34.562  16.391   7.509  0.00  0.00    -0.337 N 
ATOM      3  HN  UNK N   1      35.565  16.275   7.656  1.00  0.00     0.168 HD
HETATM    4  C   UNK N   1      34.011  16.047   6.299  0.00  0.00     0.183 A 
HETATM    5  N   UNK N   1      32.669  16.202   6.078  0.00  0.00    -0.336 N 
ATOM      6  HN  UNK N   1      32.253  15.961   5.179  1.00  0.00     0.168 HD
HETATM    7  C   UNK N   1      31.910  16.686   7.091  0.00  0.00     0.141 A 
HETATM    8  C   UNK N   1      32.427  17.020   8.288  0.00  0.00     0.122 A 
HETATM    9  N   UNK N   1      31.447  17.467   9.098  0.00  0.00    -0.346 N 
ATOM     10  HN  UNK N   1      31.532  17.791  10.061  1.00  0.00     0.167 HD
HETATM   11  C   UNK N   1      30.318  17.387   8.337  0.00  0.00     0.186 A 
HETATM   12  N   UNK N   1      30.591  16.907   7.093  0.00  0.00    -0.316 N 
ENDROOT
BRANCH  12  13
HETATM   13  C   UNK N   1      29.672  16.740   5.963  0.00  0.00     0.146 C 
HETATM   14  C   UNK N   1      28.234  16.777   6.343  0.00  0.00    -0.000 C 
HETATM   15  C   UNK N   1      27.509  17.337   5.389  0.00  0.00     0.005 C 
HETATM   16  C   UNK N   1      28.364  17.803   4.263  0.00  0.00     0.171 C 
HETATM   17  C   UNK N   1      29.724  17.879   4.950  0.00  0.00     0.177 C 
BRANCH  16  18
HETATM   18  O   UNK N   1      27.971  19.068   3.831  0.00  0.00    -0.389 OA
HETATM   19  H   UNK N   1      27.595  19.866   4.234  0.00  0.00     0.210 HD
ENDBRANCH  16  18
BRANCH  17  20
HETATM   20  O   UNK N   1      30.780  17.753   4.048  0.00  0.00    -0.390 OA
HETATM   21  H   UNK N   1      31.296  18.354   3.488  0.00  0.00     0.210 HD
ENDBRANCH  17  20
ENDBRANCH  12  13
BRANCH   1  22
HETATM   22  N   UNK N   1      34.361  17.247   9.756  0.00  0.00    -0.383 N 
HETATM   23  H   UNK N   1      34.091  16.807  10.594  0.00  0.00     0.157 HD
HETATM   24  H   UNK N   1      35.046  17.953   9.780  0.00  0.00     0.157 HD
ENDBRANCH   1  22
TORSDOF 4
ENDMDL
