MODEL 1
REMARK VINA RESULT:      -3.6      0.000      0.000
REMARK  4 active torsions:
REMARK  status: ('A' for Active; 'I' for Inactive)
REMARK    1  A    between atoms: O_1  and  P_2 
REMARK    2  A    between atoms: P_2  and  O_3 
REMARK    3  A    between atoms: P_2  and  C_5 
REMARK    4  A    between atoms: C_5  and  C_6 
ROOT
HETATM    1  P   UNK N   1      21.278  20.063   2.705  0.00  0.00     0.242 P 
HETATM    2  O   UNK N   1      20.350  20.573   3.840  0.00  0.00    -0.653 OA
ENDROOT
BRANCH   1   3
HETATM    3  O   UNK N   1      21.543  21.776   2.610  0.00  0.00    -0.329 OA
HETATM    4  H   UNK N   1      22.433  22.160   2.579  0.00  0.00     0.220 HD
ENDBRANCH   1   3
BRANCH   1   5
HETATM    5  O   UNK N   1      20.418  20.495   1.259  0.00  0.00    -0.329 OA
HETATM    6  H   UNK N   1      19.875  21.248   0.979  0.00  0.00     0.220 HD
ENDBRANCH   1   5
BRANCH   1   7
HETATM    7  C   UNK N   1      19.712  19.044   2.683  0.00  0.00     0.194 C 
BRANCH   7   8
HETATM    8  C   UNK N   1      19.943  17.684   2.099  0.00  0.00     0.242 C 
HETATM    9  O   UNK N   1      20.168  17.556   0.910  0.00  0.00    -0.306 OA
ENDBRANCH   7   8
ENDBRANCH   1   7
TORSDOF 4
ENDMDL
MODEL 2
REMARK VINA RESULT:      -3.5     10.960     11.565
REMARK  4 active torsions:
REMARK  status: ('A' for Active; 'I' for Inactive)
REMARK    1  A    between atoms: O_1  and  P_2 
REMARK    2  A    between atoms: P_2  and  O_3 
REMARK    3  A    between atoms: P_2  and  C_5 
REMARK    4  A    between atoms: C_5  and  C_6 
ROOT
HETATM    1  P   UNK N   1      31.417  22.338  -3.179  0.00  0.00     0.242 P 
HETATM    2  O   UNK N   1      30.702  20.980  -3.408  0.00  0.00    -0.653 OA
ENDROOT
BRANCH   1   3
HETATM    3  O   UNK N   1      32.308  21.305  -2.105  0.00  0.00    -0.329 OA
HETATM    4  H   UNK N   1      32.201  21.346  -1.142  0.00  0.00     0.220 HD
ENDBRANCH   1   3
BRANCH   1   5
HETATM    5  O   UNK N   1      30.842  22.837  -1.617  0.00  0.00    -0.329 OA
HETATM    6  H   UNK N   1      31.173  22.772  -0.708  0.00  0.00     0.220 HD
ENDBRANCH   1   5
BRANCH   1   7
HETATM    7  C   UNK N   1      29.586  22.664  -3.358  0.00  0.00     0.194 C 
BRANCH   7   8
HETATM    8  C   UNK N   1      28.983  23.158  -2.079  0.00  0.00     0.242 C 
HETATM    9  O   UNK N   1      27.777  23.119  -1.913  0.00  0.00    -0.306 OA
ENDBRANCH   7   8
ENDBRANCH   1   7
TORSDOF 4
ENDMDL
MODEL 3
REMARK VINA RESULT:      -3.5     16.343     16.734
REMARK  4 active torsions:
REMARK  status: ('A' for Active; 'I' for Inactive)
REMARK    1  A    between atoms: O_1  and  P_2 
REMARK    2  A    between atoms: P_2  and  O_3 
REMARK    3  A    between atoms: P_2  and  C_5 
REMARK    4  A    between atoms: C_5  and  C_6 
ROOT
HETATM    1  P   UNK N   1      35.175  16.173  10.535  0.00  0.00     0.242 P 
HETATM    2  O   UNK N   1      35.514  17.670  10.311  0.00  0.00    -0.653 OA
ENDROOT
BRANCH   1   3
HETATM    3  O   UNK N   1      36.905  16.147  10.668  0.00  0.00    -0.329 OA
HETATM    4  H   UNK N   1      37.431  16.960  10.722  0.00  0.00     0.220 HD
ENDBRANCH   1   3
BRANCH   1   5
HETATM    5  O   UNK N   1      35.654  15.424   9.042  0.00  0.00    -0.329 OA
HETATM    6  H   UNK N   1      35.225  14.845   8.394  0.00  0.00     0.220 HD
ENDBRANCH   1   5
BRANCH   1   7
HETATM    7  C   UNK N   1      34.039  16.838   9.210  0.00  0.00     0.194 C 
BRANCH   7   8
HETATM    8  C   UNK N   1      34.695  17.917   8.406  0.00  0.00     0.242 C 
HETATM    9  O   UNK N   1      34.649  17.892   7.190  0.00  0.00    -0.306 OA
ENDBRANCH   7   8
ENDBRANCH   1   7
TORSDOF 4
ENDMDL
MODEL 4
REMARK VINA RESULT:      -3.5     12.466     13.054
REMARK  4 active torsions:
REMARK  status: ('A' for Active; 'I' for Inactive)
REMARK    1  A    between atoms: O_1  and  P_2 
REMARK    2  A    between atoms: P_2  and  O_3 
REMARK    3  A    between atoms: P_2  and  C_5 
REMARK    4  A    between atoms: C_5  and  C_6 
ROOT
HETATM    1  P   UNK N   1      32.682  21.233  -3.767  0.00  0.00     0.242 P 
HETATM    2  O   UNK N   1      31.784  20.056  -4.231  0.00  0.00    -0.653 OA
ENDROOT
BRANCH   1   3
HETATM    3  O   UNK N   1      33.692  19.873  -3.388  0.00  0.00    -0.329 OA
HETATM    4  H   UNK N   1      33.335  19.052  -3.018  0.00  0.00     0.220 HD
ENDBRANCH   1   3
BRANCH   1   5
HETATM    5  O   UNK N   1      32.577  21.160  -2.034  0.00  0.00    -0.329 OA
HETATM    6  H   UNK N   1      33.019  20.649  -1.338  0.00  0.00     0.220 HD
ENDBRANCH   1   5
BRANCH   1   7
HETATM    7  C   UNK N   1      30.914  21.633  -3.316  0.00  0.00     0.194 C 
BRANCH   7   8
HETATM    8  C   UNK N   1      30.805  22.946  -2.605  0.00  0.00     0.242 C 
HETATM    9  O   UNK N   1      30.465  22.987  -1.437  0.00  0.00    -0.306 OA
ENDBRANCH   7   8
ENDBRANCH   1   7
TORSDOF 4
ENDMDL
MODEL 5
REMARK VINA RESULT:      -3.4     10.915     11.423
REMARK  4 active torsions:
REMARK  status: ('A' for Active; 'I' for Inactive)
REMARK    1  A    between atoms: O_1  and  P_2 
REMARK    2  A    between atoms: P_2  and  O_3 
REMARK    3  A    between atoms: P_2  and  C_5 
REMARK    4  A    between atoms: C_5  and  C_6 
ROOT
HETATM    1  P   UNK N   1      23.508  11.764  11.020  0.00  0.00     0.242 P 
HETATM    2  O   UNK N   1      23.165  12.016  12.512  0.00  0.00    -0.653 OA
ENDROOT
BRANCH   1   3
HETATM    3  O   UNK N   1      24.964  12.529  11.573  0.00  0.00    -0.329 OA
HETATM    4  H   UNK N   1      25.484  13.121  11.008  0.00  0.00     0.220 HD
ENDBRANCH   1   3
BRANCH   1   5
HETATM    5  O   UNK N   1      23.394  13.346  10.309  0.00  0.00    -0.329 OA
HETATM    6  H   UNK N   1      24.019  13.964   9.900  0.00  0.00     0.220 HD
ENDBRANCH   1   5
BRANCH   1   7
HETATM    7  C   UNK N   1      21.715  12.277  11.129  0.00  0.00     0.194 C 
BRANCH   7   8
HETATM    8  C   UNK N   1      21.349  13.253  10.053  0.00  0.00     0.242 C 
HETATM    9  O   UNK N   1      20.760  12.876   9.057  0.00  0.00    -0.306 OA
ENDBRANCH   7   8
ENDBRANCH   1   7
TORSDOF 4
ENDMDL
MODEL 6
REMARK VINA RESULT:      -3.4     17.175     17.538
REMARK  4 active torsions:
REMARK  status: ('A' for Active; 'I' for Inactive)
REMARK    1  A    between atoms: O_1  and  P_2 
REMARK    2  A    between atoms: P_2  and  O_3 
REMARK    3  A    between atoms: P_2  and  C_5 
REMARK    4  A    between atoms: C_5  and  C_6 
ROOT
HETATM    1  P   UNK N   1      34.857  15.679  10.208  0.00  0.00     0.242 P 
HETATM    2  O   UNK N   1      35.240  17.001  10.924  0.00  0.00    -0.653 OA
ENDROOT
BRANCH   1   3
HETATM    3  O   UNK N   1      33.545  16.711   9.730  0.00  0.00    -0.329 OA
HETATM    4  H   UNK N   1      32.884  16.437   9.076  0.00  0.00     0.220 HD
ENDBRANCH   1   3
BRANCH   1   5
HETATM    5  O   UNK N   1      33.537  15.073  11.162  0.00  0.00    -0.329 OA
HETATM    6  H   UNK N   1      32.574  15.027  11.055  0.00  0.00     0.220 HD
ENDBRANCH   1   5
BRANCH   1   7
HETATM    7  C   UNK N   1      35.556  15.252  11.887  0.00  0.00     0.194 C 
BRANCH   7   8
HETATM    8  C   UNK N   1      35.260  13.835  12.268  0.00  0.00     0.242 C 
HETATM    9  O   UNK N   1      34.812  13.575  13.370  0.00  0.00    -0.306 OA
ENDBRANCH   7   8
ENDBRANCH   1   7
TORSDOF 4
ENDMDL
MODEL 7
REMARK VINA RESULT:      -3.3     15.097     15.583
REMARK  4 active torsions:
REMARK  status: ('A' for Active; 'I' for Inactive)
REMARK    1  A    between atoms: O_1  and  P_2 
REMARK    2  A    between atoms: P_2  and  O_3 
REMARK    3  A    between atoms: P_2  and  C_5 
REMARK    4  A    between atoms: C_5  and  C_6 
ROOT
HETATM    1  P   UNK N   1      33.727  15.701   9.295  0.00  0.00     0.242 P 
HETATM    2  O   UNK N   1      32.192  15.928   9.331  0.00  0.00    -0.653 OA
ENDROOT
BRANCH   1   3
HETATM    3  O   UNK N   1      33.332  15.073  10.864  0.00  0.00    -0.329 OA
HETATM    4  H   UNK N   1      32.421  15.044  11.195  0.00  0.00     0.220 HD
ENDBRANCH   1   3
BRANCH   1   5
HETATM    5  O   UNK N   1      34.340  16.932  10.355  0.00  0.00    -0.329 OA
HETATM    6  H   UNK N   1      33.958  17.510  11.034  0.00  0.00     0.220 HD
ENDBRANCH   1   5
BRANCH   1   7
HETATM    7  C   UNK N   1      33.360  17.343   8.484  0.00  0.00     0.194 C 
BRANCH   7   8
HETATM    8  C   UNK N   1      34.605  18.003   7.978  0.00  0.00     0.242 C 
HETATM    9  O   UNK N   1      34.940  19.093   8.405  0.00  0.00    -0.306 OA
ENDBRANCH   7   8
ENDBRANCH   1   7
TORSDOF 4
ENDMDL
MODEL 8
REMARK VINA RESULT:      -3.3      1.980      2.736
REMARK  4 active torsions:
REMARK  status: ('A' for Active; 'I' for Inactive)
REMARK    1  A    between atoms: O_1  and  P_2 
REMARK    2  A    between atoms: P_2  and  O_3 
REMARK    3  A    between atoms: P_2  and  C_5 
REMARK    4  A    between atoms: C_5  and  C_6 
ROOT
HETATM    1  P   UNK N   1      21.131  20.332   2.451  0.00  0.00     0.242 P 
HETATM    2  O   UNK N   1      22.416  19.743   3.090  0.00  0.00    -0.653 OA
ENDROOT
BRANCH   1   3
HETATM    3  O   UNK N   1      22.035  21.778   2.776  0.00  0.00    -0.329 OA
HETATM    4  H   UNK N   1      22.524  21.906   3.603  0.00  0.00     0.220 HD
ENDBRANCH   1   3
BRANCH   1   5
HETATM    5  O   UNK N   1      20.281  21.008   3.807  0.00  0.00    -0.329 OA
HETATM    6  H   UNK N   1      19.367  21.286   3.978  0.00  0.00     0.220 HD
ENDBRANCH   1   5
BRANCH   1   7
HETATM    7  C   UNK N   1      20.637  18.902   3.546  0.00  0.00     0.194 C 
BRANCH   7   8
HETATM    8  C   UNK N   1      21.509  18.803   4.758  0.00  0.00     0.242 C 
HETATM    9  O   UNK N   1      21.035  18.946   5.870  0.00  0.00    -0.306 OA
ENDBRANCH   7   8
ENDBRANCH   1   7
TORSDOF 4
ENDMDL
MODEL 9
REMARK VINA RESULT:      -3.3     14.433     14.846
REMARK  4 active torsions:
REMARK  status: ('A' for Active; 'I' for Inactive)
REMARK    1  A    between atoms: O_1  and  P_2 
REMARK    2  A    between atoms: P_2  and  O_3 
REMARK    3  A    between atoms: P_2  and  C_5 
REMARK    4  A    between atoms: C_5  and  C_6 
ROOT
HETATM    1  P   UNK N   1      33.660  18.163   8.053  0.00  0.00     0.242 P 
HETATM    2  O   UNK N   1      34.652  17.701   6.954  0.00  0.00    -0.653 OA
ENDROOT
BRANCH   1   3
HETATM    3  O   UNK N   1      35.045  19.144   8.419  0.00  0.00    -0.329 OA
HETATM    4  H   UNK N   1      35.074  20.092   8.217  0.00  0.00     0.220 HD
ENDBRANCH   1   3
BRANCH   1   5
HETATM    5  O   UNK N   1      34.279  17.415   9.494  0.00  0.00    -0.329 OA
HETATM    6  H   UNK N   1      33.986  17.348  10.416  0.00  0.00     0.220 HD
ENDBRANCH   1   5
BRANCH   1   7
HETATM    7  C   UNK N   1      33.466  16.319   7.829  0.00  0.00     0.194 C 
BRANCH   7   8
HETATM    8  C   UNK N   1      32.202  15.813   8.454  0.00  0.00     0.242 C 
HETATM    9  O   UNK N   1      32.236  15.224   9.518  0.00  0.00    -0.306 OA
ENDBRANCH   7   8
ENDBRANCH   1   7
TORSDOF 4
ENDMDL
