REMARK  4 active torsions:
REMARK  status: ('A' for Active; 'I' for Inactive)
REMARK    1  A    between atoms: C_3  and  O_7 
REMARK    2  A    between atoms: C_4  and  O_8 
REMARK    3  A    between atoms: C_6  and  C_5 
REMARK    4  A    between atoms: O_10  and  C_6 
ROOT
HETATM    1  C   UNK N   1       1.851   1.013  -0.085  0.00  0.00     0.051 C 
HETATM    2  C   UNK N   1      -0.522  -0.251   0.737  0.00  0.00     0.210 C 
HETATM    3  C   UNK N   1       0.628   1.866   0.132  0.00  0.00     0.174 C 
HETATM    4  C   UNK N   1      -0.653   1.043  -0.056  0.00  0.00     0.174 C 
HETATM    5  C   UNK N   1       1.787  -0.330   0.018  0.00  0.00     0.141 C 
HETATM    6  O   UNK N   1       0.610  -0.945   0.337  0.00  0.00    -0.342 OA
ENDROOT
BRANCH   5   7
HETATM    7  C   UNK N   1       2.995  -1.152  -0.199  0.00  0.00     0.200 C 
HETATM    8  O   UNK N   1       4.067  -0.626  -0.464  0.00  0.00    -0.645 OA
BRANCH   7   9
HETATM    9  O   UNK N   1       2.924  -2.492  -0.086  0.00  0.00    -0.771 OA
HETATM   10  H   UNK N   1       2.092  -2.915  -0.007  0.00  0.00     0.167 HD
ENDBRANCH   7   9
ENDBRANCH   5   7
BRANCH   3  11
HETATM   11  O   UNK N   1       0.635   2.939  -0.761  0.00  0.00    -0.389 OA
HETATM   12  H   UNK N   1       1.283   3.308  -1.382  0.00  0.00     0.210 HD
ENDBRANCH   3  11
BRANCH   4  13
HETATM   13  O   UNK N   1      -1.763   1.766   0.384  0.00  0.00    -0.391 OA
HETATM   14  H   UNK N   1      -1.714   2.686   0.689  0.00  0.00     0.210 HD
ENDBRANCH   4  13
TORSDOF 4
