REMARK  8 active torsions:
REMARK  status: ('A' for Active; 'I' for Inactive)
REMARK    1  A    between atoms: C_7  and  C_4 
REMARK    2  A    between atoms: O_20  and  C_4 
REMARK    3  A    between atoms: C_6  and  N_11 
REMARK    4  A    between atoms: C_8  and  N_14 
REMARK    5  A    between atoms: O_15  and  C_9 
REMARK    6  A    between atoms: P_22  and  O_17 
REMARK    7  A    between atoms: P_22  and  O_18 
REMARK    8  A    between atoms: P_22  and  O_20 
ROOT
HETATM    1  C   UNK N   1       0.136   2.316   0.532  0.00  0.00     0.081 C 
HETATM    2  C   UNK N   1      -0.919   3.347   0.255  0.00  0.00     0.109 C 
HETATM    3  C   UNK N   1      -2.140   2.430   0.222  0.00  0.00     0.170 C 
HETATM    4  C   UNK N   1      -0.331   1.224  -0.424  0.00  0.00     0.234 C 
HETATM    5  O   UNK N   1      -1.746   1.212  -0.376  0.00  0.00    -0.357 OA
ENDROOT
BRANCH   4   6
HETATM    6  N   UNK N   1       0.239  -0.107  -0.145  0.00  0.00    -0.282 N 
HETATM    7  C   UNK N   1      -0.598  -1.173   0.001  0.00  0.00     0.109 A 
HETATM    8  C   UNK N   1      -0.094  -2.461   0.158  0.00  0.00     0.005 A 
HETATM    9  C   UNK N   1      -1.032  -3.612   0.280  0.00  0.00     0.054 C 
HETATM   10  C   UNK N   1       1.289  -2.645   0.171  0.00  0.00     0.151 A 
HETATM   11  N   UNK N   1       2.111  -1.576   0.039  0.00  0.00    -0.288 N 
HETATM   12  C   UNK N   1       1.609  -0.310  -0.126  0.00  0.00     0.330 A 
ATOM     13  HN  UNK N   1       3.122  -1.715   0.062  1.00  0.00     0.172 HD
HETATM   14  O   UNK N   1       2.379   0.623  -0.271  0.00  0.00    -0.246 OA
BRANCH  10  15
HETATM   15  O   UNK N   1       1.812  -3.877   0.305  0.00  0.00    -0.346 OA
HETATM   16  H   UNK N   1       1.252  -4.622   0.398  0.00  0.00     0.219 HD
ENDBRANCH  10  15
ENDBRANCH   4   6
BRANCH   2  17
HETATM   17  N   UNK N   1      -0.673   3.959  -1.049  0.00  0.00    -0.423 N 
HETATM   18  H   UNK N   1      -0.217   4.024  -1.959  0.00  0.00     0.150 HD
HETATM   19  H   UNK N   1      -1.302   4.762  -1.049  0.00  0.00     0.150 HD
ENDBRANCH   2  17
BRANCH   3  20
HETATM   20  C   UNK N   1      -3.323   2.992  -0.558  0.00  0.00     0.214 C 
BRANCH  20  21
HETATM   21  O   UNK N   1      -3.672   4.288  -0.156  0.00  0.00    -0.294 OA
BRANCH  21  22
HETATM   22  P   UNK N   1      -5.275   4.208   0.539  0.00  0.00     0.390 P 
HETATM   23  O   UNK N   1      -5.841   3.750  -0.835  0.00  0.00    -0.632 OA
BRANCH  22  24
HETATM   24  O   UNK N   1      -6.506   5.431   0.487  0.00  0.00    -0.307 OA
HETATM   25  H   UNK N   1      -6.257   6.368   0.458  0.00  0.00     0.222 HD
ENDBRANCH  22  24
BRANCH  22  26
HETATM   26  O   UNK N   1      -4.733   5.803   0.118  0.00  0.00    -0.307 OA
HETATM   27  H   UNK N   1      -3.810   5.986  -0.117  0.00  0.00     0.222 HD
ENDBRANCH  22  26
ENDBRANCH  21  22
ENDBRANCH  20  21
ENDBRANCH   3  20
TORSDOF 8
