REMARK  10 active torsions:
REMARK  status: ('A' for Active; 'I' for Inactive)
REMARK    1  A    between atoms: C_2  and  C_1 
REMARK    2  A    between atoms: O_12  and  C_1 
REMARK    3  A    between atoms: C_3  and  C_2 
REMARK    4  A    between atoms: C_2  and  O_5 
REMARK    5  A    between atoms: C_4  and  C_3 
REMARK    6  A    between atoms: C_3  and  O_6 
REMARK    7  A    between atoms: O_8  and  C_4 
REMARK    8  A    between atoms: P_13  and  O_9 
REMARK    9  A    between atoms: P_13  and  O_10 
REMARK   10  A    between atoms: P_13  and  O_12 
ROOT
HETATM    1  C   UNK N   1       1.671  -0.937  -0.544  0.00  0.00     0.181 C 
ENDROOT
BRANCH   1   2
HETATM    2  C   UNK N   1       1.187   0.029   0.538  0.00  0.00     0.215 C 
BRANCH   2   3
HETATM    3  O   UNK N   1       0.171   0.846   0.020  0.00  0.00    -0.294 OA
BRANCH   3   4
HETATM    4  P   UNK N   1      -1.276   0.410   0.892  0.00  0.00     0.390 P 
HETATM    5  O   UNK N   1      -1.462  -0.442  -0.393  0.00  0.00    -0.632 OA
BRANCH   4   6
HETATM    6  O   UNK N   1      -2.854   0.879   0.342  0.00  0.00    -0.307 OA
HETATM    7  H   UNK N   1      -3.067   1.774   0.035  0.00  0.00     0.222 HD
ENDBRANCH   4   6
BRANCH   4   8
HETATM    8  O   UNK N   1      -1.324   2.088   0.448  0.00  0.00    -0.307 OA
HETATM    9  H   UNK N   1      -0.525   2.580   0.200  0.00  0.00     0.222 HD
ENDBRANCH   4   8
ENDBRANCH   3   4
ENDBRANCH   2   3
ENDBRANCH   1   2
BRANCH   1  10
HETATM   10  C   UNK N   1       2.582  -2.051   0.005  0.00  0.00     0.246 C 
BRANCH  10  11
HETATM   11  C   UNK N   1       3.916  -1.585   0.533  0.00  0.00     0.172 C 
HETATM   12  O   UNK N   1       4.716  -2.408   0.951  0.00  0.00    -0.648 OA
BRANCH  11  13
HETATM   13  O   UNK N   1       4.251  -0.280   0.531  0.00  0.00    -0.774 OA
HETATM   14  H   UNK N   1       5.153  -0.028   0.530  0.00  0.00     0.167 HD
ENDBRANCH  11  13
ENDBRANCH  10  11
BRANCH  10  15
HETATM   15  O   UNK N   1       1.906  -2.748   1.011  0.00  0.00    -0.382 OA
HETATM   16  H   UNK N   1       1.252  -2.584   1.708  0.00  0.00     0.210 HD
ENDBRANCH  10  15
ENDBRANCH   1  10
BRANCH   1  17
HETATM   17  O   UNK N   1       2.321  -0.227  -1.557  0.00  0.00    -0.390 OA
HETATM   18  H   UNK N   1       2.974  -0.371  -2.260  0.00  0.00     0.210 HD
ENDBRANCH   1  17
TORSDOF 10
