MODEL 1
REMARK VINA RESULT:      -5.3      0.000      0.000
REMARK  9 active torsions:
REMARK  status: ('A' for Active; 'I' for Inactive)
REMARK    1  A    between atoms: C_1  and  N_7 
REMARK    2  A    between atoms: C_2  and  O_12 
REMARK    3  A    between atoms: C_4  and  O_8 
REMARK    4  A    between atoms: C_5  and  C_10 
REMARK    5  A    between atoms: C_6  and  O_9 
REMARK    6  A    between atoms: C_10  and  O_11 
REMARK    7  A    between atoms: O_12  and  P_15 
REMARK    8  A    between atoms: P_15  and  O_14 
REMARK    9  A    between atoms: P_15  and  O_16 
ROOT
HETATM    1  C   UNK N   1      34.264  14.512  10.285  0.00  0.00     0.162 C 
HETATM    2  C   UNK N   1      35.116  15.372   9.337  0.00  0.00     0.296 C 
HETATM    3  O   UNK N   1      36.276  14.647   9.008  0.00  0.00    -0.348 OA
HETATM    4  C   UNK N   1      35.081  14.177  11.536  0.00  0.00     0.176 C 
HETATM    5  C   UNK N   1      37.087  14.637  10.157  0.00  0.00     0.179 C 
HETATM    6  C   UNK N   1      36.468  13.656  11.165  0.00  0.00     0.180 C 
ENDROOT
BRANCH   2   7
HETATM    7  O   UNK N   1      34.369  15.636   8.175  0.00  0.00    -0.264 OA
BRANCH   7   8
HETATM    8  P   UNK N   1      34.148  17.367   8.054  0.00  0.00     0.393 P 
HETATM    9  O   UNK N   1      32.706  17.665   8.543  0.00  0.00    -0.631 OA
BRANCH   8  10
HETATM   10  O   UNK N   1      35.220  18.221   9.119  0.00  0.00    -0.307 OA
HETATM   11  H   UNK N   1      35.698  19.012   8.827  0.00  0.00     0.222 HD
ENDBRANCH   8  10
BRANCH   8  12
HETATM   12  O   UNK N   1      34.269  17.968   6.429  0.00  0.00    -0.307 OA
HETATM   13  H   UNK N   1      34.937  18.106   5.739  0.00  0.00     0.222 HD
ENDBRANCH   8  12
ENDBRANCH   7   8
ENDBRANCH   2   7
BRANCH   1  14
HETATM   14  N   UNK N   1      33.053  15.219  10.665  0.00  0.00    -0.420 N 
HETATM   15  H   UNK N   1      32.955  16.186  10.980  0.00  0.00     0.150 HD
HETATM   16  H   UNK N   1      32.189  14.681  10.609  0.00  0.00     0.150 HD
ENDBRANCH   1  14
BRANCH   4  17
HETATM   17  O   UNK N   1      34.406  13.229  12.309  0.00  0.00    -0.391 OA
HETATM   18  H   UNK N   1      33.471  13.317  12.554  0.00  0.00     0.210 HD
ENDBRANCH   4  17
BRANCH   5  19
HETATM   19  C   UNK N   1      38.499  14.240   9.752  0.00  0.00     0.198 C 
BRANCH  19  20
HETATM   20  O   UNK N   1      38.712  12.882   9.989  0.00  0.00    -0.398 OA
HETATM   21  H   UNK N   1      38.209  12.222  10.492  0.00  0.00     0.209 HD
ENDBRANCH  19  20
ENDBRANCH   5  19
BRANCH   6  22
HETATM   22  O   UNK N   1      37.249  13.561  12.320  0.00  0.00    -0.390 OA
HETATM   23  H   UNK N   1      38.205  13.400  12.355  0.00  0.00     0.210 HD
ENDBRANCH   6  22
TORSDOF 9
ENDMDL
MODEL 2
REMARK VINA RESULT:      -5.3     13.644     16.109
REMARK  9 active torsions:
REMARK  status: ('A' for Active; 'I' for Inactive)
REMARK    1  A    between atoms: C_1  and  N_7 
REMARK    2  A    between atoms: C_2  and  O_12 
REMARK    3  A    between atoms: C_4  and  O_8 
REMARK    4  A    between atoms: C_5  and  C_10 
REMARK    5  A    between atoms: C_6  and  O_9 
REMARK    6  A    between atoms: C_10  and  O_11 
REMARK    7  A    between atoms: O_12  and  P_15 
REMARK    8  A    between atoms: P_15  and  O_14 
REMARK    9  A    between atoms: P_15  and  O_16 
ROOT
HETATM    1  C   UNK N   1      21.408  17.969   4.467  0.00  0.00     0.162 C 
HETATM    2  C   UNK N   1      22.448  18.829   3.729  0.00  0.00     0.296 C 
HETATM    3  O   UNK N   1      21.802  19.983   3.247  0.00  0.00    -0.348 OA
HETATM    4  C   UNK N   1      20.275  17.607   3.503  0.00  0.00     0.176 C 
HETATM    5  C   UNK N   1      20.988  19.574   2.175  0.00  0.00     0.179 C 
HETATM    6  C   UNK N   1      19.769  18.842   2.759  0.00  0.00     0.180 C 
ENDROOT
BRANCH   2   7
HETATM    7  O   UNK N   1      23.460  19.189   4.636  0.00  0.00    -0.264 OA
BRANCH   7   8
HETATM    8  P   UNK N   1      24.828  19.774   3.718  0.00  0.00     0.393 P 
HETATM    9  O   UNK N   1      25.524  18.527   3.113  0.00  0.00    -0.631 OA
BRANCH   8  10
HETATM   10  O   UNK N   1      24.323  20.758   2.380  0.00  0.00    -0.307 OA
HETATM   11  H   UNK N   1      23.397  20.789   2.097  0.00  0.00     0.222 HD
ENDBRANCH   8  10
BRANCH   8  12
HETATM   12  O   UNK N   1      26.012  20.597   4.688  0.00  0.00    -0.307 OA
HETATM   13  H   UNK N   1      26.795  20.400   5.225  0.00  0.00     0.222 HD
ENDBRANCH   8  12
ENDBRANCH   7   8
ENDBRANCH   2   7
BRANCH   1  14
HETATM   14  N   UNK N   1      22.022  16.756   4.979  0.00  0.00    -0.420 N 
HETATM   15  H   UNK N   1      22.752  16.664   5.687  0.00  0.00     0.150 HD
HETATM   16  H   UNK N   1      21.679  15.883   4.580  0.00  0.00     0.150 HD
ENDBRANCH   1  14
BRANCH   4  17
HETATM   17  O   UNK N   1      19.225  17.008   4.203  0.00  0.00    -0.391 OA
HETATM   18  H   UNK N   1      19.014  17.224   5.125  0.00  0.00     0.210 HD
ENDBRANCH   4  17
BRANCH   5  19
HETATM   19  C   UNK N   1      20.597  20.801   1.366  0.00  0.00     0.198 C 
BRANCH  19  20
HETATM   20  O   UNK N   1      20.561  20.497   0.005  0.00  0.00    -0.398 OA
HETATM   21  H   UNK N   1      19.825  20.341  -0.608  0.00  0.00     0.209 HD
ENDBRANCH  19  20
ENDBRANCH   5  19
BRANCH   6  22
HETATM   22  O   UNK N   1      18.890  18.444   1.749  0.00  0.00    -0.390 OA
HETATM   23  H   UNK N   1      17.959  18.702   1.663  0.00  0.00     0.210 HD
ENDBRANCH   6  22
TORSDOF 9
ENDMDL
MODEL 3
REMARK VINA RESULT:      -5.1      5.527      8.218
REMARK  9 active torsions:
REMARK  status: ('A' for Active; 'I' for Inactive)
REMARK    1  A    between atoms: C_1  and  N_7 
REMARK    2  A    between atoms: C_2  and  O_12 
REMARK    3  A    between atoms: C_4  and  O_8 
REMARK    4  A    between atoms: C_5  and  C_10 
REMARK    5  A    between atoms: C_6  and  O_9 
REMARK    6  A    between atoms: C_10  and  O_11 
REMARK    7  A    between atoms: O_12  and  P_15 
REMARK    8  A    between atoms: P_15  and  O_14 
REMARK    9  A    between atoms: P_15  and  O_16 
ROOT
HETATM    1  C   UNK N   1      30.230  17.357   4.988  0.00  0.00     0.162 C 
HETATM    2  C   UNK N   1      30.873  17.246   6.380  0.00  0.00     0.296 C 
HETATM    3  O   UNK N   1      29.926  16.689   7.259  0.00  0.00    -0.348 OA
HETATM    4  C   UNK N   1      28.976  18.233   5.079  0.00  0.00     0.176 C 
HETATM    5  C   UNK N   1      28.958  17.682   7.494  0.00  0.00     0.179 C 
HETATM    6  C   UNK N   1      28.082  17.795   6.238  0.00  0.00     0.180 C 
ENDROOT
BRANCH   2   7
HETATM    7  O   UNK N   1      31.997  16.405   6.290  0.00  0.00    -0.264 OA
BRANCH   7   8
HETATM    8  P   UNK N   1      33.157  16.919   7.494  0.00  0.00     0.393 P 
HETATM    9  O   UNK N   1      33.941  15.652   7.926  0.00  0.00    -0.631 OA
BRANCH   8  10
HETATM   10  O   UNK N   1      34.321  18.020   6.827  0.00  0.00    -0.307 OA
HETATM   11  H   UNK N   1      35.084  17.704   6.320  0.00  0.00     0.222 HD
ENDBRANCH   8  10
BRANCH   8  12
HETATM   12  O   UNK N   1      32.423  17.577   8.925  0.00  0.00    -0.307 OA
HETATM   13  H   UNK N   1      31.756  18.233   9.180  0.00  0.00     0.222 HD
ENDBRANCH   8  12
ENDBRANCH   7   8
ENDBRANCH   2   7
BRANCH   1  14
HETATM   14  N   UNK N   1      31.165  17.937   4.040  0.00  0.00    -0.420 N 
HETATM   15  H   UNK N   1      32.184  17.872   4.032  0.00  0.00     0.150 HD
HETATM   16  H   UNK N   1      30.750  18.479   3.282  0.00  0.00     0.150 HD
ENDBRANCH   1  14
BRANCH   4  17
HETATM   17  O   UNK N   1      28.265  18.175   3.878  0.00  0.00    -0.391 OA
HETATM   18  H   UNK N   1      28.681  17.967   3.027  0.00  0.00     0.210 HD
ENDBRANCH   4  17
BRANCH   5  19
HETATM   19  C   UNK N   1      28.157  17.298   8.729  0.00  0.00     0.198 C 
BRANCH  19  20
HETATM   20  O   UNK N   1      27.495  18.411   9.247  0.00  0.00    -0.398 OA
HETATM   21  H   UNK N   1      27.522  19.352   9.013  0.00  0.00     0.209 HD
ENDBRANCH  19  20
ENDBRANCH   5  19
BRANCH   6  22
HETATM   22  O   UNK N   1      27.065  18.737   6.416  0.00  0.00    -0.390 OA
HETATM   23  H   UNK N   1      27.036  19.630   6.037  0.00  0.00     0.210 HD
ENDBRANCH   6  22
TORSDOF 9
ENDMDL
MODEL 4
REMARK VINA RESULT:      -5.1     14.735     16.808
REMARK  9 active torsions:
REMARK  status: ('A' for Active; 'I' for Inactive)
REMARK    1  A    between atoms: C_1  and  N_7 
REMARK    2  A    between atoms: C_2  and  O_12 
REMARK    3  A    between atoms: C_4  and  O_8 
REMARK    4  A    between atoms: C_5  and  C_10 
REMARK    5  A    between atoms: C_6  and  O_9 
REMARK    6  A    between atoms: C_10  and  O_11 
REMARK    7  A    between atoms: O_12  and  P_15 
REMARK    8  A    between atoms: P_15  and  O_14 
REMARK    9  A    between atoms: P_15  and  O_16 
ROOT
HETATM    1  C   UNK N   1      20.397  16.706   2.358  0.00  0.00     0.162 C 
HETATM    2  C   UNK N   1      21.073  17.373   3.567  0.00  0.00     0.296 C 
HETATM    3  O   UNK N   1      20.518  18.656   3.729  0.00  0.00    -0.348 OA
HETATM    4  C   UNK N   1      20.623  17.568   1.113  0.00  0.00     0.176 C 
HETATM    5  C   UNK N   1      21.014  19.448   2.678  0.00  0.00     0.179 C 
HETATM    6  C   UNK N   1      20.289  19.033   1.389  0.00  0.00     0.180 C 
ENDROOT
BRANCH   2   7
HETATM    7  O   UNK N   1      20.822  16.594   4.711  0.00  0.00    -0.264 OA
BRANCH   7   8
HETATM    8  P   UNK N   1      21.733  17.272   6.040  0.00  0.00     0.393 P 
HETATM    9  O   UNK N   1      21.731  16.208   7.169  0.00  0.00    -0.631 OA
BRANCH   8  10
HETATM   10  O   UNK N   1      23.393  17.534   5.606  0.00  0.00    -0.307 OA
HETATM   11  H   UNK N   1      24.087  17.600   6.279  0.00  0.00     0.222 HD
ENDBRANCH   8  10
BRANCH   8  12
HETATM   12  O   UNK N   1      21.024  18.715   6.700  0.00  0.00    -0.307 OA
HETATM   13  H   UNK N   1      21.181  19.671   6.724  0.00  0.00     0.222 HD
ENDBRANCH   8  12
ENDBRANCH   7   8
ENDBRANCH   2   7
BRANCH   1  14
HETATM   14  N   UNK N   1      20.942  15.377   2.140  0.00  0.00    -0.420 N 
HETATM   15  H   UNK N   1      20.644  14.672   1.463  0.00  0.00     0.150 HD
HETATM   16  H   UNK N   1      21.722  15.113   2.741  0.00  0.00     0.150 HD
ENDBRANCH   1  14
BRANCH   4  17
HETATM   17  O   UNK N   1      19.846  17.092   0.055  0.00  0.00    -0.391 OA
HETATM   18  H   UNK N   1      20.037  17.295  -0.875  0.00  0.00     0.210 HD
ENDBRANCH   4  17
BRANCH   5  19
HETATM   19  C   UNK N   1      20.791  20.912   3.025  0.00  0.00     0.198 C 
BRANCH  19  20
HETATM   20  O   UNK N   1      21.869  21.686   2.594  0.00  0.00    -0.398 OA
HETATM   21  H   UNK N   1      22.538  21.545   1.905  0.00  0.00     0.209 HD
ENDBRANCH  19  20
ENDBRANCH   5  19
BRANCH   6  22
HETATM   22  O   UNK N   1      20.702  19.812   0.305  0.00  0.00    -0.390 OA
HETATM   23  H   UNK N   1      20.803  20.777   0.296  0.00  0.00     0.210 HD
ENDBRANCH   6  22
TORSDOF 9
ENDMDL
MODEL 5
REMARK VINA RESULT:      -5.0      4.963      7.593
REMARK  9 active torsions:
REMARK  status: ('A' for Active; 'I' for Inactive)
REMARK    1  A    between atoms: C_1  and  N_7 
REMARK    2  A    between atoms: C_2  and  O_12 
REMARK    3  A    between atoms: C_4  and  O_8 
REMARK    4  A    between atoms: C_5  and  C_10 
REMARK    5  A    between atoms: C_6  and  O_9 
REMARK    6  A    between atoms: C_10  and  O_11 
REMARK    7  A    between atoms: O_12  and  P_15 
REMARK    8  A    between atoms: P_15  and  O_14 
REMARK    9  A    between atoms: P_15  and  O_16 
ROOT
HETATM    1  C   UNK N   1      29.732  17.593   9.179  0.00  0.00     0.162 C 
HETATM    2  C   UNK N   1      30.734  16.870   8.265  0.00  0.00     0.296 C 
HETATM    3  O   UNK N   1      30.666  17.457   6.987  0.00  0.00    -0.348 OA
HETATM    4  C   UNK N   1      28.325  17.469   8.587  0.00  0.00     0.176 C 
HETATM    5  C   UNK N   1      29.446  17.048   6.418  0.00  0.00     0.179 C 
HETATM    6  C   UNK N   1      28.318  17.834   7.103  0.00  0.00     0.180 C 
ENDROOT
BRANCH   2   7
HETATM    7  O   UNK N   1      32.026  17.028   8.797  0.00  0.00    -0.264 OA
BRANCH   7   8
HETATM    8  P   UNK N   1      32.710  15.438   9.043  0.00  0.00     0.393 P 
HETATM    9  O   UNK N   1      34.222  15.548   8.710  0.00  0.00    -0.631 OA
BRANCH   8  10
HETATM   10  O   UNK N   1      32.603  14.950  10.706  0.00  0.00    -0.307 OA
HETATM   11  H   UNK N   1      32.205  15.525  11.377  0.00  0.00     0.222 HD
ENDBRANCH   8  10
BRANCH   8  12
HETATM   12  O   UNK N   1      32.044  14.227   7.992  0.00  0.00    -0.307 OA
HETATM   13  H   UNK N   1      31.996  14.013   7.047  0.00  0.00     0.222 HD
ENDBRANCH   8  12
ENDBRANCH   7   8
ENDBRANCH   2   7
BRANCH   1  14
HETATM   14  N   UNK N   1      29.755  17.019  10.514  0.00  0.00    -0.420 N 
HETATM   15  H   UNK N   1      29.684  16.037  10.784  0.00  0.00     0.150 HD
HETATM   16  H   UNK N   1      29.854  17.684  11.281  0.00  0.00     0.150 HD
ENDBRANCH   1  14
BRANCH   4  17
HETATM   17  O   UNK N   1      27.438  18.291   9.285  0.00  0.00    -0.391 OA
HETATM   18  H   UNK N   1      27.685  18.769  10.092  0.00  0.00     0.210 HD
ENDBRANCH   4  17
BRANCH   5  19
HETATM   19  C   UNK N   1      29.501  17.298   4.919  0.00  0.00     0.198 C 
BRANCH  19  20
HETATM   20  O   UNK N   1      29.024  18.575   4.619  0.00  0.00    -0.398 OA
HETATM   21  H   UNK N   1      29.029  19.406   5.119  0.00  0.00     0.209 HD
ENDBRANCH  19  20
ENDBRANCH   5  19
BRANCH   6  22
HETATM   22  O   UNK N   1      27.074  17.510   6.555  0.00  0.00    -0.390 OA
HETATM   23  H   UNK N   1      26.422  18.135   6.201  0.00  0.00     0.210 HD
ENDBRANCH   6  22
TORSDOF 9
ENDMDL
MODEL 6
REMARK VINA RESULT:      -4.9      5.908      7.855
REMARK  9 active torsions:
REMARK  status: ('A' for Active; 'I' for Inactive)
REMARK    1  A    between atoms: C_1  and  N_7 
REMARK    2  A    between atoms: C_2  and  O_12 
REMARK    3  A    between atoms: C_4  and  O_8 
REMARK    4  A    between atoms: C_5  and  C_10 
REMARK    5  A    between atoms: C_6  and  O_9 
REMARK    6  A    between atoms: C_10  and  O_11 
REMARK    7  A    between atoms: O_12  and  P_15 
REMARK    8  A    between atoms: P_15  and  O_14 
REMARK    9  A    between atoms: P_15  and  O_16 
ROOT
HETATM    1  C   UNK N   1      31.028  17.654   8.429  0.00  0.00     0.162 C 
HETATM    2  C   UNK N   1      30.729  16.885   7.132  0.00  0.00     0.296 C 
HETATM    3  O   UNK N   1      29.743  17.592   6.418  0.00  0.00    -0.348 OA
HETATM    4  C   UNK N   1      29.740  17.786   9.247  0.00  0.00     0.176 C 
HETATM    5  C   UNK N   1      28.534  17.416   7.115  0.00  0.00     0.179 C 
HETATM    6  C   UNK N   1      28.585  18.286   8.380  0.00  0.00     0.180 C 
ENDROOT
BRANCH   2   7
HETATM    7  O   UNK N   1      31.909  16.808   6.371  0.00  0.00    -0.264 OA
BRANCH   7   8
HETATM    8  P   UNK N   1      31.462  16.617   4.692  0.00  0.00     0.393 P 
HETATM    9  O   UNK N   1      32.666  15.940   3.985  0.00  0.00    -0.631 OA
BRANCH   8  10
HETATM   10  O   UNK N   1      30.112  15.541   4.512  0.00  0.00    -0.307 OA
HETATM   11  H   UNK N   1      30.229  14.630   4.204  0.00  0.00     0.222 HD
ENDBRANCH   8  10
BRANCH   8  12
HETATM   12  O   UNK N   1      31.174  18.124   3.876  0.00  0.00    -0.307 OA
HETATM   13  H   UNK N   1      30.703  18.960   4.013  0.00  0.00     0.222 HD
ENDBRANCH   8  12
ENDBRANCH   7   8
ENDBRANCH   2   7
BRANCH   1  14
HETATM   14  N   UNK N   1      32.036  16.960   9.211  0.00  0.00    -0.420 N 
HETATM   15  H   UNK N   1      32.222  17.030  10.213  0.00  0.00     0.150 HD
HETATM   16  H   UNK N   1      32.637  16.320   8.693  0.00  0.00     0.150 HD
ENDBRANCH   1  14
BRANCH   4  17
HETATM   17  O   UNK N   1      29.942  18.656  10.321  0.00  0.00    -0.391 OA
HETATM   18  H   UNK N   1      29.753  19.606  10.273  0.00  0.00     0.210 HD
ENDBRANCH   4  17
BRANCH   5  19
HETATM   19  C   UNK N   1      27.383  17.795   6.195  0.00  0.00     0.198 C 
BRANCH  19  20
HETATM   20  O   UNK N   1      26.962  19.100   6.452  0.00  0.00    -0.398 OA
HETATM   21  H   UNK N   1      26.523  19.504   7.218  0.00  0.00     0.209 HD
ENDBRANCH  19  20
ENDBRANCH   5  19
BRANCH   6  22
HETATM   22  O   UNK N   1      27.393  18.194   9.103  0.00  0.00    -0.390 OA
HETATM   23  H   UNK N   1      26.593  17.717   8.833  0.00  0.00     0.210 HD
ENDBRANCH   6  22
TORSDOF 9
ENDMDL
MODEL 7
REMARK VINA RESULT:      -4.9      3.319      4.601
REMARK  9 active torsions:
REMARK  status: ('A' for Active; 'I' for Inactive)
REMARK    1  A    between atoms: C_1  and  N_7 
REMARK    2  A    between atoms: C_2  and  O_12 
REMARK    3  A    between atoms: C_4  and  O_8 
REMARK    4  A    between atoms: C_5  and  C_10 
REMARK    5  A    between atoms: C_6  and  O_9 
REMARK    6  A    between atoms: C_10  and  O_11 
REMARK    7  A    between atoms: O_12  and  P_15 
REMARK    8  A    between atoms: P_15  and  O_14 
REMARK    9  A    between atoms: P_15  and  O_16 
ROOT
HETATM    1  C   UNK N   1      36.197  13.742  14.548  0.00  0.00     0.162 C 
HETATM    2  C   UNK N   1      36.214  13.975  13.029  0.00  0.00     0.296 C 
HETATM    3  O   UNK N   1      35.169  13.225  12.457  0.00  0.00    -0.348 OA
HETATM    4  C   UNK N   1      36.368  12.247  14.833  0.00  0.00     0.176 C 
HETATM    5  C   UNK N   1      35.557  11.874  12.522  0.00  0.00     0.179 C 
HETATM    6  C   UNK N   1      35.415  11.411  13.980  0.00  0.00     0.180 C 
ENDROOT
BRANCH   2   7
HETATM    7  O   UNK N   1      36.014  15.344  12.780  0.00  0.00    -0.264 OA
BRANCH   7   8
HETATM    8  P   UNK N   1      35.224  15.504  11.228  0.00  0.00     0.393 P 
HETATM    9  O   UNK N   1      35.263  17.012  10.863  0.00  0.00    -0.631 OA
BRANCH   8  10
HETATM   10  O   UNK N   1      36.096  14.669   9.982  0.00  0.00    -0.307 OA
HETATM   11  H   UNK N   1      35.757  14.615   9.076  0.00  0.00     0.222 HD
ENDBRANCH   8  10
BRANCH   8  12
HETATM   12  O   UNK N   1      33.554  15.029  11.249  0.00  0.00    -0.307 OA
HETATM   13  H   UNK N   1      32.917  14.538  10.706  0.00  0.00     0.222 HD
ENDBRANCH   8  12
ENDBRANCH   7   8
ENDBRANCH   2   7
BRANCH   1  14
HETATM   14  N   UNK N   1      37.265  14.488  15.190  0.00  0.00    -0.420 N 
HETATM   15  H   UNK N   1      37.394  15.500  15.234  0.00  0.00     0.150 HD
HETATM   16  H   UNK N   1      37.978  13.929  15.657  0.00  0.00     0.150 HD
ENDBRANCH   1  14
BRANCH   4  17
HETATM   17  O   UNK N   1      36.146  11.990  16.188  0.00  0.00    -0.391 OA
HETATM   18  H   UNK N   1      35.262  11.840  16.559  0.00  0.00     0.210 HD
ENDBRANCH   4  17
BRANCH   5  19
HETATM   19  C   UNK N   1      34.684  11.071  11.569  0.00  0.00     0.198 C 
BRANCH  19  20
HETATM   20  O   UNK N   1      33.600  10.517  12.251  0.00  0.00    -0.398 OA
HETATM   21  H   UNK N   1      33.228  10.686  13.131  0.00  0.00     0.209 HD
ENDBRANCH  19  20
ENDBRANCH   5  19
BRANCH   6  22
HETATM   22  O   UNK N   1      35.743  10.059  14.113  0.00  0.00    -0.390 OA
HETATM   23  H   UNK N   1      36.621   9.667  13.994  0.00  0.00     0.210 HD
ENDBRANCH   6  22
TORSDOF 9
ENDMDL
MODEL 8
REMARK VINA RESULT:      -4.8     16.919     19.741
REMARK  9 active torsions:
REMARK  status: ('A' for Active; 'I' for Inactive)
REMARK    1  A    between atoms: C_1  and  N_7 
REMARK    2  A    between atoms: C_2  and  O_12 
REMARK    3  A    between atoms: C_4  and  O_8 
REMARK    4  A    between atoms: C_5  and  C_10 
REMARK    5  A    between atoms: C_6  and  O_9 
REMARK    6  A    between atoms: C_10  and  O_11 
REMARK    7  A    between atoms: O_12  and  P_15 
REMARK    8  A    between atoms: P_15  and  O_14 
REMARK    9  A    between atoms: P_15  and  O_16 
ROOT
HETATM    1  C   UNK N   1      26.839  23.987  -5.097  0.00  0.00     0.162 C 
HETATM    2  C   UNK N   1      27.573  24.644  -3.917  0.00  0.00     0.296 C 
HETATM    3  O   UNK N   1      26.653  25.453  -3.223  0.00  0.00    -0.348 OA
HETATM    4  C   UNK N   1      26.266  25.077  -6.007  0.00  0.00     0.176 C 
HETATM    5  C   UNK N   1      26.405  26.573  -4.038  0.00  0.00     0.179 C 
HETATM    6  C   UNK N   1      25.503  26.125  -5.198  0.00  0.00     0.180 C 
ENDROOT
BRANCH   2   7
HETATM    7  O   UNK N   1      28.058  23.633  -3.068  0.00  0.00    -0.264 OA
BRANCH   7   8
HETATM    8  P   UNK N   1      29.805  23.700  -3.087  0.00  0.00     0.393 P 
HETATM    9  O   UNK N   1      30.192  25.201  -3.141  0.00  0.00    -0.631 OA
BRANCH   8  10
HETATM   10  O   UNK N   1      30.481  23.065  -1.619  0.00  0.00    -0.307 OA
HETATM   11  H   UNK N   1      29.918  22.732  -0.905  0.00  0.00     0.222 HD
ENDBRANCH   8  10
BRANCH   8  12
HETATM   12  O   UNK N   1      30.511  22.941  -4.481  0.00  0.00    -0.307 OA
HETATM   13  H   UNK N   1      30.434  22.124  -4.997  0.00  0.00     0.222 HD
ENDBRANCH   8  12
ENDBRANCH   7   8
ENDBRANCH   2   7
BRANCH   1  14
HETATM   14  N   UNK N   1      27.748  23.143  -5.855  0.00  0.00    -0.420 N 
HETATM   15  H   UNK N   1      28.419  23.419  -6.573  0.00  0.00     0.150 HD
HETATM   16  H   UNK N   1      27.710  22.147  -5.642  0.00  0.00     0.150 HD
ENDBRANCH   1  14
BRANCH   4  17
HETATM   17  O   UNK N   1      25.423  24.506  -6.964  0.00  0.00    -0.391 OA
HETATM   18  H   UNK N   1      24.457  24.489  -6.874  0.00  0.00     0.210 HD
ENDBRANCH   4  17
BRANCH   5  19
HETATM   19  C   UNK N   1      25.763  27.659  -3.188  0.00  0.00     0.198 C 
BRANCH  19  20
HETATM   20  O   UNK N   1      25.692  28.858  -3.899  0.00  0.00    -0.398 OA
HETATM   21  H   UNK N   1      25.284  29.714  -3.694  0.00  0.00     0.209 HD
ENDBRANCH  19  20
ENDBRANCH   5  19
BRANCH   6  22
HETATM   22  O   UNK N   1      25.178  27.200  -6.027  0.00  0.00    -0.390 OA
HETATM   23  H   UNK N   1      24.297  27.414  -6.372  0.00  0.00     0.210 HD
ENDBRANCH   6  22
TORSDOF 9
ENDMDL
MODEL 9
REMARK VINA RESULT:      -4.7      4.742      6.637
REMARK  9 active torsions:
REMARK  status: ('A' for Active; 'I' for Inactive)
REMARK    1  A    between atoms: C_1  and  N_7 
REMARK    2  A    between atoms: C_2  and  O_12 
REMARK    3  A    between atoms: C_4  and  O_8 
REMARK    4  A    between atoms: C_5  and  C_10 
REMARK    5  A    between atoms: C_6  and  O_9 
REMARK    6  A    between atoms: C_10  and  O_11 
REMARK    7  A    between atoms: O_12  and  P_15 
REMARK    8  A    between atoms: P_15  and  O_14 
REMARK    9  A    between atoms: P_15  and  O_16 
ROOT
HETATM    1  C   UNK N   1      31.281  17.134   8.290  0.00  0.00     0.162 C 
HETATM    2  C   UNK N   1      30.504  17.455   7.003  0.00  0.00     0.296 C 
HETATM    3  O   UNK N   1      31.165  16.837   5.924  0.00  0.00    -0.348 OA
HETATM    4  C   UNK N   1      32.718  17.645   8.154  0.00  0.00     0.176 C 
HETATM    5  C   UNK N   1      32.350  17.563   5.706  0.00  0.00     0.179 C 
HETATM    6  C   UNK N   1      33.337  17.206   6.828  0.00  0.00     0.180 C 
ENDROOT
BRANCH   2   7
HETATM    7  O   UNK N   1      29.200  16.943   7.124  0.00  0.00    -0.264 OA
BRANCH   7   8
HETATM    8  P   UNK N   1      28.231  17.614   5.833  0.00  0.00     0.393 P 
HETATM    9  O   UNK N   1      27.431  16.436   5.219  0.00  0.00    -0.631 OA
BRANCH   8  10
HETATM   10  O   UNK N   1      27.063  18.746   6.438  0.00  0.00    -0.307 OA
HETATM   11  H   UNK N   1      26.145  18.740   6.127  0.00  0.00     0.222 HD
ENDBRANCH   8  10
BRANCH   8  12
HETATM   12  O   UNK N   1      29.173  18.313   4.551  0.00  0.00    -0.307 OA
HETATM   13  H   UNK N   1      29.615  18.048   3.729  0.00  0.00     0.222 HD
ENDBRANCH   8  12
ENDBRANCH   7   8
ENDBRANCH   2   7
BRANCH   1  14
HETATM   14  N   UNK N   1      30.645  17.757   9.437  0.00  0.00    -0.420 N 
HETATM   15  H   UNK N   1      30.846  17.617  10.429  0.00  0.00     0.150 HD
HETATM   16  H   UNK N   1      29.901  18.422   9.226  0.00  0.00     0.150 HD
ENDBRANCH   1  14
BRANCH   4  17
HETATM   17  O   UNK N   1      33.493  17.182   9.220  0.00  0.00    -0.391 OA
HETATM   18  H   UNK N   1      33.511  17.614  10.088  0.00  0.00     0.210 HD
ENDBRANCH   4  17
BRANCH   5  19
HETATM   19  C   UNK N   1      32.887  17.212   4.326  0.00  0.00     0.198 C 
BRANCH  19  20
HETATM   20  O   UNK N   1      31.965  17.563   3.340  0.00  0.00    -0.398 OA
HETATM   21  H   UNK N   1      31.867  18.357   2.791  0.00  0.00     0.209 HD
ENDBRANCH  19  20
ENDBRANCH   5  19
BRANCH   6  22
HETATM   22  O   UNK N   1      34.559  17.860   6.650  0.00  0.00    -0.390 OA
HETATM   23  H   UNK N   1      35.012  18.011   5.806  0.00  0.00     0.210 HD
ENDBRANCH   6  22
TORSDOF 9
ENDMDL
