MODEL 1
REMARK VINA RESULT:      -4.7      0.000      0.000
REMARK  4 active torsions:
REMARK  status: ('A' for Active; 'I' for Inactive)
REMARK    1  A    between atoms: C_4  and  O_8 
REMARK    2  A    between atoms: C_5  and  O_9 
REMARK    3  A    between atoms: C_6  and  O_10 
REMARK    4  A    between atoms: C_7  and  O_11 
ROOT
HETATM    1  C   UNK N   1      43.936  22.512   0.100  0.00  0.00     0.042 C 
HETATM    2  C   UNK N   1      43.893  23.685   1.075  0.00  0.00     0.152 C 
HETATM    3  C   UNK N   1      45.061  23.655   2.082  0.00  0.00     0.178 C 
HETATM    4  C   UNK N   1      44.822  22.555   3.128  0.00  0.00     0.183 C 
HETATM    5  C   UNK N   1      43.444  22.755   3.776  0.00  0.00     0.204 C 
HETATM    6  C   UNK N   1      42.368  22.775   2.676  0.00  0.00     0.290 C 
HETATM    7  O   UNK N   1      42.621  23.804   1.712  0.00  0.00    -0.351 OA
ENDROOT
BRANCH   3   8
HETATM    8  O   UNK N   1      45.159  24.900   2.711  0.00  0.00    -0.390 OA
HETATM    9  H   UNK N   1      44.722  25.566   3.265  0.00  0.00     0.210 HD
ENDBRANCH   3   8
BRANCH   4  10
HETATM   10  O   UNK N   1      45.828  22.576   4.098  0.00  0.00    -0.390 OA
HETATM   11  H   UNK N   1      45.680  22.176   4.969  0.00  0.00     0.210 HD
ENDBRANCH   4  10
BRANCH   5  12
HETATM   12  O   UNK N   1      43.405  23.956   4.491  0.00  0.00    -0.388 OA
HETATM   13  H   UNK N   1      43.017  24.827   4.665  0.00  0.00     0.210 HD
ENDBRANCH   5  12
BRANCH   6  14
HETATM   14  O   UNK N   1      42.274  21.501   2.071  0.00  0.00    -0.363 OA
HETATM   15  C   UNK N   1      40.977  21.009   2.286  0.00  0.00     0.204 C 
ENDBRANCH   6  14
TORSDOF 4
ENDMDL
MODEL 2
REMARK VINA RESULT:      -4.6      1.542      2.477
REMARK  4 active torsions:
REMARK  status: ('A' for Active; 'I' for Inactive)
REMARK    1  A    between atoms: C_4  and  O_8 
REMARK    2  A    between atoms: C_5  and  O_9 
REMARK    3  A    between atoms: C_6  and  O_10 
REMARK    4  A    between atoms: C_7  and  O_11 
ROOT
HETATM    1  C   UNK N   1      43.742  19.586   2.927  0.00  0.00     0.042 C 
HETATM    2  C   UNK N   1      44.724  20.752   2.849  0.00  0.00     0.152 C 
HETATM    3  C   UNK N   1      44.806  21.540   4.172  0.00  0.00     0.178 C 
HETATM    4  C   UNK N   1      43.541  22.393   4.352  0.00  0.00     0.183 C 
HETATM    5  C   UNK N   1      43.338  23.276   3.112  0.00  0.00     0.204 C 
HETATM    6  C   UNK N   1      43.279  22.381   1.861  0.00  0.00     0.290 C 
HETATM    7  O   UNK N   1      44.466  21.591   1.724  0.00  0.00    -0.351 OA
ENDROOT
BRANCH   3   8
HETATM    8  O   UNK N   1      45.939  22.360   4.149  0.00  0.00    -0.390 OA
HETATM    9  H   UNK N   1      46.739  22.625   3.668  0.00  0.00     0.210 HD
ENDBRANCH   3   8
BRANCH   4  10
HETATM   10  O   UNK N   1      43.643  23.181   5.502  0.00  0.00    -0.390 OA
HETATM   11  H   UNK N   1      43.700  22.768   6.378  0.00  0.00     0.210 HD
ENDBRANCH   4  10
BRANCH   5  12
HETATM   12  O   UNK N   1      44.385  24.194   2.982  0.00  0.00    -0.388 OA
HETATM   13  H   UNK N   1      45.064  24.636   2.450  0.00  0.00     0.210 HD
ENDBRANCH   5  12
BRANCH   6  14
HETATM   14  O   UNK N   1      42.117  21.578   1.898  0.00  0.00    -0.363 OA
HETATM   15  C   UNK N   1      41.002  22.414   1.732  0.00  0.00     0.204 C 
ENDBRANCH   6  14
TORSDOF 4
ENDMDL
MODEL 3
REMARK VINA RESULT:      -4.5     21.045     23.400
REMARK  4 active torsions:
REMARK  status: ('A' for Active; 'I' for Inactive)
REMARK    1  A    between atoms: C_4  and  O_8 
REMARK    2  A    between atoms: C_5  and  O_9 
REMARK    3  A    between atoms: C_6  and  O_10 
REMARK    4  A    between atoms: C_7  and  O_11 
ROOT
HETATM    1  C   UNK N   1      21.223  16.185   2.739  0.00  0.00     0.042 C 
HETATM    2  C   UNK N   1      20.181  17.174   3.254  0.00  0.00     0.152 C 
HETATM    3  C   UNK N   1      19.728  18.169   2.166  0.00  0.00     0.178 C 
HETATM    4  C   UNK N   1      20.834  19.204   1.910  0.00  0.00     0.183 C 
HETATM    5  C   UNK N   1      21.231  19.869   3.236  0.00  0.00     0.204 C 
HETATM    6  C   UNK N   1      21.656  18.779   4.237  0.00  0.00     0.290 C 
HETATM    7  O   UNK N   1      20.609  17.825   4.450  0.00  0.00    -0.351 OA
ENDROOT
BRANCH   3   8
HETATM    8  O   UNK N   1      18.559  18.811   2.589  0.00  0.00    -0.390 OA
HETATM    9  H   UNK N   1      18.097  19.655   2.714  0.00  0.00     0.210 HD
ENDBRANCH   3   8
BRANCH   4  10
HETATM   10  O   UNK N   1      20.401  20.164   0.991  0.00  0.00    -0.390 OA
HETATM   11  H   UNK N   1      19.458  20.376   0.907  0.00  0.00     0.210 HD
ENDBRANCH   4  10
BRANCH   5  12
HETATM   12  O   UNK N   1      20.161  20.598   3.763  0.00  0.00    -0.388 OA
HETATM   13  H   UNK N   1      19.476  20.732   4.436  0.00  0.00     0.210 HD
ENDBRANCH   5  12
BRANCH   6  14
HETATM   14  O   UNK N   1      22.848  18.161   3.800  0.00  0.00    -0.363 OA
HETATM   15  C   UNK N   1      23.765  18.177   4.862  0.00  0.00     0.204 C 
ENDBRANCH   6  14
TORSDOF 4
ENDMDL
MODEL 4
REMARK VINA RESULT:      -4.4     22.611     24.336
REMARK  4 active torsions:
REMARK  status: ('A' for Active; 'I' for Inactive)
REMARK    1  A    between atoms: C_4  and  O_8 
REMARK    2  A    between atoms: C_5  and  O_9 
REMARK    3  A    between atoms: C_6  and  O_10 
REMARK    4  A    between atoms: C_7  and  O_11 
ROOT
HETATM    1  C   UNK N   1      21.467  14.792   1.193  0.00  0.00     0.042 C 
HETATM    2  C   UNK N   1      20.060  15.377   1.263  0.00  0.00     0.152 C 
HETATM    3  C   UNK N   1      19.878  16.585   0.322  0.00  0.00     0.178 C 
HETATM    4  C   UNK N   1      20.600  17.811   0.900  0.00  0.00     0.183 C 
HETATM    5  C   UNK N   1      20.118  18.061   2.336  0.00  0.00     0.204 C 
HETATM    6  C   UNK N   1      20.344  16.788   3.172  0.00  0.00     0.290 C 
HETATM    7  O   UNK N   1      19.666  15.661   2.606  0.00  0.00    -0.351 OA
ENDROOT
BRANCH   3   8
HETATM    8  O   UNK N   1      18.513  16.856   0.180  0.00  0.00    -0.390 OA
HETATM    9  H   UNK N   1      17.672  17.043   0.627  0.00  0.00     0.210 HD
ENDBRANCH   3   8
BRANCH   4  10
HETATM   10  O   UNK N   1      20.369  18.936   0.103  0.00  0.00    -0.390 OA
HETATM   11  H   UNK N   1      19.981  18.841  -0.780  0.00  0.00     0.210 HD
ENDBRANCH   4  10
BRANCH   5  12
HETATM   12  O   UNK N   1      18.760  18.395   2.350  0.00  0.00    -0.388 OA
HETATM   13  H   UNK N   1      18.036  19.012   2.162  0.00  0.00     0.210 HD
ENDBRANCH   5  12
BRANCH   6  14
HETATM   14  O   UNK N   1      21.728  16.548   3.319  0.00  0.00    -0.363 OA
HETATM   15  C   UNK N   1      22.209  17.373   4.348  0.00  0.00     0.204 C 
ENDBRANCH   6  14
TORSDOF 4
ENDMDL
MODEL 5
REMARK VINA RESULT:      -4.3     13.279     14.969
REMARK  4 active torsions:
REMARK  status: ('A' for Active; 'I' for Inactive)
REMARK    1  A    between atoms: C_4  and  O_8 
REMARK    2  A    between atoms: C_5  and  O_9 
REMARK    3  A    between atoms: C_6  and  O_10 
REMARK    4  A    between atoms: C_7  and  O_11 
ROOT
HETATM    1  C   UNK N   1      34.378  13.819   9.327  0.00  0.00     0.042 C 
HETATM    2  C   UNK N   1      34.952  14.786  10.359  0.00  0.00     0.152 C 
HETATM    3  C   UNK N   1      36.491  14.870  10.292  0.00  0.00     0.178 C 
HETATM    4  C   UNK N   1      37.110  13.597  10.888  0.00  0.00     0.183 C 
HETATM    5  C   UNK N   1      36.559  13.373  12.303  0.00  0.00     0.204 C 
HETATM    6  C   UNK N   1      35.022  13.314  12.242  0.00  0.00     0.290 C 
HETATM    7  O   UNK N   1      34.473  14.509  11.675  0.00  0.00    -0.351 OA
ENDROOT
BRANCH   3   8
HETATM    8  O   UNK N   1      36.921  15.993  11.006  0.00  0.00    -0.390 OA
HETATM    9  H   UNK N   1      37.162  16.932  10.974  0.00  0.00     0.210 HD
ENDBRANCH   3   8
BRANCH   4  10
HETATM   10  O   UNK N   1      38.504  13.700  10.916  0.00  0.00    -0.390 OA
HETATM   11  H   UNK N   1      39.008  13.361  11.672  0.00  0.00     0.210 HD
ENDBRANCH   4  10
BRANCH   5  12
HETATM   12  O   UNK N   1      36.954  14.408  13.157  0.00  0.00    -0.388 OA
HETATM   13  H   UNK N   1      36.780  15.249  13.608  0.00  0.00     0.210 HD
ENDBRANCH   5  12
BRANCH   6  14
HETATM   14  O   UNK N   1      34.613  12.161  11.534  0.00  0.00    -0.363 OA
HETATM   15  C   UNK N   1      34.732  11.056  12.391  0.00  0.00     0.204 C 
ENDBRANCH   6  14
TORSDOF 4
ENDMDL
MODEL 6
REMARK VINA RESULT:      -4.3     12.755     14.022
REMARK  4 active torsions:
REMARK  status: ('A' for Active; 'I' for Inactive)
REMARK    1  A    between atoms: C_4  and  O_8 
REMARK    2  A    between atoms: C_5  and  O_9 
REMARK    3  A    between atoms: C_6  and  O_10 
REMARK    4  A    between atoms: C_7  and  O_11 
ROOT
HETATM    1  C   UNK N   1      33.834  17.593   6.930  0.00  0.00     0.042 C 
HETATM    2  C   UNK N   1      33.629  17.594   8.442  0.00  0.00     0.152 C 
HETATM    3  C   UNK N   1      34.673  16.730   9.177  0.00  0.00     0.178 C 
HETATM    4  C   UNK N   1      34.363  15.241   8.964  0.00  0.00     0.183 C 
HETATM    5  C   UNK N   1      32.913  14.954   9.380  0.00  0.00     0.204 C 
HETATM    6  C   UNK N   1      31.970  15.878   8.588  0.00  0.00     0.290 C 
HETATM    7  O   UNK N   1      32.288  17.258   8.799  0.00  0.00    -0.351 OA
ENDROOT
BRANCH   3   8
HETATM    8  O   UNK N   1      34.644  17.035  10.542  0.00  0.00    -0.390 OA
HETATM    9  H   UNK N   1      34.614  16.693  11.450  0.00  0.00     0.210 HD
ENDBRANCH   3   8
BRANCH   4  10
HETATM   10  O   UNK N   1      35.249  14.447   9.699  0.00  0.00    -0.390 OA
HETATM   11  H   UNK N   1      35.165  14.378  10.662  0.00  0.00     0.210 HD
ENDBRANCH   4  10
BRANCH   5  12
HETATM   12  O   UNK N   1      32.740  15.173  10.750  0.00  0.00    -0.388 OA
HETATM   13  H   UNK N   1      32.858  15.717  11.544  0.00  0.00     0.210 HD
ENDBRANCH   5  12
BRANCH   6  14
HETATM   14  O   UNK N   1      32.001  15.536   7.217  0.00  0.00    -0.363 OA
HETATM   15  C   UNK N   1      30.719  15.742   6.685  0.00  0.00     0.204 C 
ENDBRANCH   6  14
TORSDOF 4
ENDMDL
MODEL 7
REMARK VINA RESULT:      -4.2     12.895     14.148
REMARK  4 active torsions:
REMARK  status: ('A' for Active; 'I' for Inactive)
REMARK    1  A    between atoms: C_4  and  O_8 
REMARK    2  A    between atoms: C_5  and  O_9 
REMARK    3  A    between atoms: C_6  and  O_10 
REMARK    4  A    between atoms: C_7  and  O_11 
ROOT
HETATM    1  C   UNK N   1      35.228  15.131   6.999  0.00  0.00     0.042 C 
HETATM    2  C   UNK N   1      33.948  15.411   7.780  0.00  0.00     0.152 C 
HETATM    3  C   UNK N   1      34.120  16.558   8.798  0.00  0.00     0.178 C 
HETATM    4  C   UNK N   1      34.949  16.073   9.996  0.00  0.00     0.183 C 
HETATM    5  C   UNK N   1      34.308  14.808  10.585  0.00  0.00     0.204 C 
HETATM    6  C   UNK N   1      34.183  13.745   9.478  0.00  0.00     0.290 C 
HETATM    7  O   UNK N   1      33.413  14.227   8.371  0.00  0.00    -0.351 OA
ENDROOT
BRANCH   3   8
HETATM    8  O   UNK N   1      32.860  16.984   9.227  0.00  0.00    -0.390 OA
HETATM    9  H   UNK N   1      32.084  17.538   9.044  0.00  0.00     0.210 HD
ENDBRANCH   3   8
BRANCH   4  10
HETATM   10  O   UNK N   1      35.037  17.075  10.967  0.00  0.00    -0.390 OA
HETATM   11  H   UNK N   1      34.625  16.955  11.837  0.00  0.00     0.210 HD
ENDBRANCH   4  10
BRANCH   5  12
HETATM   12  O   UNK N   1      33.041  15.093  11.105  0.00  0.00    -0.388 OA
HETATM   13  H   UNK N   1      32.253  15.655  11.160  0.00  0.00     0.210 HD
ENDBRANCH   5  12
BRANCH   6  14
HETATM   14  O   UNK N   1      35.468  13.315   9.077  0.00  0.00    -0.363 OA
HETATM   15  C   UNK N   1      35.967  12.447  10.060  0.00  0.00     0.204 C 
ENDBRANCH   6  14
TORSDOF 4
ENDMDL
MODEL 8
REMARK VINA RESULT:      -4.2     13.426     14.479
REMARK  4 active torsions:
REMARK  status: ('A' for Active; 'I' for Inactive)
REMARK    1  A    between atoms: C_4  and  O_8 
REMARK    2  A    between atoms: C_5  and  O_9 
REMARK    3  A    between atoms: C_6  and  O_10 
REMARK    4  A    between atoms: C_7  and  O_11 
ROOT
HETATM    1  C   UNK N   1      34.761  12.177  10.320  0.00  0.00     0.042 C 
HETATM    2  C   UNK N   1      36.051  12.959  10.093  0.00  0.00     0.152 C 
HETATM    3  C   UNK N   1      36.787  13.274  11.411  0.00  0.00     0.178 C 
HETATM    4  C   UNK N   1      36.046  14.384  12.172  0.00  0.00     0.183 C 
HETATM    5  C   UNK N   1      35.863  15.601  11.254  0.00  0.00     0.204 C 
HETATM    6  C   UNK N   1      35.128  15.162   9.975  0.00  0.00     0.290 C 
HETATM    7  O   UNK N   1      35.837  14.122   9.292  0.00  0.00    -0.351 OA
ENDROOT
BRANCH   3   8
HETATM    8  O   UNK N   1      38.093  13.681  11.123  0.00  0.00    -0.390 OA
HETATM    9  H   UNK N   1      38.906  13.507  10.621  0.00  0.00     0.210 HD
ENDBRANCH   3   8
BRANCH   4  10
HETATM   10  O   UNK N   1      36.751  14.741  13.325  0.00  0.00    -0.390 OA
HETATM   11  H   UNK N   1      37.280  14.083  13.801  0.00  0.00     0.210 HD
ENDBRANCH   4  10
BRANCH   5  12
HETATM   12  O   UNK N   1      37.103  16.153  10.914  0.00  0.00    -0.388 OA
HETATM   13  H   UNK N   1      38.026  16.361  11.126  0.00  0.00     0.210 HD
ENDBRANCH   5  12
BRANCH   6  14
HETATM   14  O   UNK N   1      33.805  14.776  10.289  0.00  0.00    -0.363 OA
HETATM   15  C   UNK N   1      32.956  15.266   9.285  0.00  0.00     0.204 C 
ENDBRANCH   6  14
TORSDOF 4
ENDMDL
MODEL 9
REMARK VINA RESULT:      -4.2     11.740     13.103
REMARK  4 active torsions:
REMARK  status: ('A' for Active; 'I' for Inactive)
REMARK    1  A    between atoms: C_4  and  O_8 
REMARK    2  A    between atoms: C_5  and  O_9 
REMARK    3  A    between atoms: C_6  and  O_10 
REMARK    4  A    between atoms: C_7  and  O_11 
ROOT
HETATM    1  C   UNK N   1      32.866  16.096   5.849  0.00  0.00     0.042 C 
HETATM    2  C   UNK N   1      32.472  16.451   7.280  0.00  0.00     0.152 C 
HETATM    3  C   UNK N   1      32.940  17.864   7.685  0.00  0.00     0.178 C 
HETATM    4  C   UNK N   1      34.458  17.864   7.921  0.00  0.00     0.183 C 
HETATM    5  C   UNK N   1      34.818  16.772   8.939  0.00  0.00     0.204 C 
HETATM    6  C   UNK N   1      34.295  15.417   8.429  0.00  0.00     0.290 C 
HETATM    7  O   UNK N   1      32.880  15.449   8.210  0.00  0.00    -0.351 OA
ENDROOT
BRANCH   3   8
HETATM    8  O   UNK N   1      32.273  18.253   8.851  0.00  0.00    -0.390 OA
HETATM    9  H   UNK N   1      31.684  17.988   9.575  0.00  0.00     0.210 HD
ENDBRANCH   3   8
BRANCH   4  10
HETATM   10  O   UNK N   1      34.881  19.116   8.375  0.00  0.00    -0.390 OA
HETATM   11  H   UNK N   1      35.164  19.236   9.295  0.00  0.00     0.210 HD
ENDBRANCH   4  10
BRANCH   5  12
HETATM   12  O   UNK N   1      34.252  17.053  10.186  0.00  0.00    -0.388 OA
HETATM   13  H   UNK N   1      34.336  17.231  11.135  0.00  0.00     0.210 HD
ENDBRANCH   5  12
BRANCH   6  14
HETATM   14  O   UNK N   1      34.998  15.036   7.264  0.00  0.00    -0.363 OA
HETATM   15  C   UNK N   1      36.094  14.250   7.651  0.00  0.00     0.204 C 
ENDBRANCH   6  14
TORSDOF 4
ENDMDL
