MODEL 1
REMARK VINA RESULT:      -8.4      0.000      0.000
REMARK  13 active torsions:
REMARK  status: ('A' for Active; 'I' for Inactive)
REMARK    1  A    between atoms: C_6  and  C_5 
REMARK    2  A    between atoms: C_13  and  C_5 
REMARK    3  A    between atoms: C_14  and  C_6 
REMARK    4  A    between atoms: C_12  and  C_7 
REMARK    5  A    between atoms: N_23  and  C_7 
REMARK    6  A    between atoms: N_29  and  C_9 
REMARK    7  A    between atoms: C_17  and  C_10 
REMARK    8  A    between atoms: N_23  and  C_11 
REMARK    9  A    between atoms: C_19  and  C_13 
REMARK   10  A    between atoms: C_13  and  N_25 
REMARK   11  A    between atoms: O_32  and  C_14 
REMARK       I    between atoms: N_25  and  C_17 
REMARK   12  A    between atoms: O_34  and  C_18 
REMARK   13  A    between atoms: O_36  and  C_19 
REMARK       I    between atoms: N_21  and  C_20 
ROOT
HETATM    1  N   UNK N   1      29.322  18.331   4.236  0.00  0.00    -0.388 N 
HETATM    2  H   UNK N   1      30.027  18.917   3.877  0.00  0.00     0.159 HD
ENDROOT
BRANCH   1   3
HETATM    3  C   UNK N   1      29.661  17.052   4.759  0.00  0.00     0.147 C 
BRANCH   3   4
HETATM    4  C   UNK N   1      30.659  17.119   5.911  0.00  0.00     0.128 C 
HETATM    5  C   UNK N   1      29.875  16.775   7.173  0.00  0.00     0.148 C 
HETATM    6  N   UNK N   1      30.717  16.888   8.344  0.00  0.00    -0.372 N 
HETATM    7  C   UNK N   1      32.130  16.793   8.257  0.00  0.00     0.148 A 
HETATM    8  H   UNK N   1      30.298  17.035   9.222  0.00  0.00     0.161 HD
HETATM    9  C   UNK N   1      32.744  16.486   7.032  0.00  0.00     0.133 A 
HETATM   10  N   UNK N   1      32.880  17.004   9.364  0.00  0.00    -0.175 N 
HETATM   11  C   UNK N   1      34.155  16.437   6.997  0.00  0.00     0.186 A 
HETATM   12  N   UNK N   1      31.895  16.315   5.889  0.00  0.00    -0.310 N 
HETATM   13  N   UNK N   1      34.859  16.665   8.136  0.00  0.00    -0.168 N 
HETATM   14  C   UNK N   1      34.232  16.941   9.309  0.00  0.00     0.679 A 
ATOM     15  HN  UNK N   1      35.877  16.629   8.111  1.00  0.00     0.186 HD
HETATM   16  N   UNK N   1      34.921  17.170  10.360  0.00  0.00    -0.234 N 
HETATM   17  H   UNK N   1      34.493  17.544  11.165  0.00  0.00     0.174 HD
ATOM     18  HN  UNK N   1      35.920  16.964  10.366  1.00  0.00     0.174 HD
HETATM   19  H   UNK N   1      32.439  17.207  10.220  0.00  0.00     0.186 HD
BRANCH  11  20
HETATM   20  O   UNK N   1      34.829  16.242   5.851  0.00  0.00    -0.344 OA
HETATM   21  H   UNK N   1      34.489  16.444   5.002  0.00  0.00     0.219 HD
ENDBRANCH  11  20
BRANCH  12  22
HETATM   22  C   UNK N   1      32.182  15.437   4.878  0.00  0.00     0.356 C 
HETATM   23  O   UNK N   1      31.845  14.265   4.905  0.00  0.00    -0.283 OA
ENDBRANCH  12  22
ENDBRANCH   3   4
ENDBRANCH   1   3
BRANCH   1  24
HETATM   24  C   UNK N   1      27.989  18.759   4.231  0.00  0.00     0.028 A 
HETATM   25  C   UNK N   1      27.658  20.075   4.591  0.00  0.00     0.030 A 
HETATM   26  C   UNK N   1      26.366  20.545   4.380  0.00  0.00     0.019 A 
HETATM   27  C   UNK N   1      25.405  19.686   3.840  0.00  0.00     0.032 A 
HETATM   28  C   UNK N   1      25.724  18.345   3.585  0.00  0.00     0.019 A 
HETATM   29  C   UNK N   1      27.012  17.886   3.775  0.00  0.00     0.030 A 
BRANCH  27  30
HETATM   30  C   UNK N   1      24.223  20.234   3.180  0.00  0.00     0.252 C 
HETATM   31  N   UNK N   1      23.036  19.667   3.505  0.00  0.00    -0.343 N 
HETATM   32  H   UNK N   1      22.936  19.348   4.431  0.00  0.00     0.163 HD
HETATM   33  O   UNK N   1      24.347  20.934   2.188  0.00  0.00    -0.268 OA
BRANCH  31  34
HETATM   34  C   UNK N   1      21.902  19.485   2.631  0.00  0.00     0.183 C 
BRANCH  34  35
HETATM   35  C   UNK N   1      21.092  18.312   3.185  0.00  0.00     0.046 C 
BRANCH  35  36
HETATM   36  C   UNK N   1      19.876  17.986   2.327  0.00  0.00     0.112 C 
BRANCH  36  37
HETATM   37  C   UNK N   1      20.290  17.180   1.145  0.00  0.00     0.139 C 
HETATM   38  O   UNK N   1      20.676  16.034   1.300  0.00  0.00    -0.650 OA
BRANCH  37  39
HETATM   39  O   UNK N   1      20.254  17.717  -0.089  0.00  0.00    -0.776 OA
HETATM   40  H   UNK N   1      21.012  18.097  -0.486  0.00  0.00     0.167 HD
ENDBRANCH  37  39
ENDBRANCH  36  37
ENDBRANCH  35  36
ENDBRANCH  34  35
BRANCH  34  41
HETATM   41  C   UNK N   1      21.066  20.722   2.403  0.00  0.00     0.163 C 
HETATM   42  O   UNK N   1      20.902  21.155   1.275  0.00  0.00    -0.648 OA
BRANCH  41  43
HETATM   43  O   UNK N   1      20.417  21.305   3.429  0.00  0.00    -0.775 OA
HETATM   44  H   UNK N   1      19.517  21.121   3.616  0.00  0.00     0.167 HD
ENDBRANCH  41  43
ENDBRANCH  34  41
ENDBRANCH  31  34
ENDBRANCH  27  30
ENDBRANCH   1  24
TORSDOF 13
ENDMDL
MODEL 2
REMARK VINA RESULT:      -8.3      1.605      2.272
REMARK  13 active torsions:
REMARK  status: ('A' for Active; 'I' for Inactive)
REMARK    1  A    between atoms: C_6  and  C_5 
REMARK    2  A    between atoms: C_13  and  C_5 
REMARK    3  A    between atoms: C_14  and  C_6 
REMARK    4  A    between atoms: C_12  and  C_7 
REMARK    5  A    between atoms: N_23  and  C_7 
REMARK    6  A    between atoms: N_29  and  C_9 
REMARK    7  A    between atoms: C_17  and  C_10 
REMARK    8  A    between atoms: N_23  and  C_11 
REMARK    9  A    between atoms: C_19  and  C_13 
REMARK   10  A    between atoms: C_13  and  N_25 
REMARK   11  A    between atoms: O_32  and  C_14 
REMARK       I    between atoms: N_25  and  C_17 
REMARK   12  A    between atoms: O_34  and  C_18 
REMARK   13  A    between atoms: O_36  and  C_19 
REMARK       I    between atoms: N_21  and  C_20 
ROOT
HETATM    1  N   UNK N   1      28.895  18.270   5.939  0.00  0.00    -0.388 N 
HETATM    2  H   UNK N   1      28.858  18.597   6.867  0.00  0.00     0.159 HD
ENDROOT
BRANCH   1   3
HETATM    3  C   UNK N   1      29.905  17.346   5.553  0.00  0.00     0.147 C 
BRANCH   3   4
HETATM    4  C   UNK N   1      31.018  17.204   6.588  0.00  0.00     0.128 C 
HETATM    5  C   UNK N   1      30.334  16.847   7.902  0.00  0.00     0.148 C 
HETATM    6  N   UNK N   1      31.299  16.766   8.975  0.00  0.00    -0.372 N 
HETATM    7  C   UNK N   1      32.673  16.520   8.724  0.00  0.00     0.148 A 
HETATM    8  H   UNK N   1      30.995  16.885   9.904  0.00  0.00     0.161 HD
HETATM    9  C   UNK N   1      33.116  16.249   7.419  0.00  0.00     0.133 A 
HETATM   10  N   UNK N   1      33.555  16.553   9.751  0.00  0.00    -0.175 N 
HETATM   11  C   UNK N   1      34.499  16.045   7.221  0.00  0.00     0.186 A 
HETATM   12  N   UNK N   1      32.139  16.271   6.369  0.00  0.00    -0.310 N 
HETATM   13  N   UNK N   1      35.340  16.096   8.288  0.00  0.00    -0.168 N 
HETATM   14  C   UNK N   1      34.876  16.342   9.540  0.00  0.00     0.679 A 
ATOM     15  HN  UNK N   1      36.339  15.948   8.145  1.00  0.00     0.186 HD
HETATM   16  N   UNK N   1      35.693  16.404  10.520  0.00  0.00    -0.234 N 
HETATM   17  H   UNK N   1      35.399  16.755  11.392  0.00  0.00     0.174 HD
ATOM     18  HN  UNK N   1      36.655  16.088  10.399  1.00  0.00     0.174 HD
HETATM   19  H   UNK N   1      33.232  16.732  10.664  0.00  0.00     0.186 HD
BRANCH  11  20
HETATM   20  O   UNK N   1      35.023  15.871   5.996  0.00  0.00    -0.344 OA
HETATM   21  H   UNK N   1      35.661  15.218   5.787  0.00  0.00     0.219 HD
ENDBRANCH  11  20
BRANCH  12  22
HETATM   22  C   UNK N   1      32.211  15.453   5.273  0.00  0.00     0.356 C 
HETATM   23  O   UNK N   1      32.728  15.798   4.224  0.00  0.00    -0.283 OA
ENDBRANCH  12  22
ENDBRANCH   3   4
ENDBRANCH   1   3
BRANCH   1  24
HETATM   24  C   UNK N   1      27.954  18.716   5.004  0.00  0.00     0.028 A 
HETATM   25  C   UNK N   1      27.123  17.805   4.333  0.00  0.00     0.030 A 
HETATM   26  C   UNK N   1      26.057  18.273   3.571  0.00  0.00     0.019 A 
HETATM   27  C   UNK N   1      25.850  19.651   3.458  0.00  0.00     0.032 A 
HETATM   28  C   UNK N   1      26.751  20.548   4.047  0.00  0.00     0.019 A 
HETATM   29  C   UNK N   1      27.795  20.083   4.821  0.00  0.00     0.030 A 
BRANCH  27  30
HETATM   30  C   UNK N   1      24.533  20.163   3.089  0.00  0.00     0.252 C 
HETATM   31  N   UNK N   1      23.473  19.618   3.733  0.00  0.00    -0.343 N 
HETATM   32  H   UNK N   1      23.614  19.350   4.670  0.00  0.00     0.163 HD
HETATM   33  O   UNK N   1      24.394  20.807   2.061  0.00  0.00    -0.268 OA
BRANCH  31  34
HETATM   34  C   UNK N   1      22.158  19.390   3.185  0.00  0.00     0.183 C 
BRANCH  34  35
HETATM   35  C   UNK N   1      21.571  18.180   3.914  0.00  0.00     0.046 C 
BRANCH  35  36
HETATM   36  C   UNK N   1      22.190  17.972   5.291  0.00  0.00     0.112 C 
BRANCH  36  37
HETATM   37  C   UNK N   1      21.117  17.848   6.316  0.00  0.00     0.139 C 
HETATM   38  O   UNK N   1      20.370  16.885   6.296  0.00  0.00    -0.650 OA
BRANCH  37  39
HETATM   39  O   UNK N   1      20.961  18.802   7.253  0.00  0.00    -0.776 OA
HETATM   40  H   UNK N   1      20.580  18.616   8.089  0.00  0.00     0.167 HD
ENDBRANCH  37  39
ENDBRANCH  36  37
ENDBRANCH  35  36
ENDBRANCH  34  35
BRANCH  34  41
HETATM   41  C   UNK N   1      21.241  20.589   3.202  0.00  0.00     0.163 C 
HETATM   42  O   UNK N   1      20.245  20.593   3.907  0.00  0.00    -0.648 OA
BRANCH  41  43
HETATM   43  O   UNK N   1      21.560  21.701   2.513  0.00  0.00    -0.775 OA
HETATM   44  H   UNK N   1      22.003  22.423   2.913  0.00  0.00     0.167 HD
ENDBRANCH  41  43
ENDBRANCH  34  41
ENDBRANCH  31  34
ENDBRANCH  27  30
ENDBRANCH   1  24
TORSDOF 13
ENDMDL
MODEL 3
REMARK VINA RESULT:      -8.1      2.248      3.101
REMARK  13 active torsions:
REMARK  status: ('A' for Active; 'I' for Inactive)
REMARK    1  A    between atoms: C_6  and  C_5 
REMARK    2  A    between atoms: C_13  and  C_5 
REMARK    3  A    between atoms: C_14  and  C_6 
REMARK    4  A    between atoms: C_12  and  C_7 
REMARK    5  A    between atoms: N_23  and  C_7 
REMARK    6  A    between atoms: N_29  and  C_9 
REMARK    7  A    between atoms: C_17  and  C_10 
REMARK    8  A    between atoms: N_23  and  C_11 
REMARK    9  A    between atoms: C_19  and  C_13 
REMARK   10  A    between atoms: C_13  and  N_25 
REMARK   11  A    between atoms: O_32  and  C_14 
REMARK       I    between atoms: N_25  and  C_17 
REMARK   12  A    between atoms: O_34  and  C_18 
REMARK   13  A    between atoms: O_36  and  C_19 
REMARK       I    between atoms: N_21  and  C_20 
ROOT
HETATM    1  N   UNK N   1      28.751  18.307   6.232  0.00  0.00    -0.388 N 
HETATM    2  H   UNK N   1      29.342  18.924   6.721  0.00  0.00     0.159 HD
ENDROOT
BRANCH   1   3
HETATM    3  C   UNK N   1      28.805  16.911   6.499  0.00  0.00     0.147 C 
BRANCH   3   4
HETATM    4  C   UNK N   1      30.222  16.399   6.744  0.00  0.00     0.128 C 
HETATM    5  C   UNK N   1      31.107  17.090   5.713  0.00  0.00     0.148 C 
HETATM    6  N   UNK N   1      32.469  16.611   5.807  0.00  0.00    -0.372 N 
HETATM    7  C   UNK N   1      32.973  16.029   6.998  0.00  0.00     0.148 A 
HETATM    8  H   UNK N   1      33.060  16.692   5.024  0.00  0.00     0.161 HD
HETATM    9  C   UNK N   1      32.181  15.993   8.158  0.00  0.00     0.133 A 
HETATM   10  N   UNK N   1      34.222  15.506   7.007  0.00  0.00    -0.175 N 
HETATM   11  C   UNK N   1      32.721  15.372   9.305  0.00  0.00     0.186 A 
HETATM   12  N   UNK N   1      30.853  16.526   8.071  0.00  0.00    -0.310 N 
HETATM   13  N   UNK N   1      33.977  14.857   9.255  0.00  0.00    -0.168 N 
HETATM   14  C   UNK N   1      34.723  14.925   8.123  0.00  0.00     0.679 A 
ATOM     15  HN  UNK N   1      34.368  14.408  10.084  1.00  0.00     0.186 HD
HETATM   16  N   UNK N   1      35.894  14.414   8.100  0.00  0.00    -0.234 N 
HETATM   17  H   UNK N   1      36.371  14.298   7.246  0.00  0.00     0.174 HD
ATOM     18  HN  UNK N   1      36.339  14.126   8.971  1.00  0.00     0.174 HD
HETATM   19  H   UNK N   1      34.773  15.547   6.192  0.00  0.00     0.186 HD
BRANCH  11  20
HETATM   20  O   UNK N   1      32.002  15.210  10.429  0.00  0.00    -0.344 OA
HETATM   21  H   UNK N   1      31.604  15.914  10.902  0.00  0.00     0.219 HD
ENDBRANCH  11  20
BRANCH  12  22
HETATM   22  C   UNK N   1      30.235  17.151   9.121  0.00  0.00     0.356 C 
HETATM   23  O   UNK N   1      30.190  18.365   9.234  0.00  0.00    -0.283 OA
ENDBRANCH  12  22
ENDBRANCH   3   4
ENDBRANCH   1   3
BRANCH   1  24
HETATM   24  C   UNK N   1      27.862  18.807   5.273  0.00  0.00     0.028 A 
HETATM   25  C   UNK N   1      27.143  17.935   4.439  0.00  0.00     0.030 A 
HETATM   26  C   UNK N   1      26.115  18.430   3.644  0.00  0.00     0.019 A 
HETATM   27  C   UNK N   1      25.834  19.800   3.663  0.00  0.00     0.032 A 
HETATM   28  C   UNK N   1      26.630  20.671   4.420  0.00  0.00     0.019 A 
HETATM   29  C   UNK N   1      27.636  20.175   5.225  0.00  0.00     0.030 A 
BRANCH  27  30
HETATM   30  C   UNK N   1      24.523  20.282   3.240  0.00  0.00     0.252 C 
HETATM   31  N   UNK N   1      23.449  19.647   3.768  0.00  0.00    -0.343 N 
HETATM   32  H   UNK N   1      23.540  19.317   4.691  0.00  0.00     0.163 HD
HETATM   33  O   UNK N   1      24.422  20.994   2.252  0.00  0.00    -0.268 OA
BRANCH  31  34
HETATM   34  C   UNK N   1      22.185  19.405   3.115  0.00  0.00     0.183 C 
BRANCH  34  35
HETATM   35  C   UNK N   1      21.595  18.137   3.734  0.00  0.00     0.046 C 
BRANCH  35  36
HETATM   36  C   UNK N   1      22.443  17.598   4.880  0.00  0.00     0.112 C 
BRANCH  36  37
HETATM   37  C   UNK N   1      21.734  17.802   6.174  0.00  0.00     0.139 C 
HETATM   38  O   UNK N   1      21.821  16.959   7.051  0.00  0.00    -0.650 OA
BRANCH  37  39
HETATM   39  O   UNK N   1      20.987  18.904   6.372  0.00  0.00    -0.776 OA
HETATM   40  H   UNK N   1      21.337  19.673   6.777  0.00  0.00     0.167 HD
ENDBRANCH  37  39
ENDBRANCH  36  37
ENDBRANCH  35  36
ENDBRANCH  34  35
BRANCH  34  41
HETATM   41  C   UNK N   1      21.224  20.569   3.130  0.00  0.00     0.163 C 
HETATM   42  O   UNK N   1      20.282  20.581   3.905  0.00  0.00    -0.648 OA
BRANCH  41  43
HETATM   43  O   UNK N   1      21.447  21.647   2.354  0.00  0.00    -0.775 OA
HETATM   44  H   UNK N   1      22.278  22.080   2.334  0.00  0.00     0.167 HD
ENDBRANCH  41  43
ENDBRANCH  34  41
ENDBRANCH  31  34
ENDBRANCH  27  30
ENDBRANCH   1  24
TORSDOF 13
ENDMDL
MODEL 4
REMARK VINA RESULT:      -8.1      2.710      3.973
REMARK  13 active torsions:
REMARK  status: ('A' for Active; 'I' for Inactive)
REMARK    1  A    between atoms: C_6  and  C_5 
REMARK    2  A    between atoms: C_13  and  C_5 
REMARK    3  A    between atoms: C_14  and  C_6 
REMARK    4  A    between atoms: C_12  and  C_7 
REMARK    5  A    between atoms: N_23  and  C_7 
REMARK    6  A    between atoms: N_29  and  C_9 
REMARK    7  A    between atoms: C_17  and  C_10 
REMARK    8  A    between atoms: N_23  and  C_11 
REMARK    9  A    between atoms: C_19  and  C_13 
REMARK   10  A    between atoms: C_13  and  N_25 
REMARK   11  A    between atoms: O_32  and  C_14 
REMARK       I    between atoms: N_25  and  C_17 
REMARK   12  A    between atoms: O_34  and  C_18 
REMARK   13  A    between atoms: O_36  and  C_19 
REMARK       I    between atoms: N_21  and  C_20 
ROOT
HETATM    1  N   UNK N   1      30.336  17.748   8.422  0.00  0.00    -0.388 N 
HETATM    2  H   UNK N   1      30.365  18.013   9.370  0.00  0.00     0.159 HD
ENDROOT
BRANCH   1   3
HETATM    3  C   UNK N   1      31.449  17.084   7.837  0.00  0.00     0.147 C 
BRANCH   3   4
HETATM    4  C   UNK N   1      32.325  16.365   8.858  0.00  0.00     0.128 C 
HETATM    5  C   UNK N   1      32.129  14.873   8.614  0.00  0.00     0.148 C 
HETATM    6  N   UNK N   1      32.860  14.095   9.589  0.00  0.00    -0.372 N 
HETATM    7  C   UNK N   1      33.979  14.627  10.279  0.00  0.00     0.148 A 
HETATM    8  H   UNK N   1      32.573  13.173   9.778  0.00  0.00     0.161 HD
HETATM    9  C   UNK N   1      34.467  15.904   9.956  0.00  0.00     0.133 A 
HETATM   10  N   UNK N   1      34.570  13.896  11.254  0.00  0.00    -0.175 N 
HETATM   11  C   UNK N   1      35.562  16.398  10.698  0.00  0.00     0.186 A 
HETATM   12  N   UNK N   1      33.771  16.644   8.944  0.00  0.00    -0.310 N 
HETATM   13  N   UNK N   1      36.112  15.624  11.671  0.00  0.00    -0.168 N 
HETATM   14  C   UNK N   1      35.627  14.386  11.945  0.00  0.00     0.679 A 
ATOM     15  HN  UNK N   1      36.903  15.980  12.207  1.00  0.00     0.186 HD
HETATM   16  N   UNK N   1      36.151  13.689  12.879  0.00  0.00    -0.234 N 
HETATM   17  H   UNK N   1      35.703  12.875  13.205  0.00  0.00     0.174 HD
ATOM     18  HN  UNK N   1      37.040  13.977  13.288  1.00  0.00     0.174 HD
HETATM   19  H   UNK N   1      34.227  12.998  11.464  0.00  0.00     0.186 HD
BRANCH  11  20
HETATM   20  O   UNK N   1      36.036  17.643  10.521  0.00  0.00    -0.344 OA
HETATM   21  H   UNK N   1      36.718  17.863   9.918  0.00  0.00     0.219 HD
ENDBRANCH  11  20
BRANCH  12  22
HETATM   22  C   UNK N   1      34.405  17.504   8.087  0.00  0.00     0.356 C 
HETATM   23  O   UNK N   1      34.520  18.697   8.314  0.00  0.00    -0.283 OA
ENDBRANCH  12  22
ENDBRANCH   3   4
ENDBRANCH   1   3
BRANCH   1  24
HETATM   24  C   UNK N   1      29.199  18.028   7.655  0.00  0.00     0.028 A 
HETATM   25  C   UNK N   1      28.396  19.143   7.944  0.00  0.00     0.030 A 
HETATM   26  C   UNK N   1      27.399  19.527   7.053  0.00  0.00     0.019 A 
HETATM   27  C   UNK N   1      27.190  18.774   5.894  0.00  0.00     0.032 A 
HETATM   28  C   UNK N   1      27.929  17.604   5.673  0.00  0.00     0.019 A 
HETATM   29  C   UNK N   1      28.932  17.236   6.547  0.00  0.00     0.030 A 
BRANCH  27  30
HETATM   30  C   UNK N   1      26.519  19.373   4.745  0.00  0.00     0.252 C 
HETATM   31  N   UNK N   1      25.168  19.264   4.712  0.00  0.00    -0.343 N 
HETATM   32  H   UNK N   1      24.702  19.287   5.578  0.00  0.00     0.163 HD
HETATM   33  O   UNK N   1      27.160  19.671   3.749  0.00  0.00    -0.268 OA
BRANCH  31  34
HETATM   34  C   UNK N   1      24.346  19.117   3.535  0.00  0.00     0.183 C 
BRANCH  34  35
HETATM   35  C   UNK N   1      23.132  18.278   3.938  0.00  0.00     0.046 C 
BRANCH  35  36
HETATM   36  C   UNK N   1      23.037  18.076   5.446  0.00  0.00     0.112 C 
BRANCH  36  37
HETATM   37  C   UNK N   1      21.688  18.486   5.927  0.00  0.00     0.139 C 
HETATM   38  O   UNK N   1      21.046  19.309   5.298  0.00  0.00    -0.650 OA
BRANCH  37  39
HETATM   39  O   UNK N   1      21.184  17.962   7.060  0.00  0.00    -0.776 OA
HETATM   40  H   UNK N   1      20.949  17.057   7.125  0.00  0.00     0.167 HD
ENDBRANCH  37  39
ENDBRANCH  36  37
ENDBRANCH  35  36
ENDBRANCH  34  35
BRANCH  34  41
HETATM   41  C   UNK N   1      23.967  20.411   2.854  0.00  0.00     0.163 C 
HETATM   42  O   UNK N   1      22.839  20.861   2.970  0.00  0.00    -0.648 OA
BRANCH  41  43
HETATM   43  O   UNK N   1      24.893  21.128   2.189  0.00  0.00    -0.775 OA
HETATM   44  H   UNK N   1      24.847  22.062   2.129  0.00  0.00     0.167 HD
ENDBRANCH  41  43
ENDBRANCH  34  41
ENDBRANCH  31  34
ENDBRANCH  27  30
ENDBRANCH   1  24
TORSDOF 13
ENDMDL
MODEL 5
REMARK VINA RESULT:      -7.9      2.779     11.611
REMARK  13 active torsions:
REMARK  status: ('A' for Active; 'I' for Inactive)
REMARK    1  A    between atoms: C_6  and  C_5 
REMARK    2  A    between atoms: C_13  and  C_5 
REMARK    3  A    between atoms: C_14  and  C_6 
REMARK    4  A    between atoms: C_12  and  C_7 
REMARK    5  A    between atoms: N_23  and  C_7 
REMARK    6  A    between atoms: N_29  and  C_9 
REMARK    7  A    between atoms: C_17  and  C_10 
REMARK    8  A    between atoms: N_23  and  C_11 
REMARK    9  A    between atoms: C_19  and  C_13 
REMARK   10  A    between atoms: C_13  and  N_25 
REMARK   11  A    between atoms: O_32  and  C_14 
REMARK       I    between atoms: N_25  and  C_17 
REMARK   12  A    between atoms: O_34  and  C_18 
REMARK   13  A    between atoms: O_36  and  C_19 
REMARK       I    between atoms: N_21  and  C_20 
ROOT
HETATM    1  N   UNK N   1      27.471  19.311   6.626  0.00  0.00    -0.388 N 
HETATM    2  H   UNK N   1      26.893  19.791   7.261  0.00  0.00     0.159 HD
ENDROOT
BRANCH   1   3
HETATM    3  C   UNK N   1      27.339  19.546   5.229  0.00  0.00     0.147 C 
BRANCH   3   4
HETATM    4  C   UNK N   1      25.888  19.686   4.777  0.00  0.00     0.128 C 
HETATM    5  C   UNK N   1      25.933  20.319   3.391  0.00  0.00     0.148 C 
HETATM    6  N   UNK N   1      24.596  20.570   2.901  0.00  0.00    -0.372 N 
HETATM    7  C   UNK N   1      23.476  19.850   3.390  0.00  0.00     0.148 A 
HETATM    8  H   UNK N   1      24.460  21.258   2.211  0.00  0.00     0.161 HD
HETATM    9  C   UNK N   1      23.655  18.796   4.301  0.00  0.00     0.133 A 
HETATM   10  N   UNK N   1      22.233  20.189   2.974  0.00  0.00    -0.175 N 
HETATM   11  C   UNK N   1      22.503  18.136   4.781  0.00  0.00     0.186 A 
HETATM   12  N   UNK N   1      24.993  18.515   4.734  0.00  0.00    -0.310 N 
HETATM   13  N   UNK N   1      21.279  18.523   4.334  0.00  0.00    -0.168 N 
HETATM   14  C   UNK N   1      21.142  19.534   3.438  0.00  0.00     0.679 A 
ATOM     15  HN  UNK N   1      20.446  18.047   4.680  1.00  0.00     0.186 HD
HETATM   16  N   UNK N   1      19.977  19.889   3.052  0.00  0.00    -0.234 N 
HETATM   17  H   UNK N   1      19.852  20.726   2.548  0.00  0.00     0.174 HD
ATOM     18  HN  UNK N   1      19.171  19.302   3.266  1.00  0.00     0.174 HD
HETATM   19  H   UNK N   1      22.119  20.922   2.325  0.00  0.00     0.186 HD
BRANCH  11  20
HETATM   20  O   UNK N   1      22.573  17.180   5.722  0.00  0.00    -0.344 OA
HETATM   21  H   UNK N   1      22.586  16.262   5.537  0.00  0.00     0.219 HD
ENDBRANCH  11  20
BRANCH  12  22
HETATM   22  C   UNK N   1      25.424  17.251   5.036  0.00  0.00     0.356 C 
HETATM   23  O   UNK N   1      25.820  16.468   4.189  0.00  0.00    -0.283 OA
ENDBRANCH  12  22
ENDBRANCH   3   4
ENDBRANCH   1   3
BRANCH   1  24
HETATM   24  C   UNK N   1      28.419  18.397   7.100  0.00  0.00     0.028 A 
HETATM   25  C   UNK N   1      28.731  17.242   6.365  0.00  0.00     0.030 A 
HETATM   26  C   UNK N   1      29.817  16.457   6.738  0.00  0.00     0.019 A 
HETATM   27  C   UNK N   1      30.564  16.814   7.864  0.00  0.00     0.032 A 
HETATM   28  C   UNK N   1      30.176  17.909   8.648  0.00  0.00     0.019 A 
HETATM   29  C   UNK N   1      29.111  18.699   8.264  0.00  0.00     0.030 A 
BRANCH  27  30
HETATM   30  C   UNK N   1      31.933  16.330   8.016  0.00  0.00     0.252 C 
HETATM   31  N   UNK N   1      32.668  16.902   9.001  0.00  0.00    -0.343 N 
HETATM   32  H   UNK N   1      32.184  17.170   9.815  0.00  0.00     0.163 HD
HETATM   33  O   UNK N   1      32.457  15.685   7.121  0.00  0.00    -0.268 OA
BRANCH  31  34
HETATM   34  C   UNK N   1      34.088  17.157   8.977  0.00  0.00     0.183 C 
BRANCH  34  35
HETATM   35  C   UNK N   1      34.781  15.816   8.728  0.00  0.00     0.046 C 
BRANCH  35  36
HETATM   36  C   UNK N   1      35.603  15.353   9.925  0.00  0.00     0.112 C 
BRANCH  36  37
HETATM   37  C   UNK N   1      34.790  15.456  11.168  0.00  0.00     0.139 C 
HETATM   38  O   UNK N   1      35.210  16.101  12.114  0.00  0.00    -0.650 OA
BRANCH  37  39
HETATM   39  O   UNK N   1      33.602  14.828  11.256  0.00  0.00    -0.776 OA
HETATM   40  H   UNK N   1      33.284  14.273  10.572  0.00  0.00     0.167 HD
ENDBRANCH  37  39
ENDBRANCH  36  37
ENDBRANCH  35  36
ENDBRANCH  34  35
BRANCH  34  41
HETATM   41  C   UNK N   1      34.528  18.234   8.013  0.00  0.00     0.163 C 
HETATM   42  O   UNK N   1      35.030  19.265   8.429  0.00  0.00    -0.648 OA
BRANCH  41  43
HETATM   43  O   UNK N   1      34.456  18.030   6.684  0.00  0.00    -0.775 OA
HETATM   44  H   UNK N   1      35.144  17.605   6.210  0.00  0.00     0.167 HD
ENDBRANCH  41  43
ENDBRANCH  34  41
ENDBRANCH  31  34
ENDBRANCH  27  30
ENDBRANCH   1  24
TORSDOF 13
ENDMDL
MODEL 6
REMARK VINA RESULT:      -7.9      2.307     11.311
REMARK  13 active torsions:
REMARK  status: ('A' for Active; 'I' for Inactive)
REMARK    1  A    between atoms: C_6  and  C_5 
REMARK    2  A    between atoms: C_13  and  C_5 
REMARK    3  A    between atoms: C_14  and  C_6 
REMARK    4  A    between atoms: C_12  and  C_7 
REMARK    5  A    between atoms: N_23  and  C_7 
REMARK    6  A    between atoms: N_29  and  C_9 
REMARK    7  A    between atoms: C_17  and  C_10 
REMARK    8  A    between atoms: N_23  and  C_11 
REMARK    9  A    between atoms: C_19  and  C_13 
REMARK   10  A    between atoms: C_13  and  N_25 
REMARK   11  A    between atoms: O_32  and  C_14 
REMARK       I    between atoms: N_25  and  C_17 
REMARK   12  A    between atoms: O_34  and  C_18 
REMARK   13  A    between atoms: O_36  and  C_19 
REMARK       I    between atoms: N_21  and  C_20 
ROOT
HETATM    1  N   UNK N   1      26.125  18.605   5.692  0.00  0.00    -0.388 N 
HETATM    2  H   UNK N   1      25.383  18.830   6.298  0.00  0.00     0.159 HD
ENDROOT
BRANCH   1   3
HETATM    3  C   UNK N   1      25.868  18.356   4.315  0.00  0.00     0.147 C 
BRANCH   3   4
HETATM    4  C   UNK N   1      24.380  18.331   3.977  0.00  0.00     0.128 C 
HETATM    5  C   UNK N   1      23.655  17.971   5.269  0.00  0.00     0.148 C 
HETATM    6  N   UNK N   1      22.234  17.843   5.038  0.00  0.00    -0.372 N 
HETATM    7  C   UNK N   1      21.596  18.478   3.942  0.00  0.00     0.148 A 
HETATM    8  H   UNK N   1      21.695  17.300   5.658  0.00  0.00     0.161 HD
HETATM    9  C   UNK N   1      22.324  19.337   3.102  0.00  0.00     0.133 A 
HETATM   10  N   UNK N   1      20.282  18.248   3.711  0.00  0.00    -0.175 N 
HETATM   11  C   UNK N   1      21.647  19.916   2.006  0.00  0.00     0.186 A 
HETATM   12  N   UNK N   1      23.722  19.506   3.377  0.00  0.00    -0.310 N 
HETATM   13  N   UNK N   1      20.330  19.644   1.817  0.00  0.00    -0.168 N 
HETATM   14  C   UNK N   1      19.651  18.824   2.660  0.00  0.00     0.679 A 
ATOM     15  HN  UNK N   1      19.841  20.063   1.026  1.00  0.00     0.186 HD
HETATM   16  N   UNK N   1      18.417  18.571   2.445  0.00  0.00    -0.234 N 
HETATM   17  H   UNK N   1      17.964  17.847   2.935  0.00  0.00     0.174 HD
ATOM     18  HN  UNK N   1      17.898  19.122   1.762  1.00  0.00     0.174 HD
HETATM   19  H   UNK N   1      19.779  17.653   4.313  0.00  0.00     0.186 HD
BRANCH  11  20
HETATM   20  O   UNK N   1      22.285  20.675   1.100  0.00  0.00    -0.344 OA
HETATM   21  H   UNK N   1      21.893  20.988   0.309  0.00  0.00     0.219 HD
ENDBRANCH  11  20
BRANCH  12  22
HETATM   22  C   UNK N   1      24.384  20.682   3.148  0.00  0.00     0.356 C 
HETATM   23  O   UNK N   1      24.946  20.931   2.094  0.00  0.00    -0.283 OA
ENDBRANCH  12  22
ENDBRANCH   3   4
ENDBRANCH   1   3
BRANCH   1  24
HETATM   24  C   UNK N   1      27.432  18.532   6.189  0.00  0.00     0.028 A 
HETATM   25  C   UNK N   1      27.812  19.277   7.317  0.00  0.00     0.030 A 
HETATM   26  C   UNK N   1      29.041  19.036   7.922  0.00  0.00     0.019 A 
HETATM   27  C   UNK N   1      29.897  18.076   7.375  0.00  0.00     0.032 A 
HETATM   28  C   UNK N   1      29.548  17.417   6.188  0.00  0.00     0.019 A 
HETATM   29  C   UNK N   1      28.319  17.641   5.601  0.00  0.00     0.030 A 
BRANCH  27  30
HETATM   30  C   UNK N   1      30.936  17.468   8.201  0.00  0.00     0.252 C 
HETATM   31  N   UNK N   1      32.195  17.940   8.028  0.00  0.00    -0.343 N 
HETATM   32  H   UNK N   1      32.283  18.896   7.810  0.00  0.00     0.163 HD
HETATM   33  O   UNK N   1      30.724  16.409   8.770  0.00  0.00    -0.268 OA
BRANCH  31  34
HETATM   34  C   UNK N   1      33.419  17.182   8.130  0.00  0.00     0.183 C 
BRANCH  34  35
HETATM   35  C   UNK N   1      33.710  16.611   6.741  0.00  0.00     0.046 C 
BRANCH  35  36
HETATM   36  C   UNK N   1      33.266  17.545   5.621  0.00  0.00     0.112 C 
BRANCH  36  37
HETATM   37  C   UNK N   1      32.789  16.749   4.457  0.00  0.00     0.139 C 
HETATM   38  O   UNK N   1      32.991  17.153   3.324  0.00  0.00    -0.650 OA
BRANCH  37  39
HETATM   39  O   UNK N   1      32.124  15.594   4.651  0.00  0.00    -0.776 OA
HETATM   40  H   UNK N   1      32.396  14.969   5.294  0.00  0.00     0.167 HD
ENDBRANCH  37  39
ENDBRANCH  36  37
ENDBRANCH  35  36
ENDBRANCH  34  35
BRANCH  34  41
HETATM   41  C   UNK N   1      34.591  17.935   8.714  0.00  0.00     0.163 C 
HETATM   42  O   UNK N   1      34.896  19.033   8.279  0.00  0.00    -0.648 OA
BRANCH  41  43
HETATM   43  O   UNK N   1      35.252  17.446   9.780  0.00  0.00    -0.775 OA
HETATM   44  H   UNK N   1      34.945  17.574  10.656  0.00  0.00     0.167 HD
ENDBRANCH  41  43
ENDBRANCH  34  41
ENDBRANCH  31  34
ENDBRANCH  27  30
ENDBRANCH   1  24
TORSDOF 13
ENDMDL
MODEL 7
REMARK VINA RESULT:      -7.8      2.749     11.050
REMARK  13 active torsions:
REMARK  status: ('A' for Active; 'I' for Inactive)
REMARK    1  A    between atoms: C_6  and  C_5 
REMARK    2  A    between atoms: C_13  and  C_5 
REMARK    3  A    between atoms: C_14  and  C_6 
REMARK    4  A    between atoms: C_12  and  C_7 
REMARK    5  A    between atoms: N_23  and  C_7 
REMARK    6  A    between atoms: N_29  and  C_9 
REMARK    7  A    between atoms: C_17  and  C_10 
REMARK    8  A    between atoms: N_23  and  C_11 
REMARK    9  A    between atoms: C_19  and  C_13 
REMARK   10  A    between atoms: C_13  and  N_25 
REMARK   11  A    between atoms: O_32  and  C_14 
REMARK       I    between atoms: N_25  and  C_17 
REMARK   12  A    between atoms: O_34  and  C_18 
REMARK   13  A    between atoms: O_36  and  C_19 
REMARK       I    between atoms: N_21  and  C_20 
ROOT
HETATM    1  N   UNK N   1      27.103  19.635   6.594  0.00  0.00    -0.388 N 
HETATM    2  H   UNK N   1      26.567  20.224   7.172  0.00  0.00     0.159 HD
ENDROOT
BRANCH   1   3
HETATM    3  C   UNK N   1      26.960  19.704   5.181  0.00  0.00     0.147 C 
BRANCH   3   4
HETATM    4  C   UNK N   1      25.504  19.756   4.726  0.00  0.00     0.128 C 
HETATM    5  C   UNK N   1      25.513  20.388   3.339  0.00  0.00     0.148 C 
HETATM    6  N   UNK N   1      24.165  20.557   2.846  0.00  0.00    -0.372 N 
HETATM    7  C   UNK N   1      23.089  19.772   3.334  0.00  0.00     0.148 A 
HETATM    8  H   UNK N   1      23.989  21.235   2.154  0.00  0.00     0.161 HD
HETATM    9  C   UNK N   1      23.330  18.733   4.247  0.00  0.00     0.133 A 
HETATM   10  N   UNK N   1      21.829  20.035   2.915  0.00  0.00    -0.175 N 
HETATM   11  C   UNK N   1      22.218  18.006   4.726  0.00  0.00     0.186 A 
HETATM   12  N   UNK N   1      24.682  18.533   4.684  0.00  0.00    -0.310 N 
HETATM   13  N   UNK N   1      20.974  18.317   4.277  0.00  0.00    -0.168 N 
HETATM   14  C   UNK N   1      20.779  19.317   3.379  0.00  0.00     0.679 A 
ATOM     15  HN  UNK N   1      20.171  17.792   4.622  1.00  0.00     0.186 HD
HETATM   16  N   UNK N   1      19.595  19.600   2.990  0.00  0.00    -0.234 N 
HETATM   17  H   UNK N   1      19.421  20.427   2.484  0.00  0.00     0.174 HD
ATOM     18  HN  UNK N   1      18.826  18.966   3.203  1.00  0.00     0.174 HD
HETATM   19  H   UNK N   1      21.673  20.759   2.265  0.00  0.00     0.186 HD
BRANCH  11  20
HETATM   20  O   UNK N   1      22.344  17.057   5.670  0.00  0.00    -0.344 OA
HETATM   21  H   UNK N   1      22.561  16.165   5.489  0.00  0.00     0.219 HD
ENDBRANCH  11  20
BRANCH  12  22
HETATM   22  C   UNK N   1      25.186  17.298   4.988  0.00  0.00     0.356 C 
HETATM   23  O   UNK N   1      25.104  16.345   4.232  0.00  0.00    -0.283 OA
ENDBRANCH  12  22
ENDBRANCH   3   4
ENDBRANCH   1   3
BRANCH   1  24
HETATM   24  C   UNK N   1      28.005  18.729   7.167  0.00  0.00     0.028 A 
HETATM   25  C   UNK N   1      28.617  17.736   6.386  0.00  0.00     0.030 A 
HETATM   26  C   UNK N   1      29.660  16.985   6.916  0.00  0.00     0.019 A 
HETATM   27  C   UNK N   1      30.064  17.209   8.235  0.00  0.00     0.032 A 
HETATM   28  C   UNK N   1      29.373  18.130   9.035  0.00  0.00     0.019 A 
HETATM   29  C   UNK N   1      28.352  18.890   8.501  0.00  0.00     0.030 A 
BRANCH  27  30
HETATM   30  C   UNK N   1      31.400  16.811   8.668  0.00  0.00     0.252 C 
HETATM   31  N   UNK N   1      32.407  17.671   8.381  0.00  0.00    -0.343 N 
HETATM   32  H   UNK N   1      32.187  18.631   8.397  0.00  0.00     0.163 HD
HETATM   33  O   UNK N   1      31.620  15.652   8.984  0.00  0.00    -0.268 OA
BRANCH  31  34
HETATM   34  C   UNK N   1      33.769  17.323   8.054  0.00  0.00     0.183 C 
BRANCH  34  35
HETATM   35  C   UNK N   1      33.927  17.501   6.543  0.00  0.00     0.046 C 
BRANCH  35  36
HETATM   36  C   UNK N   1      34.158  16.179   5.821  0.00  0.00     0.112 C 
BRANCH  36  37
HETATM   37  C   UNK N   1      32.851  15.559   5.467  0.00  0.00     0.139 C 
HETATM   38  O   UNK N   1      32.237  15.959   4.493  0.00  0.00    -0.650 OA
BRANCH  37  39
HETATM   39  O   UNK N   1      32.340  14.572   6.227  0.00  0.00    -0.776 OA
HETATM   40  H   UNK N   1      31.590  14.704   6.771  0.00  0.00     0.167 HD
ENDBRANCH  37  39
ENDBRANCH  36  37
ENDBRANCH  35  36
ENDBRANCH  34  35
BRANCH  34  41
HETATM   41  C   UNK N   1      34.825  18.056   8.847  0.00  0.00     0.163 C 
HETATM   42  O   UNK N   1      35.320  17.542   9.836  0.00  0.00    -0.648 OA
BRANCH  41  43
HETATM   43  O   UNK N   1      35.296  19.242   8.419  0.00  0.00    -0.775 OA
HETATM   44  H   UNK N   1      34.791  20.029   8.483  0.00  0.00     0.167 HD
ENDBRANCH  41  43
ENDBRANCH  34  41
ENDBRANCH  31  34
ENDBRANCH  27  30
ENDBRANCH   1  24
TORSDOF 13
ENDMDL
MODEL 8
REMARK VINA RESULT:      -7.7      3.051      5.416
REMARK  13 active torsions:
REMARK  status: ('A' for Active; 'I' for Inactive)
REMARK    1  A    between atoms: C_6  and  C_5 
REMARK    2  A    between atoms: C_13  and  C_5 
REMARK    3  A    between atoms: C_14  and  C_6 
REMARK    4  A    between atoms: C_12  and  C_7 
REMARK    5  A    between atoms: N_23  and  C_7 
REMARK    6  A    between atoms: N_29  and  C_9 
REMARK    7  A    between atoms: C_17  and  C_10 
REMARK    8  A    between atoms: N_23  and  C_11 
REMARK    9  A    between atoms: C_19  and  C_13 
REMARK   10  A    between atoms: C_13  and  N_25 
REMARK   11  A    between atoms: O_32  and  C_14 
REMARK       I    between atoms: N_25  and  C_17 
REMARK   12  A    between atoms: O_34  and  C_18 
REMARK   13  A    between atoms: O_36  and  C_19 
REMARK       I    between atoms: N_21  and  C_20 
ROOT
HETATM    1  N   UNK N   1      32.815  15.494   7.068  0.00  0.00    -0.388 N 
HETATM    2  H   UNK N   1      32.583  14.546   7.197  0.00  0.00     0.159 HD
ENDROOT
BRANCH   1   3
HETATM    3  C   UNK N   1      34.130  15.950   7.364  0.00  0.00     0.147 C 
BRANCH   3   4
HETATM    4  C   UNK N   1      34.618  15.522   8.745  0.00  0.00     0.128 C 
HETATM    5  C   UNK N   1      33.368  15.242   9.571  0.00  0.00     0.148 C 
HETATM    6  N   UNK N   1      33.720  14.903  10.931  0.00  0.00    -0.372 N 
HETATM    7  C   UNK N   1      35.001  14.390  11.264  0.00  0.00     0.148 A 
HETATM    8  H   UNK N   1      33.055  15.031  11.645  0.00  0.00     0.161 HD
HETATM    9  C   UNK N   1      35.933  14.106  10.252  0.00  0.00     0.133 A 
HETATM   10  N   UNK N   1      35.318  14.181  12.563  0.00  0.00    -0.175 N 
HETATM   11  C   UNK N   1      37.204  13.630  10.642  0.00  0.00     0.186 A 
HETATM   12  N   UNK N   1      35.550  14.389   8.899  0.00  0.00    -0.310 N 
HETATM   13  N   UNK N   1      37.470  13.445  11.961  0.00  0.00    -0.168 N 
HETATM   14  C   UNK N   1      36.540  13.712  12.913  0.00  0.00     0.679 A 
ATOM     15  HN  UNK N   1      38.388  13.101  12.243  1.00  0.00     0.186 HD
HETATM   16  N   UNK N   1      36.826  13.548  14.147  0.00  0.00    -0.234 N 
HETATM   17  H   UNK N   1      36.232  13.903  14.848  0.00  0.00     0.174 HD
ATOM     18  HN  UNK N   1      37.674  13.045  14.408  1.00  0.00     0.174 HD
HETATM   19  H   UNK N   1      34.653  14.373  13.264  0.00  0.00     0.186 HD
BRANCH  11  20
HETATM   20  O   UNK N   1      38.186  13.419   9.750  0.00  0.00    -0.344 OA
HETATM   21  H   UNK N   1      38.094  12.887   8.985  0.00  0.00     0.219 HD
ENDBRANCH  11  20
BRANCH  12  22
HETATM   22  C   UNK N   1      35.974  13.637   7.836  0.00  0.00     0.356 C 
HETATM   23  O   UNK N   1      36.955  13.926   7.171  0.00  0.00    -0.283 OA
ENDBRANCH  12  22
ENDBRANCH   3   4
ENDBRANCH   1   3
BRANCH   1  24
HETATM   24  C   UNK N   1      31.848  16.390   6.596  0.00  0.00     0.028 A 
HETATM   25  C   UNK N   1      31.844  16.796   5.252  0.00  0.00     0.030 A 
HETATM   26  C   UNK N   1      30.763  17.513   4.750  0.00  0.00     0.019 A 
HETATM   27  C   UNK N   1      29.708  17.848   5.604  0.00  0.00     0.032 A 
HETATM   28  C   UNK N   1      29.777  17.527   6.966  0.00  0.00     0.019 A 
HETATM   29  C   UNK N   1      30.840  16.797   7.458  0.00  0.00     0.030 A 
BRANCH  27  30
HETATM   30  C   UNK N   1      28.394  18.163   5.052  0.00  0.00     0.252 C 
HETATM   31  N   UNK N   1      28.308  19.292   4.307  0.00  0.00    -0.343 N 
HETATM   32  H   UNK N   1      29.098  19.529   3.771  0.00  0.00     0.163 HD
HETATM   33  O   UNK N   1      27.398  17.611   5.493  0.00  0.00    -0.268 OA
BRANCH  31  34
HETATM   34  C   UNK N   1      27.175  20.181   4.221  0.00  0.00     0.183 C 
BRANCH  34  35
HETATM   35  C   UNK N   1      26.136  19.499   3.329  0.00  0.00     0.046 C 
BRANCH  35  36
HETATM   36  C   UNK N   1      25.232  20.499   2.618  0.00  0.00     0.112 C 
BRANCH  36  37
HETATM   37  C   UNK N   1      23.833  20.353   3.107  0.00  0.00     0.139 C 
HETATM   38  O   UNK N   1      23.543  19.426   3.843  0.00  0.00    -0.650 OA
BRANCH  37  39
HETATM   39  O   UNK N   1      22.887  21.233   2.728  0.00  0.00    -0.776 OA
HETATM   40  H   UNK N   1      22.093  20.958   2.314  0.00  0.00     0.167 HD
ENDBRANCH  37  39
ENDBRANCH  36  37
ENDBRANCH  35  36
ENDBRANCH  34  35
BRANCH  34  41
HETATM   41  C   UNK N   1      26.609  20.626   5.549  0.00  0.00     0.163 C 
HETATM   42  O   UNK N   1      27.009  21.651   6.077  0.00  0.00    -0.648 OA
BRANCH  41  43
HETATM   43  O   UNK N   1      25.595  19.949   6.119  0.00  0.00    -0.775 OA
HETATM   44  H   UNK N   1      25.639  19.641   7.003  0.00  0.00     0.167 HD
ENDBRANCH  41  43
ENDBRANCH  34  41
ENDBRANCH  31  34
ENDBRANCH  27  30
ENDBRANCH   1  24
TORSDOF 13
ENDMDL
MODEL 9
REMARK VINA RESULT:      -7.6      3.011      4.427
REMARK  13 active torsions:
REMARK  status: ('A' for Active; 'I' for Inactive)
REMARK    1  A    between atoms: C_6  and  C_5 
REMARK    2  A    between atoms: C_13  and  C_5 
REMARK    3  A    between atoms: C_14  and  C_6 
REMARK    4  A    between atoms: C_12  and  C_7 
REMARK    5  A    between atoms: N_23  and  C_7 
REMARK    6  A    between atoms: N_29  and  C_9 
REMARK    7  A    between atoms: C_17  and  C_10 
REMARK    8  A    between atoms: N_23  and  C_11 
REMARK    9  A    between atoms: C_19  and  C_13 
REMARK   10  A    between atoms: C_13  and  N_25 
REMARK   11  A    between atoms: O_32  and  C_14 
REMARK       I    between atoms: N_25  and  C_17 
REMARK   12  A    between atoms: O_34  and  C_18 
REMARK   13  A    between atoms: O_36  and  C_19 
REMARK       I    between atoms: N_21  and  C_20 
ROOT
HETATM    1  N   UNK N   1      30.502  16.942   8.389  0.00  0.00    -0.388 N 
HETATM    2  H   UNK N   1      30.407  17.062   9.361  0.00  0.00     0.159 HD
ENDROOT
BRANCH   1   3
HETATM    3  C   UNK N   1      31.420  15.981   7.879  0.00  0.00     0.147 C 
BRANCH   3   4
HETATM    4  C   UNK N   1      32.444  15.521   8.912  0.00  0.00     0.128 C 
HETATM    5  C   UNK N   1      32.565  14.010   8.749  0.00  0.00     0.148 C 
HETATM    6  N   UNK N   1      33.460  13.459   9.742  0.00  0.00    -0.372 N 
HETATM    7  C   UNK N   1      34.451  14.253  10.374  0.00  0.00     0.148 A 
HETATM    8  H   UNK N   1      33.378  12.509   9.985  0.00  0.00     0.161 HD
HETATM    9  C   UNK N   1      34.652  15.584   9.973  0.00  0.00     0.133 A 
HETATM   10  N   UNK N   1      35.198  13.718  11.368  0.00  0.00    -0.175 N 
HETATM   11  C   UNK N   1      35.629  16.338  10.659  0.00  0.00     0.186 A 
HETATM   12  N   UNK N   1      33.799  16.103   8.943  0.00  0.00    -0.310 N 
HETATM   13  N   UNK N   1      36.345  15.753  11.655  0.00  0.00    -0.168 N 
HETATM   14  C   UNK N   1      36.138  14.457  12.004  0.00  0.00     0.679 A 
ATOM     15  HN  UNK N   1      37.051  16.297  12.150  1.00  0.00     0.186 HD
HETATM   16  N   UNK N   1      36.813  13.939  12.958  0.00  0.00    -0.234 N 
HETATM   17  H   UNK N   1      36.553  13.069  13.337  0.00  0.00     0.174 HD
ATOM     18  HN  UNK N   1      37.627  14.430  13.327  1.00  0.00     0.174 HD
HETATM   19  H   UNK N   1      35.057  12.780  11.633  0.00  0.00     0.186 HD
BRANCH  11  20
HETATM   20  O   UNK N   1      35.825  17.643  10.406  0.00  0.00    -0.344 OA
HETATM   21  H   UNK N   1      35.363  18.124   9.748  0.00  0.00     0.219 HD
ENDBRANCH  11  20
BRANCH  12  22
HETATM   22  C   UNK N   1      34.222  17.029   8.028  0.00  0.00     0.356 C 
HETATM   23  O   UNK N   1      34.051  18.228   8.172  0.00  0.00    -0.283 OA
ENDBRANCH  12  22
ENDBRANCH   3   4
ENDBRANCH   1   3
BRANCH   1  24
HETATM   24  C   UNK N   1      29.735  17.718   7.513  0.00  0.00     0.028 A 
HETATM   25  C   UNK N   1      29.773  17.485   6.129  0.00  0.00     0.030 A 
HETATM   26  C   UNK N   1      28.855  18.115   5.295  0.00  0.00     0.019 A 
HETATM   27  C   UNK N   1      27.925  19.001   5.848  0.00  0.00     0.032 A 
HETATM   28  C   UNK N   1      27.968  19.303   7.216  0.00  0.00     0.019 A 
HETATM   29  C   UNK N   1      28.866  18.660   8.045  0.00  0.00     0.030 A 
BRANCH  27  30
HETATM   30  C   UNK N   1      26.691  19.305   5.131  0.00  0.00     0.252 C 
HETATM   31  N   UNK N   1      25.710  18.372   5.197  0.00  0.00    -0.343 N 
HETATM   32  H   UNK N   1      25.638  17.866   6.038  0.00  0.00     0.163 HD
HETATM   33  O   UNK N   1      26.675  20.189   4.288  0.00  0.00    -0.268 OA
BRANCH  31  34
HETATM   34  C   UNK N   1      24.761  18.047   4.160  0.00  0.00     0.183 C 
BRANCH  34  35
HETATM   35  C   UNK N   1      24.436  16.559   4.300  0.00  0.00     0.046 C 
BRANCH  35  36
HETATM   36  C   UNK N   1      24.884  15.987   5.641  0.00  0.00     0.112 C 
BRANCH  36  37
HETATM   37  C   UNK N   1      23.700  15.513   6.409  0.00  0.00     0.139 C 
HETATM   38  O   UNK N   1      23.760  14.462   7.025  0.00  0.00    -0.650 OA
BRANCH  37  39
HETATM   39  O   UNK N   1      22.562  16.231   6.414  0.00  0.00    -0.776 OA
HETATM   40  H   UNK N   1      22.307  16.750   7.152  0.00  0.00     0.167 HD
ENDBRANCH  37  39
ENDBRANCH  36  37
ENDBRANCH  35  36
ENDBRANCH  34  35
BRANCH  34  41
HETATM   41  C   UNK N   1      23.527  18.917   4.126  0.00  0.00     0.163 C 
HETATM   42  O   UNK N   1      22.478  18.518   4.602  0.00  0.00    -0.648 OA
BRANCH  41  43
HETATM   43  O   UNK N   1      23.595  20.176   3.654  0.00  0.00    -0.775 OA
HETATM   44  H   UNK N   1      23.893  20.365   2.785  0.00  0.00     0.167 HD
ENDBRANCH  41  43
ENDBRANCH  34  41
ENDBRANCH  31  34
ENDBRANCH  27  30
ENDBRANCH   1  24
TORSDOF 13
ENDMDL
