REMARK  11 active torsions:
REMARK  status: ('A' for Active; 'I' for Inactive)
REMARK    1  A    between atoms: C_6  and  C_3 
REMARK    2  A    between atoms: O_15  and  C_3 
REMARK    3  A    between atoms: O_16  and  C_4 
REMARK    4  A    between atoms: C_5  and  N_12 
REMARK    5  A    between atoms: C_9  and  C_6 
REMARK    6  A    between atoms: C_6  and  O_17 
REMARK    7  A    between atoms: C_11  and  C_7 
REMARK    8  A    between atoms: C_8  and  N_13 
REMARK    9  A    between atoms: C_10  and  C_9 
REMARK   10  A    between atoms: C_9  and  O_18 
REMARK   11  A    between atoms: O_20  and  C_11 
ROOT
HETATM    1  C   UNK N   1       2.589   0.990  -0.201  0.00  0.00     0.043 C 
HETATM    2  C   UNK N   1       1.511   1.947  -0.608  0.00  0.00     0.125 C 
HETATM    3  C   UNK N   1       2.309  -0.317  -0.081  0.00  0.00     0.141 C 
HETATM    4  C   UNK N   1       0.192   1.503   0.041  0.00  0.00     0.141 C 
HETATM    5  C   UNK N   1      -0.107   0.020  -0.351  0.00  0.00     0.185 C 
HETATM    6  O   UNK N   1       1.038  -0.771  -0.265  0.00  0.00    -0.335 OA
ENDROOT
BRANCH   5   7
HETATM    7  C   UNK N   1      -1.194  -0.569   0.592  0.00  0.00     0.180 C 
BRANCH   7   8
HETATM    8  C   UNK N   1      -1.559  -2.047   0.340  0.00  0.00     0.173 C 
BRANCH   8   9
HETATM    9  C   UNK N   1      -2.225  -2.255  -1.015  0.00  0.00     0.198 C 
BRANCH   9  10
HETATM   10  O   UNK N   1      -2.702  -3.563  -1.116  0.00  0.00    -0.398 OA
HETATM   11  H   UNK N   1      -3.655  -3.731  -1.187  0.00  0.00     0.209 HD
ENDBRANCH   9  10
ENDBRANCH   8   9
BRANCH   8  12
HETATM   12  O   UNK N   1      -0.433  -2.868   0.443  0.00  0.00    -0.391 OA
HETATM   13  H   UNK N   1      -0.536  -3.830   0.516  0.00  0.00     0.210 HD
ENDBRANCH   8  12
ENDBRANCH   7   8
BRANCH   7  14
HETATM   14  O   UNK N   1      -2.362   0.196   0.525  0.00  0.00    -0.390 OA
HETATM   15  H   UNK N   1      -2.308   1.164   0.479  0.00  0.00     0.210 HD
ENDBRANCH   7  14
ENDBRANCH   5   7
BRANCH   4  16
HETATM   16  N   UNK N   1      -0.902   2.358  -0.393  0.00  0.00    -0.365 N 
HETATM   17  C   UNK N   1      -1.236   3.459   0.192  0.00  0.00     0.107 C 
HETATM   18  C   UNK N   1      -2.369   4.259  -0.349  0.00  0.00     0.097 C 
ATOM     19  HN  UNK N   1      -1.440   2.069  -1.210  1.00  0.00     0.161 HD
BRANCH  17  20
HETATM   20  O   UNK N   1      -0.577   3.897   1.283  0.00  0.00    -0.350 OA
HETATM   21  H   UNK N   1      -0.084   3.653   2.042  0.00  0.00     0.219 HD
ENDBRANCH  17  20
ENDBRANCH   4  16
BRANCH   2  22
HETATM   22  N   UNK N   1       1.882   3.288  -0.185  0.00  0.00    -0.421 N 
HETATM   23  H   UNK N   1       2.827   3.533   0.112  0.00  0.00     0.150 HD
HETATM   24  H   UNK N   1       1.167   4.015  -0.185  0.00  0.00     0.150 HD
ENDBRANCH   2  22
BRANCH   3  25
HETATM   25  C   UNK N   1       3.379  -1.276   0.253  0.00  0.00     0.200 C 
HETATM   26  O   UNK N   1       3.123  -2.468   0.333  0.00  0.00    -0.645 OA
BRANCH  25  27
HETATM   27  O   UNK N   1       4.638  -0.850   0.471  0.00  0.00    -0.771 OA
HETATM   28  H   UNK N   1       5.332  -1.461   0.624  0.00  0.00     0.167 HD
ENDBRANCH  25  27
ENDBRANCH   3  25
TORSDOF 11
