REMARK  4 active torsions:
REMARK  status: ('A' for Active; 'I' for Inactive)
REMARK    1  A    between atoms: C_4  and  O_8 
REMARK    2  A    between atoms: C_5  and  O_9 
REMARK    3  A    between atoms: C_6  and  O_10 
REMARK    4  A    between atoms: C_7  and  O_11 
ROOT
HETATM    1  C   UNK N   1       2.331   0.723   1.348  0.00  0.00     0.042 C 
HETATM    2  C   UNK N   1       1.664   1.226   0.071  0.00  0.00     0.152 C 
HETATM    3  C   UNK N   1       0.361   2.001   0.355  0.00  0.00     0.178 C 
HETATM    4  C   UNK N   1      -0.753   1.022   0.755  0.00  0.00     0.183 C 
HETATM    5  C   UNK N   1      -0.895  -0.062  -0.323  0.00  0.00     0.204 C 
HETATM    6  C   UNK N   1       0.465  -0.756  -0.521  0.00  0.00     0.290 C 
HETATM    7  O   UNK N   1       1.485   0.181  -0.885  0.00  0.00    -0.351 OA
ENDROOT
BRANCH   3   8
HETATM    8  O   UNK N   1      -0.012   2.709  -0.792  0.00  0.00    -0.390 OA
HETATM    9  H   UNK N   1       0.284   3.179  -1.588  0.00  0.00     0.210 HD
ENDBRANCH   3   8
BRANCH   4  10
HETATM   10  O   UNK N   1      -1.962   1.702   0.928  0.00  0.00    -0.390 OA
HETATM   11  H   UNK N   1      -1.973   2.664   1.048  0.00  0.00     0.210 HD
ENDBRANCH   4  10
BRANCH   5  12
HETATM   12  O   UNK N   1      -1.315   0.498  -1.534  0.00  0.00    -0.388 OA
HETATM   13  H   UNK N   1      -1.125   0.945  -2.373  0.00  0.00     0.210 HD
ENDBRANCH   5  12
BRANCH   6  14
HETATM   14  O   UNK N   1       0.809  -1.481   0.642  0.00  0.00    -0.363 OA
HETATM   15  C   UNK N   1       1.874  -2.338   0.325  0.00  0.00     0.204 C 
ENDBRANCH   6  14
TORSDOF 4
