MODEL 1
REMARK VINA RESULT:      -4.0      0.000      0.000
REMARK  2 active torsions:
REMARK  status: ('A' for Active; 'I' for Inactive)
REMARK    1  A    between atoms: Cl_3  and  O_6 
REMARK    2  A    between atoms: Cl_3  and  O_8 
ROOT
HETATM    1  O   UNK N   1      20.529  20.425  -0.128  0.00  0.00    -0.271 OA
ATOM      2  HO  UNK N   1      20.417  20.128  -1.023  1.00  0.00     0.238 HD
HETATM    3 Cl   UNK N   1      20.730  20.957   1.476  0.00  0.00     0.131 Cl
HETATM    4  O   UNK N   1      20.910  21.434   2.911  0.00  0.00    -0.271 OA
ATOM      5  HO  UNK N   1      21.022  21.731   3.806  1.00  0.00     0.238 HD
ENDROOT
BRANCH   3   6
HETATM    6  O   UNK N   1      20.579  22.354   0.888  0.00  0.00    -0.271 OA
ATOM      7  HO  UNK N   1      20.380  22.616   1.780  1.00  0.00     0.238 HD
ENDBRANCH   3   6
BRANCH   3   8
HETATM    8  O   UNK N   1      20.849  19.476   1.810  0.00  0.00    -0.271 OA
ATOM      9  HO  UNK N   1      20.420  19.712   2.624  1.00  0.00     0.238 HD
ENDBRANCH   3   8
TORSDOF 2
ENDMDL
MODEL 2
REMARK VINA RESULT:      -3.9      0.367      2.793
REMARK  2 active torsions:
REMARK  status: ('A' for Active; 'I' for Inactive)
REMARK    1  A    between atoms: Cl_3  and  O_6 
REMARK    2  A    between atoms: Cl_3  and  O_8 
ROOT
HETATM    1  O   UNK N   1      21.273  21.659   2.725  0.00  0.00    -0.271 OA
ATOM      2  HO  UNK N   1      21.489  22.116   3.529  1.00  0.00     0.238 HD
HETATM    3 Cl   UNK N   1      20.886  20.841   1.283  0.00  0.00     0.131 Cl
HETATM    4  O   UNK N   1      20.541  20.109  -0.006  0.00  0.00    -0.271 OA
ATOM      5  HO  UNK N   1      20.325  19.652  -0.811  1.00  0.00     0.238 HD
ENDROOT
BRANCH   3   6
HETATM    6  O   UNK N   1      21.240  19.581   2.063  0.00  0.00    -0.271 OA
ATOM      7  HO  UNK N   1      21.310  19.173   1.208  1.00  0.00     0.238 HD
ENDBRANCH   3   6
BRANCH   3   8
HETATM    8  O   UNK N   1      20.594  22.230   0.732  0.00  0.00    -0.271 OA
ATOM      9  HO  UNK N   1      20.861  21.863  -0.103  1.00  0.00     0.238 HD
ENDBRANCH   3   8
TORSDOF 2
ENDMDL
MODEL 3
REMARK VINA RESULT:      -3.8      0.978      2.069
REMARK  2 active torsions:
REMARK  status: ('A' for Active; 'I' for Inactive)
REMARK    1  A    between atoms: Cl_3  and  O_6 
REMARK    2  A    between atoms: Cl_3  and  O_8 
ROOT
HETATM    1  O   UNK N   1      20.439  18.885   0.353  0.00  0.00    -0.271 OA
ATOM      2  HO  UNK N   1      20.226  18.099  -0.135  1.00  0.00     0.238 HD
HETATM    3 Cl   UNK N   1      20.820  20.294   1.229  0.00  0.00     0.131 Cl
HETATM    4  O   UNK N   1      21.161  21.553   2.013  0.00  0.00    -0.271 OA
ATOM      5  HO  UNK N   1      21.374  22.340   2.502  1.00  0.00     0.238 HD
ENDROOT
BRANCH   3   6
HETATM    6  O   UNK N   1      20.832  19.373   2.442  0.00  0.00    -0.271 OA
ATOM      7  HO  UNK N   1      19.943  19.678   2.577  1.00  0.00     0.238 HD
ENDBRANCH   3   6
BRANCH   3   8
HETATM    8  O   UNK N   1      20.747  20.991  -0.123  0.00  0.00    -0.271 OA
ATOM      9  HO  UNK N   1      20.374  20.173  -0.429  1.00  0.00     0.238 HD
ENDBRANCH   3   8
TORSDOF 2
ENDMDL
MODEL 4
REMARK VINA RESULT:      -3.8      1.038      2.174
REMARK  2 active torsions:
REMARK  status: ('A' for Active; 'I' for Inactive)
REMARK    1  A    between atoms: Cl_3  and  O_6 
REMARK    2  A    between atoms: Cl_3  and  O_8 
ROOT
HETATM    1  O   UNK N   1      21.184  21.532   1.959  0.00  0.00    -0.271 OA
ATOM      2  HO  UNK N   1      21.403  22.323   2.438  1.00  0.00     0.238 HD
HETATM    3 Cl   UNK N   1      20.792  20.115   1.102  0.00  0.00     0.131 Cl
HETATM    4  O   UNK N   1      20.442  18.848   0.336  0.00  0.00    -0.271 OA
ATOM      5  HO  UNK N   1      20.223  18.056  -0.142  1.00  0.00     0.238 HD
ENDROOT
BRANCH   3   6
HETATM    6  O   UNK N   1      20.757  21.025  -0.118  0.00  0.00    -0.271 OA
ATOM      7  HO  UNK N   1      21.695  21.099   0.014  1.00  0.00     0.238 HD
ENDBRANCH   3   6
BRANCH   3   8
HETATM    8  O   UNK N   1      20.890  19.430   2.459  0.00  0.00    -0.271 OA
ATOM      9  HO  UNK N   1      21.741  19.848   2.515  1.00  0.00     0.238 HD
ENDBRANCH   3   8
TORSDOF 2
ENDMDL
MODEL 5
REMARK VINA RESULT:      -3.7      9.051     10.214
REMARK  2 active torsions:
REMARK  status: ('A' for Active; 'I' for Inactive)
REMARK    1  A    between atoms: Cl_3  and  O_6 
REMARK    2  A    between atoms: Cl_3  and  O_8 
ROOT
HETATM    1  O   UNK N   1      16.989  19.479  11.899  0.00  0.00    -0.271 OA
ATOM      2  HO  UNK N   1      16.363  19.730  12.569  1.00  0.00     0.238 HD
HETATM    3 Cl   UNK N   1      18.110  19.029  10.700  0.00  0.00     0.131 Cl
HETATM    4  O   UNK N   1      19.112  18.626   9.628  0.00  0.00    -0.271 OA
ATOM      5  HO  UNK N   1      19.738  18.375   8.959  1.00  0.00     0.238 HD
ENDROOT
BRANCH   3   6
HETATM    6  O   UNK N   1      16.938  18.283  10.076  0.00  0.00    -0.271 OA
ATOM      7  HO  UNK N   1      16.408  18.981  10.443  1.00  0.00     0.238 HD
ENDBRANCH   3   6
BRANCH   3   8
HETATM    8  O   UNK N   1      19.104  19.846  11.514  0.00  0.00    -0.271 OA
ATOM      9  HO  UNK N   1      19.693  19.701  10.783  1.00  0.00     0.238 HD
ENDBRANCH   3   8
TORSDOF 2
ENDMDL
MODEL 6
REMARK VINA RESULT:      -3.7     13.687     14.383
REMARK  2 active torsions:
REMARK  status: ('A' for Active; 'I' for Inactive)
REMARK    1  A    between atoms: Cl_3  and  O_6 
REMARK    2  A    between atoms: Cl_3  and  O_8 
ROOT
HETATM    1  O   UNK N   1      23.268  11.534  10.637  0.00  0.00    -0.271 OA
ATOM      2  HO  UNK N   1      23.102  11.285   9.736  1.00  0.00     0.238 HD
HETATM    3 Cl   UNK N   1      23.565  11.982  12.253  0.00  0.00     0.131 Cl
HETATM    4  O   UNK N   1      23.831  12.381  13.697  0.00  0.00    -0.271 OA
ATOM      5  HO  UNK N   1      23.997  12.631  14.598  1.00  0.00     0.238 HD
ENDROOT
BRANCH   3   6
HETATM    6  O   UNK N   1      22.120  11.565  12.492  0.00  0.00    -0.271 OA
ATOM      7  HO  UNK N   1      21.905  12.432  12.168  1.00  0.00     0.238 HD
ENDBRANCH   3   6
BRANCH   3   8
HETATM    8  O   UNK N   1      24.963  12.328  11.757  0.00  0.00    -0.271 OA
ATOM      9  HO  UNK N   1      24.724  13.223  11.965  1.00  0.00     0.238 HD
ENDBRANCH   3   8
TORSDOF 2
ENDMDL
MODEL 7
REMARK VINA RESULT:      -3.6     13.622     14.356
REMARK  2 active torsions:
REMARK  status: ('A' for Active; 'I' for Inactive)
REMARK    1  A    between atoms: Cl_3  and  O_6 
REMARK    2  A    between atoms: Cl_3  and  O_8 
ROOT
HETATM    1  O   UNK N   1      22.043  11.587  12.436  0.00  0.00    -0.271 OA
ATOM      2  HO  UNK N   1      21.148  11.368  12.669  1.00  0.00     0.238 HD
HETATM    3 Cl   UNK N   1      23.645  11.980  12.019  0.00  0.00     0.131 Cl
HETATM    4  O   UNK N   1      25.078  12.331  11.645  0.00  0.00    -0.271 OA
ATOM      5  HO  UNK N   1      25.973  12.550  11.412  1.00  0.00     0.238 HD
ENDROOT
BRANCH   3   6
HETATM    6  O   UNK N   1      23.798  12.337  13.491  0.00  0.00    -0.271 OA
ATOM      7  HO  UNK N   1      22.852  12.254  13.522  1.00  0.00     0.238 HD
ENDBRANCH   3   6
BRANCH   3   8
HETATM    8  O   UNK N   1      23.238  11.560  10.612  0.00  0.00    -0.271 OA
ATOM      9  HO  UNK N   1      24.011  11.008  10.645  1.00  0.00     0.238 HD
ENDBRANCH   3   8
TORSDOF 2
ENDMDL
MODEL 8
REMARK VINA RESULT:      -3.5     15.621     16.238
REMARK  2 active torsions:
REMARK  status: ('A' for Active; 'I' for Inactive)
REMARK    1  A    between atoms: Cl_3  and  O_6 
REMARK    2  A    between atoms: Cl_3  and  O_8 
ROOT
HETATM    1  O   UNK N   1      35.360  17.708   9.990  0.00  0.00    -0.271 OA
ATOM      2  HO  UNK N   1      35.644  17.560  10.885  1.00  0.00     0.238 HD
HETATM    3 Cl   UNK N   1      34.853  17.972   8.387  0.00  0.00     0.131 Cl
HETATM    4  O   UNK N   1      34.399  18.208   6.954  0.00  0.00    -0.271 OA
ATOM      5  HO  UNK N   1      34.115  18.355   6.059  1.00  0.00     0.238 HD
ENDROOT
BRANCH   3   6
HETATM    6  O   UNK N   1      35.405  19.377   8.587  0.00  0.00    -0.271 OA
ATOM      7  HO  UNK N   1      34.584  19.663   8.203  1.00  0.00     0.238 HD
ENDBRANCH   3   6
BRANCH   3   8
HETATM    8  O   UNK N   1      34.381  16.525   8.442  0.00  0.00    -0.271 OA
ATOM      9  HO  UNK N   1      34.475  16.618   9.382  1.00  0.00     0.238 HD
ENDBRANCH   3   8
TORSDOF 2
ENDMDL
MODEL 9
REMARK VINA RESULT:      -3.4     15.240     15.771
REMARK  2 active torsions:
REMARK  status: ('A' for Active; 'I' for Inactive)
REMARK    1  A    between atoms: Cl_3  and  O_6 
REMARK    2  A    between atoms: Cl_3  and  O_8 
ROOT
HETATM    1  O   UNK N   1      33.688  16.479   7.995  0.00  0.00    -0.271 OA
ATOM      2  HO  UNK N   1      33.211  15.674   7.830  1.00  0.00     0.238 HD
HETATM    3 Cl   UNK N   1      34.542  17.921   8.290  0.00  0.00     0.131 Cl
HETATM    4  O   UNK N   1      35.306  19.210   8.555  0.00  0.00    -0.271 OA
ATOM      5  HO  UNK N   1      35.783  20.015   8.720  1.00  0.00     0.238 HD
ENDROOT
BRANCH   3   6
HETATM    6  O   UNK N   1      34.468  18.115   6.782  0.00  0.00    -0.271 OA
ATOM      7  HO  UNK N   1      35.342  17.742   6.776  1.00  0.00     0.238 HD
ENDBRANCH   3   6
BRANCH   3   8
HETATM    8  O   UNK N   1      34.481  17.498   9.752  0.00  0.00    -0.271 OA
ATOM      9  HO  UNK N   1      34.227  16.650   9.409  1.00  0.00     0.238 HD
ENDBRANCH   3   8
TORSDOF 2
ENDMDL
