MODEL 1
REMARK VINA RESULT:      -7.5      0.000      0.000
REMARK  10 active torsions:
REMARK  status: ('A' for Active; 'I' for Inactive)
REMARK    1  A    between atoms: C_1  and  N_2 
REMARK    2  A    between atoms: C_7  and  C_12 
REMARK    3  A    between atoms: C_8  and  O_13 
REMARK    4  A    between atoms: C_12  and  O_16 
REMARK    5  A    between atoms: O_16  and  P_18 
REMARK    6  A    between atoms: P_18  and  O_19 
REMARK    7  A    between atoms: P_18  and  O_20 
REMARK    8  A    between atoms: O_19  and  P_22 
REMARK    9  A    between atoms: P_22  and  O_23 
REMARK   10  A    between atoms: P_22  and  O_24 
ROOT
HETATM    1  C   UNK N   1      20.810  15.486   8.034  0.00  0.00     0.235 C 
HETATM    2  O   UNK N   1      21.861  16.062   7.308  0.00  0.00    -0.356 OA
HETATM    3  C   UNK N   1      20.009  16.630   8.610  0.00  0.00     0.088 C 
HETATM    4  C   UNK N   1      21.240  17.128   6.636  0.00  0.00     0.177 C 
HETATM    5  C   UNK N   1      20.123  17.657   7.519  0.00  0.00     0.153 C 
ENDROOT
BRANCH   4   6
HETATM    6  C   UNK N   1      20.693  16.642   5.301  0.00  0.00     0.215 C 
BRANCH   6   7
HETATM    7  O   UNK N   1      20.338  17.757   4.533  0.00  0.00    -0.294 OA
BRANCH   7   8
HETATM    8  P   UNK N   1      21.816  18.649   4.305  0.00  0.00     0.401 P 
HETATM    9  O   UNK N   1      20.756  19.783   4.373  0.00  0.00    -0.631 OA
BRANCH   8  10
HETATM   10  O   UNK N   1      22.133  19.539   2.844  0.00  0.00    -0.195 OA
BRANCH  10  11
HETATM   11  P   UNK N   1      20.738  20.553   2.613  0.00  0.00     0.399 P 
HETATM   12  O   UNK N   1      20.849  19.794   1.263  0.00  0.00    -0.631 OA
BRANCH  11  13
HETATM   13  O   UNK N   1      22.134  21.558   2.859  0.00  0.00    -0.307 OA
HETATM   14  H   UNK N   1      23.073  21.320   2.839  0.00  0.00     0.222 HD
ENDBRANCH  11  13
BRANCH  11  15
HETATM   15  O   UNK N   1      20.788  21.833   1.443  0.00  0.00    -0.307 OA
HETATM   16  H   UNK N   1      20.235  21.882   0.648  0.00  0.00     0.222 HD
ENDBRANCH  11  15
ENDBRANCH  10  11
ENDBRANCH   8  10
BRANCH   8  17
HETATM   17  O   UNK N   1      21.541  17.702   2.869  0.00  0.00    -0.307 OA
HETATM   18  H   UNK N   1      21.414  17.742   1.909  0.00  0.00     0.222 HD
ENDBRANCH   8  17
ENDBRANCH   7   8
ENDBRANCH   6   7
ENDBRANCH   4   6
BRANCH   5  19
HETATM   19  O   UNK N   1      20.511  18.873   8.079  0.00  0.00    -0.393 OA
HETATM   20  H   UNK N   1      21.256  19.486   7.974  0.00  0.00     0.210 HD
ENDBRANCH   5  19
BRANCH   1  21
HETATM   21  N   UNK N   1      21.296  14.449   8.961  0.00  0.00    -0.282 N 
HETATM   22  C   UNK N   1      20.503  13.747   9.861  0.00  0.00     0.331 A 
HETATM   23  N   UNK N   1      21.059  12.777  10.651  0.00  0.00    -0.275 N 
HETATM   24  O   UNK N   1      19.311  13.977   9.963  0.00  0.00    -0.246 OA
HETATM   25  C   UNK N   1      22.391  12.479  10.573  0.00  0.00     0.256 A 
HETATM   26  H   UNK N   1      20.490  12.285  11.286  0.00  0.00     0.173 HD
HETATM   27  O   UNK N   1      22.858  11.605  11.282  0.00  0.00    -0.267 OA
HETATM   28  C   UNK N   1      23.202  13.178   9.680  0.00  0.00     0.022 A 
HETATM   29  C   UNK N   1      22.626  14.161   8.882  0.00  0.00     0.110 A 
HETATM   30  C   UNK N   1      24.660  12.893   9.557  0.00  0.00     0.056 C 
ENDBRANCH   1  21
TORSDOF 10
ENDMDL
MODEL 2
REMARK VINA RESULT:      -7.4     11.104     14.103
REMARK  10 active torsions:
REMARK  status: ('A' for Active; 'I' for Inactive)
REMARK    1  A    between atoms: C_1  and  N_2 
REMARK    2  A    between atoms: C_7  and  C_12 
REMARK    3  A    between atoms: C_8  and  O_13 
REMARK    4  A    between atoms: C_12  and  O_16 
REMARK    5  A    between atoms: O_16  and  P_18 
REMARK    6  A    between atoms: P_18  and  O_19 
REMARK    7  A    between atoms: P_18  and  O_20 
REMARK    8  A    between atoms: O_19  and  P_22 
REMARK    9  A    between atoms: P_22  and  O_23 
REMARK   10  A    between atoms: P_22  and  O_24 
ROOT
HETATM    1  C   UNK N   1      32.589  16.743   7.472  0.00  0.00     0.235 C 
HETATM    2  O   UNK N   1      32.863  16.631   8.841  0.00  0.00    -0.356 OA
HETATM    3  C   UNK N   1      33.392  17.919   6.969  0.00  0.00     0.088 C 
HETATM    4  C   UNK N   1      34.250  16.843   8.909  0.00  0.00     0.177 C 
HETATM    5  C   UNK N   1      34.634  17.818   7.810  0.00  0.00     0.153 C 
ENDROOT
BRANCH   4   6
HETATM    6  C   UNK N   1      34.980  15.517   8.738  0.00  0.00     0.215 C 
BRANCH   6   7
HETATM    7  O   UNK N   1      34.396  14.574   9.590  0.00  0.00    -0.294 OA
BRANCH   7   8
HETATM    8  P   UNK N   1      35.221  14.755  11.113  0.00  0.00     0.401 P 
HETATM    9  O   UNK N   1      35.540  13.281  10.741  0.00  0.00    -0.631 OA
BRANCH   8  10
HETATM   10  O   UNK N   1      34.714  13.897  12.538  0.00  0.00    -0.195 OA
BRANCH  10  11
HETATM   11  P   UNK N   1      36.183  13.513  13.389  0.00  0.00     0.399 P 
HETATM   12  O   UNK N   1      35.114  13.513  14.514  0.00  0.00    -0.631 OA
BRANCH  11  13
HETATM   13  O   UNK N   1      36.329  15.099  12.694  0.00  0.00    -0.307 OA
HETATM   14  H   UNK N   1      36.345  15.963  13.133  0.00  0.00     0.222 HD
ENDBRANCH  11  13
BRANCH  11  15
HETATM   15  O   UNK N   1      36.826  14.635  14.546  0.00  0.00    -0.307 OA
HETATM   16  H   UNK N   1      36.872  14.483  15.502  0.00  0.00     0.222 HD
ENDBRANCH  11  15
ENDBRANCH  10  11
ENDBRANCH   8  10
BRANCH   8  17
HETATM   17  O   UNK N   1      33.512  14.906  11.414  0.00  0.00    -0.307 OA
HETATM   18  H   UNK N   1      32.760  14.536  11.903  0.00  0.00     0.222 HD
ENDBRANCH   8  17
ENDBRANCH   7   8
ENDBRANCH   6   7
ENDBRANCH   4   6
BRANCH   5  19
HETATM   19  O   UNK N   1      34.906  19.065   8.370  0.00  0.00    -0.393 OA
HETATM   20  H   UNK N   1      34.898  19.987   8.065  0.00  0.00     0.210 HD
ENDBRANCH   5  19
BRANCH   1  21
HETATM   21  N   UNK N   1      31.140  16.734   7.207  0.00  0.00    -0.282 N 
HETATM   22  C   UNK N   1      30.529  16.104   6.130  0.00  0.00     0.331 A 
HETATM   23  N   UNK N   1      29.166  16.131   6.004  0.00  0.00    -0.275 N 
HETATM   24  O   UNK N   1      31.186  15.518   5.288  0.00  0.00    -0.246 OA
HETATM   25  C   UNK N   1      28.383  16.771   6.924  0.00  0.00     0.256 A 
HETATM   26  H   UNK N   1      28.741  15.681   5.238  0.00  0.00     0.173 HD
HETATM   27  O   UNK N   1      27.172  16.774   6.792  0.00  0.00    -0.267 OA
HETATM   28  C   UNK N   1      28.981  17.415   8.007  0.00  0.00     0.022 A 
HETATM   29  C   UNK N   1      30.366  17.380   8.125  0.00  0.00     0.110 A 
HETATM   30  C   UNK N   1      28.173  18.129   9.037  0.00  0.00     0.056 C 
ENDBRANCH   1  21
TORSDOF 10
ENDMDL
MODEL 3
REMARK VINA RESULT:      -7.0      8.580     10.878
REMARK  10 active torsions:
REMARK  status: ('A' for Active; 'I' for Inactive)
REMARK    1  A    between atoms: C_1  and  N_2 
REMARK    2  A    between atoms: C_7  and  C_12 
REMARK    3  A    between atoms: C_8  and  O_13 
REMARK    4  A    between atoms: C_12  and  O_16 
REMARK    5  A    between atoms: O_16  and  P_18 
REMARK    6  A    between atoms: P_18  and  O_19 
REMARK    7  A    between atoms: P_18  and  O_20 
REMARK    8  A    between atoms: O_19  and  P_22 
REMARK    9  A    between atoms: P_22  and  O_23 
REMARK   10  A    between atoms: P_22  and  O_24 
ROOT
HETATM    1  C   UNK N   1      27.637  18.655   5.960  0.00  0.00     0.235 C 
HETATM    2  O   UNK N   1      27.272  17.327   6.220  0.00  0.00    -0.356 OA
HETATM    3  C   UNK N   1      27.740  19.342   7.301  0.00  0.00     0.088 C 
HETATM    4  C   UNK N   1      28.071  16.986   7.324  0.00  0.00     0.177 C 
HETATM    5  C   UNK N   1      28.270  18.234   8.167  0.00  0.00     0.153 C 
ENDROOT
BRANCH   4   6
HETATM    6  C   UNK N   1      29.407  16.439   6.841  0.00  0.00     0.215 C 
BRANCH   6   7
HETATM    7  O   UNK N   1      30.362  16.648   7.841  0.00  0.00    -0.294 OA
BRANCH   7   8
HETATM    8  P   UNK N   1      31.903  16.469   7.052  0.00  0.00     0.401 P 
HETATM    9  O   UNK N   1      31.868  15.229   7.987  0.00  0.00    -0.631 OA
BRANCH   8  10
HETATM   10  O   UNK N   1      33.402  16.619   7.923  0.00  0.00    -0.195 OA
BRANCH  10  11
HETATM   11  P   UNK N   1      33.659  18.332   8.099  0.00  0.00     0.399 P 
HETATM   12  O   UNK N   1      34.507  17.975   6.848  0.00  0.00    -0.631 OA
BRANCH  11  13
HETATM   13  O   UNK N   1      34.281  17.518   9.503  0.00  0.00    -0.307 OA
HETATM   14  H   UNK N   1      34.936  16.805   9.560  0.00  0.00     0.222 HD
ENDBRANCH  11  13
BRANCH  11  15
HETATM   15  O   UNK N   1      35.237  18.927   8.508  0.00  0.00    -0.307 OA
HETATM   16  H   UNK N   1      35.692  18.765   9.349  0.00  0.00     0.222 HD
ENDBRANCH  11  15
ENDBRANCH  10  11
ENDBRANCH   8  10
BRANCH   8  17
HETATM   17  O   UNK N   1      31.971  17.911   8.027  0.00  0.00    -0.307 OA
HETATM   18  H   UNK N   1      31.487  18.708   8.292  0.00  0.00     0.222 HD
ENDBRANCH   8  17
ENDBRANCH   7   8
ENDBRANCH   6   7
ENDBRANCH   4   6
BRANCH   5  19
HETATM   19  O   UNK N   1      27.489  18.146   9.319  0.00  0.00    -0.393 OA
HETATM   20  H   UNK N   1      26.935  18.751   9.837  0.00  0.00     0.210 HD
ENDBRANCH   5  19
BRANCH   1  21
HETATM   21  N   UNK N   1      26.768  19.265   4.937  0.00  0.00    -0.282 N 
HETATM   22  C   UNK N   1      27.190  20.163   3.965  0.00  0.00     0.331 A 
HETATM   23  N   UNK N   1      26.298  20.639   3.041  0.00  0.00    -0.275 N 
HETATM   24  O   UNK N   1      28.347  20.539   3.914  0.00  0.00    -0.246 OA
HETATM   25  C   UNK N   1      24.989  20.246   3.053  0.00  0.00     0.256 A 
HETATM   26  H   UNK N   1      26.606  21.276   2.355  0.00  0.00     0.173 HD
HETATM   27  O   UNK N   1      24.219  20.679   2.214  0.00  0.00    -0.267 OA
HETATM   28  C   UNK N   1      24.549  19.350   4.027  0.00  0.00     0.022 A 
HETATM   29  C   UNK N   1      25.463  18.873   4.959  0.00  0.00     0.110 A 
HETATM   30  C   UNK N   1      23.132  18.891   4.085  0.00  0.00     0.056 C 
ENDBRANCH   1  21
TORSDOF 10
ENDMDL
MODEL 4
REMARK VINA RESULT:      -7.0     10.046     13.029
REMARK  10 active torsions:
REMARK  status: ('A' for Active; 'I' for Inactive)
REMARK    1  A    between atoms: C_1  and  N_2 
REMARK    2  A    between atoms: C_7  and  C_12 
REMARK    3  A    between atoms: C_8  and  O_13 
REMARK    4  A    between atoms: C_12  and  O_16 
REMARK    5  A    between atoms: O_16  and  P_18 
REMARK    6  A    between atoms: P_18  and  O_19 
REMARK    7  A    between atoms: P_18  and  O_20 
REMARK    8  A    between atoms: O_19  and  P_22 
REMARK    9  A    between atoms: P_22  and  O_23 
REMARK   10  A    between atoms: P_22  and  O_24 
ROOT
HETATM    1  C   UNK N   1      30.010  16.965   7.444  0.00  0.00     0.235 C 
HETATM    2  O   UNK N   1      31.260  17.496   7.788  0.00  0.00    -0.356 OA
HETATM    3  C   UNK N   1      30.244  16.037   6.276  0.00  0.00     0.088 C 
HETATM    4  C   UNK N   1      32.115  16.384   7.705  0.00  0.00     0.177 C 
HETATM    5  C   UNK N   1      31.596  15.470   6.608  0.00  0.00     0.153 C 
ENDROOT
BRANCH   4   6
HETATM    6  C   UNK N   1      32.145  15.661   9.045  0.00  0.00     0.215 C 
BRANCH   6   7
HETATM    7  O   UNK N   1      33.101  14.641   8.978  0.00  0.00    -0.294 OA
BRANCH   7   8
HETATM    8  P   UNK N   1      34.267  15.020  10.215  0.00  0.00     0.401 P 
HETATM    9  O   UNK N   1      34.615  13.544   9.878  0.00  0.00    -0.631 OA
BRANCH   8  10
HETATM   10  O   UNK N   1      34.221  14.264  11.780  0.00  0.00    -0.195 OA
BRANCH  10  11
HETATM   11  P   UNK N   1      35.887  14.108  12.263  0.00  0.00     0.399 P 
HETATM   12  O   UNK N   1      35.110  13.761  13.561  0.00  0.00    -0.631 OA
BRANCH  11  13
HETATM   13  O   UNK N   1      35.582  15.755  11.798  0.00  0.00    -0.307 OA
HETATM   14  H   UNK N   1      35.651  16.565  12.326  0.00  0.00     0.222 HD
ENDBRANCH  11  13
BRANCH  11  15
HETATM   15  O   UNK N   1      36.551  15.210  13.427  0.00  0.00    -0.307 OA
HETATM   16  H   UNK N   1      36.040  15.865  13.928  0.00  0.00     0.222 HD
ENDBRANCH  11  15
ENDBRANCH  10  11
ENDBRANCH   8  10
BRANCH   8  17
HETATM   17  O   UNK N   1      32.685  15.077  10.942  0.00  0.00    -0.307 OA
HETATM   18  H   UNK N   1      31.914  14.548  11.199  0.00  0.00     0.222 HD
ENDBRANCH   8  17
ENDBRANCH   7   8
ENDBRANCH   6   7
ENDBRANCH   4   6
BRANCH   5  19
HETATM   19  O   UNK N   1      32.420  15.575   5.488  0.00  0.00    -0.393 OA
HETATM   20  H   UNK N   1      32.867  14.958   4.888  0.00  0.00     0.210 HD
ENDBRANCH   5  19
BRANCH   1  21
HETATM   21  N   UNK N   1      28.996  18.023   7.292  0.00  0.00    -0.282 N 
HETATM   22  C   UNK N   1      28.313  18.631   8.339  0.00  0.00     0.331 A 
HETATM   23  N   UNK N   1      27.415  19.632   8.080  0.00  0.00    -0.275 N 
HETATM   24  O   UNK N   1      28.500  18.292   9.494  0.00  0.00    -0.246 OA
HETATM   25  C   UNK N   1      27.172  20.051   6.802  0.00  0.00     0.256 A 
HETATM   26  H   UNK N   1      26.936  20.057   8.828  0.00  0.00     0.173 HD
HETATM   27  O   UNK N   1      26.373  20.949   6.601  0.00  0.00    -0.267 OA
HETATM   28  C   UNK N   1      27.843  19.446   5.740  0.00  0.00     0.022 A 
HETATM   29  C   UNK N   1      28.753  18.432   6.015  0.00  0.00     0.110 A 
HETATM   30  C   UNK N   1      27.613  19.865   4.328  0.00  0.00     0.056 C 
ENDBRANCH   1  21
TORSDOF 10
ENDMDL
MODEL 5
REMARK VINA RESULT:      -7.0      1.904      3.051
REMARK  10 active torsions:
REMARK  status: ('A' for Active; 'I' for Inactive)
REMARK    1  A    between atoms: C_1  and  N_2 
REMARK    2  A    between atoms: C_7  and  C_12 
REMARK    3  A    between atoms: C_8  and  O_13 
REMARK    4  A    between atoms: C_12  and  O_16 
REMARK    5  A    between atoms: O_16  and  P_18 
REMARK    6  A    between atoms: P_18  and  O_19 
REMARK    7  A    between atoms: P_18  and  O_20 
REMARK    8  A    between atoms: O_19  and  P_22 
REMARK    9  A    between atoms: P_22  and  O_23 
REMARK   10  A    between atoms: P_22  and  O_24 
ROOT
HETATM    1  C   UNK N   1      22.311  13.751   7.947  0.00  0.00     0.235 C 
HETATM    2  O   UNK N   1      21.077  14.414   7.886  0.00  0.00    -0.356 OA
HETATM    3  C   UNK N   1      22.362  12.830   6.752  0.00  0.00     0.088 C 
HETATM    4  C   UNK N   1      20.952  14.732   6.523  0.00  0.00     0.177 C 
HETATM    5  C   UNK N   1      21.628  13.636   5.717  0.00  0.00     0.153 C 
ENDROOT
BRANCH   4   6
HETATM    6  C   UNK N   1      21.599  16.083   6.251  0.00  0.00     0.215 C 
BRANCH   6   7
HETATM    7  O   UNK N   1      20.849  16.746   5.273  0.00  0.00    -0.294 OA
BRANCH   7   8
HETATM    8  P   UNK N   1      21.770  18.168   4.871  0.00  0.00     0.401 P 
HETATM    9  O   UNK N   1      21.309  18.476   6.322  0.00  0.00    -0.631 OA
BRANCH   8  10
HETATM   10  O   UNK N   1      21.020  19.727   4.696  0.00  0.00    -0.195 OA
BRANCH  10  11
HETATM   11  P   UNK N   1      21.029  20.052   2.986  0.00  0.00     0.399 P 
HETATM   12  O   UNK N   1      22.521  20.210   3.382  0.00  0.00    -0.631 OA
BRANCH  11  13
HETATM   13  O   UNK N   1      20.060  21.253   3.786  0.00  0.00    -0.307 OA
HETATM   14  H   UNK N   1      19.472  21.922   3.403  0.00  0.00     0.222 HD
ENDBRANCH  11  13
BRANCH  11  15
HETATM   15  O   UNK N   1      21.423  21.641   2.414  0.00  0.00    -0.307 OA
HETATM   16  H   UNK N   1      21.678  22.388   2.978  0.00  0.00     0.222 HD
ENDBRANCH  11  15
ENDBRANCH  10  11
ENDBRANCH   8  10
BRANCH   8  17
HETATM   17  O   UNK N   1      20.375  18.128   3.829  0.00  0.00    -0.307 OA
HETATM   18  H   UNK N   1      19.442  17.870   3.768  0.00  0.00     0.222 HD
ENDBRANCH   8  17
ENDBRANCH   7   8
ENDBRANCH   6   7
ENDBRANCH   4   6
BRANCH   5  19
HETATM   19  O   UNK N   1      20.656  12.832   5.121  0.00  0.00    -0.393 OA
HETATM   20  H   UNK N   1      19.692  12.739   5.182  0.00  0.00     0.210 HD
ENDBRANCH   5  19
BRANCH   1  21
HETATM   21  N   UNK N   1      22.546  13.167   9.279  0.00  0.00    -0.282 N 
HETATM   22  C   UNK N   1      23.793  12.996   9.866  0.00  0.00     0.331 A 
HETATM   23  N   UNK N   1      23.890  12.474  11.128  0.00  0.00    -0.275 N 
HETATM   24  O   UNK N   1      24.815  13.306   9.279  0.00  0.00    -0.246 OA
HETATM   25  C   UNK N   1      22.774  12.113  11.832  0.00  0.00     0.256 A 
HETATM   26  H   UNK N   1      24.778  12.356  11.537  0.00  0.00     0.173 HD
HETATM   27  O   UNK N   1      22.888  11.658  12.956  0.00  0.00    -0.267 OA
HETATM   28  C   UNK N   1      21.515  12.272  11.254  0.00  0.00     0.022 A 
HETATM   29  C   UNK N   1      21.430  12.804   9.972  0.00  0.00     0.110 A 
HETATM   30  C   UNK N   1      20.268  11.893  11.977  0.00  0.00     0.056 C 
ENDBRANCH   1  21
TORSDOF 10
ENDMDL
MODEL 6
REMARK VINA RESULT:      -6.9     12.728     14.334
REMARK  10 active torsions:
REMARK  status: ('A' for Active; 'I' for Inactive)
REMARK    1  A    between atoms: C_1  and  N_2 
REMARK    2  A    between atoms: C_7  and  C_12 
REMARK    3  A    between atoms: C_8  and  O_13 
REMARK    4  A    between atoms: C_12  and  O_16 
REMARK    5  A    between atoms: O_16  and  P_18 
REMARK    6  A    between atoms: P_18  and  O_19 
REMARK    7  A    between atoms: P_18  and  O_20 
REMARK    8  A    between atoms: O_19  and  P_22 
REMARK    9  A    between atoms: P_22  and  O_23 
REMARK   10  A    between atoms: P_22  and  O_24 
ROOT
HETATM    1  C   UNK N   1      34.733  12.863  10.341  0.00  0.00     0.235 C 
HETATM    2  O   UNK N   1      33.645  13.650   9.940  0.00  0.00    -0.356 OA
HETATM    3  C   UNK N   1      34.247  11.434  10.352  0.00  0.00     0.088 C 
HETATM    4  C   UNK N   1      33.079  12.904   8.892  0.00  0.00     0.177 C 
HETATM    5  C   UNK N   1      33.291  11.430   9.193  0.00  0.00     0.153 C 
ENDROOT
BRANCH   4   6
HETATM    6  C   UNK N   1      33.738  13.289   7.575  0.00  0.00     0.215 C 
BRANCH   6   7
HETATM    7  O   UNK N   1      32.926  14.227   6.928  0.00  0.00    -0.294 OA
BRANCH   7   8
HETATM    8  P   UNK N   1      33.955  15.600   6.628  0.00  0.00     0.401 P 
HETATM    9  O   UNK N   1      34.981  14.498   7.010  0.00  0.00    -0.631 OA
BRANCH   8  10
HETATM   10  O   UNK N   1      34.859  16.363   7.903  0.00  0.00    -0.195 OA
BRANCH  10  11
HETATM   11  P   UNK N   1      34.030  17.861   8.219  0.00  0.00     0.399 P 
HETATM   12  O   UNK N   1      34.677  18.103   6.829  0.00  0.00    -0.631 OA
BRANCH  11  13
HETATM   13  O   UNK N   1      35.258  17.627   9.426  0.00  0.00    -0.307 OA
HETATM   14  H   UNK N   1      36.027  17.037   9.414  0.00  0.00     0.222 HD
ENDBRANCH  11  13
BRANCH  11  15
HETATM   15  O   UNK N   1      34.944  19.317   8.457  0.00  0.00    -0.307 OA
HETATM   16  H   UNK N   1      35.909  19.384   8.393  0.00  0.00     0.222 HD
ENDBRANCH  11  15
ENDBRANCH  10  11
ENDBRANCH   8  10
BRANCH   8  17
HETATM   17  O   UNK N   1      32.974  15.966   8.020  0.00  0.00    -0.307 OA
HETATM   18  H   UNK N   1      32.902  15.874   8.983  0.00  0.00     0.222 HD
ENDBRANCH   8  17
ENDBRANCH   7   8
ENDBRANCH   6   7
ENDBRANCH   4   6
BRANCH   5  19
HETATM   19  O   UNK N   1      32.085  10.862   9.601  0.00  0.00    -0.393 OA
HETATM   20  H   UNK N   1      31.156  11.142   9.636  0.00  0.00     0.210 HD
ENDBRANCH   5  19
BRANCH   1  21
HETATM   21  N   UNK N   1      35.359  13.390  11.567  0.00  0.00    -0.282 N 
HETATM   22  C   UNK N   1      36.211  14.486  11.620  0.00  0.00     0.331 A 
HETATM   23  N   UNK N   1      36.706  14.909  12.825  0.00  0.00    -0.275 N 
HETATM   24  O   UNK N   1      36.528  15.088  10.610  0.00  0.00    -0.246 OA
HETATM   25  C   UNK N   1      36.378  14.271  13.989  0.00  0.00     0.256 A 
HETATM   26  H   UNK N   1      37.310  15.687  12.854  0.00  0.00     0.173 HD
HETATM   27  O   UNK N   1      36.828  14.673  15.047  0.00  0.00    -0.267 OA
HETATM   28  C   UNK N   1      35.530  13.164  13.951  0.00  0.00     0.022 A 
HETATM   29  C   UNK N   1      35.033  12.745  12.722  0.00  0.00     0.110 A 
HETATM   30  C   UNK N   1      35.143  12.432  15.190  0.00  0.00     0.056 C 
ENDBRANCH   1  21
TORSDOF 10
ENDMDL
MODEL 7
REMARK VINA RESULT:      -6.9     14.730     16.821
REMARK  10 active torsions:
REMARK  status: ('A' for Active; 'I' for Inactive)
REMARK    1  A    between atoms: C_1  and  N_2 
REMARK    2  A    between atoms: C_7  and  C_12 
REMARK    3  A    between atoms: C_8  and  O_13 
REMARK    4  A    between atoms: C_12  and  O_16 
REMARK    5  A    between atoms: O_16  and  P_18 
REMARK    6  A    between atoms: P_18  and  O_19 
REMARK    7  A    between atoms: P_18  and  O_20 
REMARK    8  A    between atoms: O_19  and  P_22 
REMARK    9  A    between atoms: P_22  and  O_23 
REMARK   10  A    between atoms: P_22  and  O_24 
ROOT
HETATM    1  C   UNK N   1      27.331  23.846  -5.707  0.00  0.00     0.235 C 
HETATM    2  O   UNK N   1      28.376  24.068  -6.614  0.00  0.00    -0.356 OA
HETATM    3  C   UNK N   1      26.201  23.229  -6.496  0.00  0.00     0.088 C 
HETATM    4  C   UNK N   1      28.381  22.896  -7.390  0.00  0.00     0.177 C 
HETATM    5  C   UNK N   1      26.952  22.391  -7.494  0.00  0.00     0.153 C 
ENDROOT
BRANCH   4   6
HETATM    6  C   UNK N   1      29.279  21.854  -6.737  0.00  0.00     0.215 C 
BRANCH   6   7
HETATM    7  O   UNK N   1      30.572  22.378  -6.641  0.00  0.00    -0.294 OA
BRANCH   7   8
HETATM    8  P   UNK N   1      31.294  21.577  -5.274  0.00  0.00     0.401 P 
HETATM    9  O   UNK N   1      30.111  20.632  -5.620  0.00  0.00    -0.631 OA
BRANCH   8  10
HETATM   10  O   UNK N   1      30.469  21.445  -3.749  0.00  0.00    -0.195 OA
BRANCH  10  11
HETATM   11  P   UNK N   1      30.732  22.970  -2.952  0.00  0.00     0.399 P 
HETATM   12  O   UNK N   1      31.784  22.041  -2.290  0.00  0.00    -0.631 OA
BRANCH  11  13
HETATM   13  O   UNK N   1      29.124  22.413  -2.596  0.00  0.00    -0.307 OA
HETATM   14  H   UNK N   1      28.558  21.808  -3.099  0.00  0.00     0.222 HD
ENDBRANCH  11  13
BRANCH  11  15
HETATM   15  O   UNK N   1      30.387  23.126  -1.259  0.00  0.00    -0.307 OA
HETATM   16  H   UNK N   1      29.899  23.862  -0.856  0.00  0.00     0.222 HD
ENDBRANCH  11  15
ENDBRANCH  10  11
ENDBRANCH   8  10
BRANCH   8  17
HETATM   17  O   UNK N   1      30.658  23.101  -4.721  0.00  0.00    -0.307 OA
HETATM   18  H   UNK N   1      29.900  23.704  -4.767  0.00  0.00     0.222 HD
ENDBRANCH   8  17
ENDBRANCH   7   8
ENDBRANCH   6   7
ENDBRANCH   4   6
BRANCH   5  19
HETATM   19  O   UNK N   1      26.459  22.655  -8.771  0.00  0.00    -0.393 OA
HETATM   20  H   UNK N   1      26.429  22.186  -9.620  0.00  0.00     0.210 HD
ENDBRANCH   5  19
BRANCH   1  21
HETATM   21  N   UNK N   1      27.039  25.052  -4.912  0.00  0.00    -0.282 N 
HETATM   22  C   UNK N   1      26.700  25.057  -3.565  0.00  0.00     0.331 A 
HETATM   23  N   UNK N   1      26.485  26.244  -2.918  0.00  0.00    -0.275 N 
HETATM   24  O   UNK N   1      26.592  24.017  -2.938  0.00  0.00    -0.246 OA
HETATM   25  C   UNK N   1      26.597  27.438  -3.574  0.00  0.00     0.256 A 
HETATM   26  H   UNK N   1      26.245  26.238  -1.962  0.00  0.00     0.173 HD
HETATM   27  O   UNK N   1      26.407  28.480  -2.972  0.00  0.00    -0.267 OA
HETATM   28  C   UNK N   1      26.930  27.450  -4.928  0.00  0.00     0.022 A 
HETATM   29  C   UNK N   1      27.147  26.238  -5.574  0.00  0.00     0.110 A 
HETATM   30  C   UNK N   1      27.063  28.724  -5.690  0.00  0.00     0.056 C 
ENDBRANCH   1  21
TORSDOF 10
ENDMDL
MODEL 8
REMARK VINA RESULT:      -6.6     11.199     14.023
REMARK  10 active torsions:
REMARK  status: ('A' for Active; 'I' for Inactive)
REMARK    1  A    between atoms: C_1  and  N_2 
REMARK    2  A    between atoms: C_7  and  C_12 
REMARK    3  A    between atoms: C_8  and  O_13 
REMARK    4  A    between atoms: C_12  and  O_16 
REMARK    5  A    between atoms: O_16  and  P_18 
REMARK    6  A    between atoms: P_18  and  O_19 
REMARK    7  A    between atoms: P_18  and  O_20 
REMARK    8  A    between atoms: O_19  and  P_22 
REMARK    9  A    between atoms: P_22  and  O_23 
REMARK   10  A    between atoms: P_22  and  O_24 
ROOT
HETATM    1  C   UNK N   1      32.099  16.938   7.497  0.00  0.00     0.235 C 
HETATM    2  O   UNK N   1      33.011  17.998   7.587  0.00  0.00    -0.356 OA
HETATM    3  C   UNK N   1      32.702  15.933   6.545  0.00  0.00     0.088 C 
HETATM    4  C   UNK N   1      34.253  17.347   7.666  0.00  0.00     0.177 C 
HETATM    5  C   UNK N   1      34.167  16.064   6.856  0.00  0.00     0.153 C 
ENDROOT
BRANCH   4   6
HETATM    6  C   UNK N   1      34.582  17.047   9.122  0.00  0.00     0.215 C 
BRANCH   6   7
HETATM    7  O   UNK N   1      35.388  15.905   9.170  0.00  0.00    -0.294 OA
BRANCH   7   8
HETATM    8  P   UNK N   1      35.288  15.339  10.814  0.00  0.00     0.401 P 
HETATM    9  O   UNK N   1      36.475  16.339  10.883  0.00  0.00    -0.631 OA
BRANCH   8  10
HETATM   10  O   UNK N   1      36.545  14.371  11.528  0.00  0.00    -0.195 OA
BRANCH  10  11
HETATM   11  P   UNK N   1      35.907  13.851  13.062  0.00  0.00     0.399 P 
HETATM   12  O   UNK N   1      36.283  12.515  12.365  0.00  0.00    -0.631 OA
BRANCH  11  13
HETATM   13  O   UNK N   1      34.654  14.664  12.174  0.00  0.00    -0.307 OA
HETATM   14  H   UNK N   1      33.704  14.716  12.359  0.00  0.00     0.222 HD
ENDBRANCH  11  13
BRANCH  11  15
HETATM   15  O   UNK N   1      34.428  12.946  13.116  0.00  0.00    -0.307 OA
HETATM   16  H   UNK N   1      34.342  12.006  12.895  0.00  0.00     0.222 HD
ENDBRANCH  11  15
ENDBRANCH  10  11
ENDBRANCH   8  10
BRANCH   8  17
HETATM   17  O   UNK N   1      35.745  13.987   9.814  0.00  0.00    -0.307 OA
HETATM   18  H   UNK N   1      36.492  13.525   9.403  0.00  0.00     0.222 HD
ENDBRANCH   8  17
ENDBRANCH   7   8
ENDBRANCH   6   7
ENDBRANCH   4   6
BRANCH   5  19
HETATM   19  O   UNK N   1      34.872  16.222   5.663  0.00  0.00    -0.393 OA
HETATM   20  H   UNK N   1      34.712  16.650   4.807  0.00  0.00     0.210 HD
ENDBRANCH   5  19
BRANCH   1  21
HETATM   21  N   UNK N   1      30.734  17.420   7.218  0.00  0.00    -0.282 N 
HETATM   22  C   UNK N   1      29.908  18.052   8.138  0.00  0.00     0.331 A 
HETATM   23  N   UNK N   1      28.668  18.491   7.756  0.00  0.00    -0.275 N 
HETATM   24  O   UNK N   1      30.266  18.230   9.289  0.00  0.00    -0.246 OA
HETATM   25  C   UNK N   1      28.220  18.319   6.476  0.00  0.00     0.256 A 
HETATM   26  H   UNK N   1      28.089  18.938   8.415  0.00  0.00     0.173 HD
HETATM   27  O   UNK N   1      27.116  18.726   6.161  0.00  0.00    -0.267 OA
HETATM   28  C   UNK N   1      29.035  17.680   5.542  0.00  0.00     0.022 A 
HETATM   29  C   UNK N   1      30.292  17.240   5.941  0.00  0.00     0.110 A 
HETATM   30  C   UNK N   1      28.594  17.467   4.134  0.00  0.00     0.056 C 
ENDBRANCH   1  21
TORSDOF 10
ENDMDL
MODEL 9
REMARK VINA RESULT:      -6.5      1.921      2.768
REMARK  10 active torsions:
REMARK  status: ('A' for Active; 'I' for Inactive)
REMARK    1  A    between atoms: C_1  and  N_2 
REMARK    2  A    between atoms: C_7  and  C_12 
REMARK    3  A    between atoms: C_8  and  O_13 
REMARK    4  A    between atoms: C_12  and  O_16 
REMARK    5  A    between atoms: O_16  and  P_18 
REMARK    6  A    between atoms: P_18  and  O_19 
REMARK    7  A    between atoms: P_18  and  O_20 
REMARK    8  A    between atoms: O_19  and  P_22 
REMARK    9  A    between atoms: P_22  and  O_23 
REMARK   10  A    between atoms: P_22  and  O_24 
ROOT
HETATM    1  C   UNK N   1      22.437  14.876   7.116  0.00  0.00     0.235 C 
HETATM    2  O   UNK N   1      21.787  14.478   5.940  0.00  0.00    -0.356 OA
HETATM    3  C   UNK N   1      23.914  14.672   6.880  0.00  0.00     0.088 C 
HETATM    4  C   UNK N   1      22.599  15.015   4.927  0.00  0.00     0.177 C 
HETATM    5  C   UNK N   1      24.036  15.008   5.420  0.00  0.00     0.153 C 
ENDROOT
BRANCH   4   6
HETATM    6  C   UNK N   1      22.144  16.430   4.602  0.00  0.00     0.215 C 
BRANCH   6   7
HETATM    7  O   UNK N   1      21.465  16.409   3.379  0.00  0.00    -0.294 OA
BRANCH   7   8
HETATM    8  P   UNK N   1      20.213  17.611   3.525  0.00  0.00     0.401 P 
HETATM    9  O   UNK N   1      19.914  16.994   2.131  0.00  0.00    -0.631 OA
BRANCH   8  10
HETATM   10  O   UNK N   1      20.168  19.016   2.501  0.00  0.00    -0.195 OA
BRANCH  10  11
HETATM   11  P   UNK N   1      21.480  20.022   3.046  0.00  0.00     0.399 P 
HETATM   12  O   UNK N   1      20.251  20.615   3.786  0.00  0.00    -0.631 OA
BRANCH  11  13
HETATM   13  O   UNK N   1      21.299  20.208   1.327  0.00  0.00    -0.307 OA
HETATM   14  H   UNK N   1      20.906  19.601   0.682  0.00  0.00     0.222 HD
ENDBRANCH  11  13
BRANCH  11  15
HETATM   15  O   UNK N   1      21.521  21.699   2.600  0.00  0.00    -0.307 OA
HETATM   16  H   UNK N   1      21.686  22.032   1.704  0.00  0.00     0.222 HD
ENDBRANCH  11  15
ENDBRANCH  10  11
ENDBRANCH   8  10
BRANCH   8  17
HETATM   17  O   UNK N   1      21.742  18.443   3.460  0.00  0.00    -0.307 OA
HETATM   18  H   UNK N   1      22.653  18.396   3.131  0.00  0.00     0.222 HD
ENDBRANCH   8  17
ENDBRANCH   7   8
ENDBRANCH   6   7
ENDBRANCH   4   6
BRANCH   5  19
HETATM   19  O   UNK N   1      24.742  13.992   4.778  0.00  0.00    -0.393 OA
HETATM   20  H   UNK N   1      24.744  13.021   4.796  0.00  0.00     0.210 HD
ENDBRANCH   5  19
BRANCH   1  21
HETATM   21  N   UNK N   1      21.835  14.250   8.306  0.00  0.00    -0.282 N 
HETATM   22  C   UNK N   1      20.567  14.531   8.800  0.00  0.00     0.331 A 
HETATM   23  N   UNK N   1      20.095  13.859   9.897  0.00  0.00    -0.275 N 
HETATM   24  O   UNK N   1      19.856  15.368   8.274  0.00  0.00    -0.246 OA
HETATM   25  C   UNK N   1      20.852  12.907  10.522  0.00  0.00     0.256 A 
HETATM   26  H   UNK N   1      19.196  14.064  10.240  0.00  0.00     0.173 HD
HETATM   27  O   UNK N   1      20.405  12.319  11.491  0.00  0.00    -0.267 OA
HETATM   28  C   UNK N   1      22.129  12.619  10.042  0.00  0.00     0.022 A 
HETATM   29  C   UNK N   1      22.596  13.307   8.928  0.00  0.00     0.110 A 
HETATM   30  C   UNK N   1      22.995  11.591  10.689  0.00  0.00     0.056 C 
ENDBRANCH   1  21
TORSDOF 10
ENDMDL
