REMARK  6 active torsions:
REMARK  status: ('A' for Active; 'I' for Inactive)
REMARK    1  A    between atoms: C_5  and  N_4 
REMARK    2  A    between atoms: C_8  and  C_9 
REMARK    3  A    between atoms: C_9  and  O_10 
REMARK    4  A    between atoms: O_10  and  P_11 
REMARK    5  A    between atoms: P_11  and  O_12 
REMARK    6  A    between atoms: P_11  and  O_13 
ROOT
HETATM    1  C   UNK N   1      -1.085   1.881  -0.194  0.00  0.00     0.232 C 
HETATM    2  C   UNK N   1       0.278   1.255  -0.421  0.00  0.00     0.057 C 
HETATM    3  C   UNK N   1       0.191   0.008   0.397  0.00  0.00     0.038 C 
HETATM    4  C   UNK N   1      -0.841   0.355   1.454  0.00  0.00     0.148 C 
HETATM    5  O   UNK N   1      -1.499   1.546   1.106  0.00  0.00    -0.359 OA
ENDROOT
BRANCH   1   6
HETATM    6  N   UNK N   1      -1.095   3.347  -0.325  0.00  0.00    -0.282 N 
HETATM    7  C   UNK N   1       0.062   4.039  -0.529  0.00  0.00     0.110 A 
HETATM    8  C   UNK N   1       0.062   5.430  -0.575  0.00  0.00     0.022 A 
HETATM    9  C   UNK N   1       1.345   6.159  -0.784  0.00  0.00     0.056 C 
HETATM   10  C   UNK N   1      -1.146   6.109  -0.402  0.00  0.00     0.256 A 
HETATM   11  N   UNK N   1      -2.300   5.401  -0.219  0.00  0.00    -0.275 N 
HETATM   12  O   UNK N   1      -1.180   7.327  -0.410  0.00  0.00    -0.267 OA
HETATM   13  C   UNK N   1      -2.289   4.031  -0.182  0.00  0.00     0.331 A 
HETATM   14  H   UNK N   1      -3.153   5.881  -0.113  0.00  0.00     0.173 HD
HETATM   15  O   UNK N   1      -3.333   3.429  -0.006  0.00  0.00    -0.246 OA
ENDBRANCH   1   6
BRANCH   4  16
HETATM   16  C   UNK N   1      -1.863  -0.758   1.605  0.00  0.00     0.212 C 
BRANCH  16  17
HETATM   17  O   UNK N   1      -2.517  -0.970   0.384  0.00  0.00    -0.295 OA
BRANCH  17  18
HETATM   18  P   UNK N   1      -3.086  -2.609   0.449  0.00  0.00     0.390 P 
HETATM   19  O   UNK N   1      -4.232  -1.897  -0.321  0.00  0.00    -0.632 OA
BRANCH  18  20
HETATM   20  O   UNK N   1      -3.228  -3.576  -0.983  0.00  0.00    -0.307 OA
HETATM   21  H   UNK N   1      -3.736  -3.778  -1.785  0.00  0.00     0.222 HD
ENDBRANCH  18  20
BRANCH  18  22
HETATM   22  O   UNK N   1      -1.640  -2.553  -0.515  0.00  0.00    -0.307 OA
HETATM   23  H   UNK N   1      -1.210  -3.236  -1.053  0.00  0.00     0.222 HD
ENDBRANCH  18  22
ENDBRANCH  17  18
ENDBRANCH  16  17
ENDBRANCH   4  16
TORSDOF 6
