MODEL 1
REMARK VINA RESULT:      -5.3      0.000      0.000
REMARK  0 active torsions:
REMARK  status: ('A' for Active; 'I' for Inactive)
ROOT
HETATM    1 Cl   UNK N   1      28.161  21.970  -7.538  0.00  0.00    -0.081 Cl
HETATM    2  C   UNK N   1      29.217  21.919  -6.128  0.00  0.00     0.079 A 
HETATM    3  C   UNK N   1      30.263  20.960  -6.048  0.00  0.00     0.080 A 
HETATM    4 Cl   UNK N   1      30.514  19.807  -7.359  0.00  0.00    -0.081 Cl
HETATM    5  C   UNK N   1      31.101  20.926  -4.909  0.00  0.00     0.074 A 
HETATM    6 Cl   UNK N   1      32.408  19.754  -4.765  0.00  0.00    -0.081 Cl
HETATM    7  C   UNK N   1      30.858  21.847  -3.888  0.00  0.00     0.073 A 
HETATM    8  C   UNK N   1      31.490  22.067  -2.625  0.00  0.00     0.296 A 
HETATM    9  O   UNK N   1      32.424  21.431  -2.169  0.00  0.00    -0.259 OA
HETATM   10  O   UNK N   1      30.888  23.083  -1.972  0.00  0.00    -0.313 OA
HETATM   11  C   UNK N   1      29.837  23.614  -2.717  0.00  0.00     0.220 A 
HETATM   12  C   UNK N   1      29.858  22.765  -3.963  0.00  0.00     0.007 A 
HETATM   13  C   UNK N   1      29.016  22.834  -5.069  0.00  0.00     0.067 A 
HETATM   14 Cl   UNK N   1      27.730  24.034  -5.110  0.00  0.00    -0.082 Cl
ENDROOT
TORSDOF 0
ENDMDL
MODEL 2
REMARK VINA RESULT:      -5.3     10.453     11.769
REMARK  0 active torsions:
REMARK  status: ('A' for Active; 'I' for Inactive)
ROOT
HETATM    1 Cl   UNK N   1      27.686  16.543   5.077  0.00  0.00    -0.081 Cl
HETATM    2  C   UNK N   1      29.377  16.857   5.461  0.00  0.00     0.079 A 
HETATM    3  C   UNK N   1      30.366  16.807   4.442  0.00  0.00     0.080 A 
HETATM    4 Cl   UNK N   1      29.913  16.423   2.781  0.00  0.00    -0.081 Cl
HETATM    5  C   UNK N   1      31.721  17.056   4.762  0.00  0.00     0.074 A 
HETATM    6 Cl   UNK N   1      32.982  17.002   3.533  0.00  0.00    -0.081 Cl
HETATM    7  C   UNK N   1      32.038  17.340   6.092  0.00  0.00     0.073 A 
HETATM    8  C   UNK N   1      33.281  17.616   6.744  0.00  0.00     0.296 A 
HETATM    9  O   UNK N   1      34.378  17.644   6.215  0.00  0.00    -0.259 OA
HETATM   10  O   UNK N   1      33.081  17.825   8.061  0.00  0.00    -0.313 OA
HETATM   11  C   UNK N   1      31.732  17.712   8.396  0.00  0.00     0.220 A 
HETATM   12  C   UNK N   1      31.093  17.390   7.068  0.00  0.00     0.007 A 
HETATM   13  C   UNK N   1      29.750  17.155   6.792  0.00  0.00     0.067 A 
HETATM   14 Cl   UNK N   1      28.568  17.220   8.094  0.00  0.00    -0.082 Cl
ENDROOT
TORSDOF 0
ENDMDL
MODEL 3
REMARK VINA RESULT:      -5.2      1.163      3.239
REMARK  0 active torsions:
REMARK  status: ('A' for Active; 'I' for Inactive)
ROOT
HETATM    1 Cl   UNK N   1      29.583  21.366  -8.046  0.00  0.00    -0.081 Cl
HETATM    2  C   UNK N   1      29.873  21.778  -6.358  0.00  0.00     0.079 A 
HETATM    3  C   UNK N   1      28.982  22.643  -5.665  0.00  0.00     0.080 A 
HETATM    4 Cl   UNK N   1      27.577  23.317  -6.491  0.00  0.00    -0.081 Cl
HETATM    5  C   UNK N   1      29.228  22.971  -4.312  0.00  0.00     0.074 A 
HETATM    6 Cl   UNK N   1      28.153  24.039  -3.415  0.00  0.00    -0.081 Cl
HETATM    7  C   UNK N   1      30.360  22.427  -3.701  0.00  0.00     0.073 A 
HETATM    8  C   UNK N   1      30.899  22.565  -2.384  0.00  0.00     0.296 A 
HETATM    9  O   UNK N   1      30.435  23.247  -1.487  0.00  0.00    -0.259 OA
HETATM   10  O   UNK N   1      32.031  21.843  -2.264  0.00  0.00    -0.313 OA
HETATM   11  C   UNK N   1      32.340  21.179  -3.451  0.00  0.00     0.220 A 
HETATM   12  C   UNK N   1      31.213  21.600  -4.361  0.00  0.00     0.007 A 
HETATM   13  C   UNK N   1      31.004  21.250  -5.692  0.00  0.00     0.067 A 
HETATM   14 Cl   UNK N   1      32.144  20.185  -6.503  0.00  0.00    -0.082 Cl
ENDROOT
TORSDOF 0
ENDMDL
MODEL 4
REMARK VINA RESULT:      -5.2     10.716     12.290
REMARK  0 active torsions:
REMARK  status: ('A' for Active; 'I' for Inactive)
ROOT
HETATM    1 Cl   UNK N   1      27.589  16.893   6.969  0.00  0.00    -0.081 Cl
HETATM    2  C   UNK N   1      29.312  17.050   6.633  0.00  0.00     0.079 A 
HETATM    3  C   UNK N   1      30.241  17.206   7.697  0.00  0.00     0.080 A 
HETATM    4 Cl   UNK N   1      29.678  17.249   9.368  0.00  0.00    -0.081 Cl
HETATM    5  C   UNK N   1      31.620  17.335   7.415  0.00  0.00     0.074 A 
HETATM    6 Cl   UNK N   1      32.808  17.533   8.701  0.00  0.00    -0.081 Cl
HETATM    7  C   UNK N   1      32.021  17.311   6.078  0.00  0.00     0.073 A 
HETATM    8  C   UNK N   1      33.305  17.431   5.458  0.00  0.00     0.296 A 
HETATM    9  O   UNK N   1      34.366  17.602   6.033  0.00  0.00    -0.259 OA
HETATM   10  O   UNK N   1      33.185  17.353   4.118  0.00  0.00    -0.313 OA
HETATM   11  C   UNK N   1      31.856  17.179   3.734  0.00  0.00     0.220 A 
HETATM   12  C   UNK N   1      31.135  17.161   5.058  0.00  0.00     0.007 A 
HETATM   13  C   UNK N   1      29.770  17.027   5.295  0.00  0.00     0.067 A 
HETATM   14 Cl   UNK N   1      28.664  16.847   3.939  0.00  0.00    -0.082 Cl
ENDROOT
TORSDOF 0
ENDMDL
MODEL 5
REMARK VINA RESULT:      -5.1      6.887      7.609
REMARK  0 active torsions:
REMARK  status: ('A' for Active; 'I' for Inactive)
ROOT
HETATM    1 Cl   UNK N   1      28.652  27.974  -9.147  0.00  0.00    -0.081 Cl
HETATM    2  C   UNK N   1      27.856  28.039  -7.576  0.00  0.00     0.079 A 
HETATM    3  C   UNK N   1      26.932  27.028  -7.196  0.00  0.00     0.080 A 
HETATM    4 Cl   UNK N   1      26.568  25.698  -8.295  0.00  0.00    -0.081 Cl
HETATM    5  C   UNK N   1      26.296  27.094  -5.935  0.00  0.00     0.074 A 
HETATM    6 Cl   UNK N   1      25.143  25.865  -5.421  0.00  0.00    -0.081 Cl
HETATM    7  C   UNK N   1      26.602  28.172  -5.101  0.00  0.00     0.073 A 
HETATM    8  C   UNK N   1      26.136  28.542  -3.801  0.00  0.00     0.296 A 
HETATM    9  O   UNK N   1      25.311  27.940  -3.136  0.00  0.00    -0.259 OA
HETATM   10  O   UNK N   1      26.724  29.688  -3.403  0.00  0.00    -0.313 OA
HETATM   11  C   UNK N   1      27.607  30.170  -4.369  0.00  0.00     0.220 A 
HETATM   12  C   UNK N   1      27.486  29.140  -5.463  0.00  0.00     0.007 A 
HETATM   13  C   UNK N   1      28.135  29.108  -6.694  0.00  0.00     0.067 A 
HETATM   14 Cl   UNK N   1      29.261  30.392  -7.117  0.00  0.00    -0.082 Cl
ENDROOT
TORSDOF 0
ENDMDL
MODEL 6
REMARK VINA RESULT:      -4.9     22.443     23.950
REMARK  0 active torsions:
REMARK  status: ('A' for Active; 'I' for Inactive)
ROOT
HETATM    1 Cl   UNK N   1      34.501   9.840  18.387  0.00  0.00    -0.081 Cl
HETATM    2  C   UNK N   1      35.128  11.151  17.391  0.00  0.00     0.079 A 
HETATM    3  C   UNK N   1      35.340  12.441  17.950  0.00  0.00     0.080 A 
HETATM    4 Cl   UNK N   1      34.972  12.744  19.649  0.00  0.00    -0.081 Cl
HETATM    5  C   UNK N   1      35.839  13.487  17.140  0.00  0.00     0.074 A 
HETATM    6 Cl   UNK N   1      36.115  15.101  17.789  0.00  0.00    -0.081 Cl
HETATM    7  C   UNK N   1      36.102  13.207  15.797  0.00  0.00     0.073 A 
HETATM    8  C   UNK N   1      36.584  14.021  14.725  0.00  0.00     0.296 A 
HETATM    9  O   UNK N   1      36.865  15.205  14.792  0.00  0.00    -0.259 OA
HETATM   10  O   UNK N   1      36.669  13.297  13.591  0.00  0.00    -0.313 OA
HETATM   11  C   UNK N   1      36.266  11.978  13.797  0.00  0.00     0.220 A 
HETATM   12  C   UNK N   1      35.901  11.975  15.260  0.00  0.00     0.007 A 
HETATM   13  C   UNK N   1      35.415  10.919  16.026  0.00  0.00     0.067 A 
HETATM   14 Cl   UNK N   1      35.162   9.346  15.280  0.00  0.00    -0.082 Cl
ENDROOT
TORSDOF 0
ENDMDL
MODEL 7
REMARK VINA RESULT:      -4.9     10.745     12.154
REMARK  0 active torsions:
REMARK  status: ('A' for Active; 'I' for Inactive)
ROOT
HETATM    1 Cl   UNK N   1      32.320  16.906   3.016  0.00  0.00    -0.081 Cl
HETATM    2  C   UNK N   1      31.380  17.002   4.504  0.00  0.00     0.079 A 
HETATM    3  C   UNK N   1      29.967  16.858   4.472  0.00  0.00     0.080 A 
HETATM    4 Cl   UNK N   1      29.136  16.585   2.940  0.00  0.00    -0.081 Cl
HETATM    5  C   UNK N   1      29.223  16.942   5.671  0.00  0.00     0.074 A 
HETATM    6 Cl   UNK N   1      27.470  16.771   5.680  0.00  0.00    -0.081 Cl
HETATM    7  C   UNK N   1      29.919  17.174   6.859  0.00  0.00     0.073 A 
HETATM    8  C   UNK N   1      29.482  17.328   8.212  0.00  0.00     0.296 A 
HETATM    9  O   UNK N   1      28.329  17.293   8.603  0.00  0.00    -0.259 OA
HETATM   10  O   UNK N   1      30.538  17.548   9.022  0.00  0.00    -0.313 OA
HETATM   11  C   UNK N   1      31.735  17.559   8.306  0.00  0.00     0.220 A 
HETATM   12  C   UNK N   1      31.271  17.312   6.892  0.00  0.00     0.007 A 
HETATM   13  C   UNK N   1      32.038  17.232   5.734  0.00  0.00     0.067 A 
HETATM   14 Cl   UNK N   1      33.784  17.429   5.831  0.00  0.00    -0.082 Cl
ENDROOT
TORSDOF 0
ENDMDL
MODEL 8
REMARK VINA RESULT:      -4.8     23.342     24.894
REMARK  0 active torsions:
REMARK  status: ('A' for Active; 'I' for Inactive)
ROOT
HETATM    1 Cl   UNK N   1      35.570   8.496  15.652  0.00  0.00    -0.081 Cl
HETATM    2  C   UNK N   1      35.528  10.087  16.410  0.00  0.00     0.079 A 
HETATM    3  C   UNK N   1      35.804  11.254  15.647  0.00  0.00     0.080 A 
HETATM    4 Cl   UNK N   1      36.197  11.122  13.933  0.00  0.00    -0.081 Cl
HETATM    5  C   UNK N   1      35.773  12.524  16.267  0.00  0.00     0.074 A 
HETATM    6 Cl   UNK N   1      36.111  13.998  15.363  0.00  0.00    -0.081 Cl
HETATM    7  C   UNK N   1      35.473  12.582  17.630  0.00  0.00     0.073 A 
HETATM    8  C   UNK N   1      35.378  13.675  18.546  0.00  0.00     0.296 A 
HETATM    9  O   UNK N   1      35.568  14.850  18.284  0.00  0.00    -0.259 OA
HETATM   10  O   UNK N   1      35.065  13.227  19.778  0.00  0.00    -0.313 OA
HETATM   11  C   UNK N   1      34.926  11.839  19.795  0.00  0.00     0.220 A 
HETATM   12  C   UNK N   1      35.208  11.467  18.361  0.00  0.00     0.007 A 
HETATM   13  C   UNK N   1      35.225  10.199  17.787  0.00  0.00     0.067 A 
HETATM   14 Cl   UNK N   1      34.886   8.788  18.781  0.00  0.00    -0.082 Cl
ENDROOT
TORSDOF 0
ENDMDL
MODEL 9
REMARK VINA RESULT:      -4.8     10.977     11.981
REMARK  0 active torsions:
REMARK  status: ('A' for Active; 'I' for Inactive)
ROOT
HETATM    1 Cl   UNK N   1      26.240  16.150   5.719  0.00  0.00    -0.081 Cl
HETATM    2  C   UNK N   1      25.212  17.350   4.939  0.00  0.00     0.079 A 
HETATM    3  C   UNK N   1      25.787  18.392   4.161  0.00  0.00     0.080 A 
HETATM    4 Cl   UNK N   1      27.537  18.498   3.972  0.00  0.00    -0.081 Cl
HETATM    5  C   UNK N   1      24.952  19.352   3.544  0.00  0.00     0.074 A 
HETATM    6 Cl   UNK N   1      25.619  20.662   2.573  0.00  0.00    -0.081 Cl
HETATM    7  C   UNK N   1      23.573  19.240   3.732  0.00  0.00     0.073 A 
HETATM    8  C   UNK N   1      22.474  20.033   3.275  0.00  0.00     0.296 A 
HETATM    9  O   UNK N   1      22.551  21.039   2.592  0.00  0.00    -0.259 OA
HETATM   10  O   UNK N   1      21.311  19.525   3.728  0.00  0.00    -0.313 OA
HETATM   11  C   UNK N   1      21.520  18.384   4.502  0.00  0.00     0.220 A 
HETATM   12  C   UNK N   1      23.021  18.243   4.475  0.00  0.00     0.007 A 
HETATM   13  C   UNK N   1      23.808  17.277   5.094  0.00  0.00     0.067 A 
HETATM   14 Cl   UNK N   1      23.045  16.016   6.054  0.00  0.00    -0.082 Cl
ENDROOT
TORSDOF 0
ENDMDL
