MODEL 1
REMARK VINA RESULT:      -5.6      0.000      0.000
REMARK  0 active torsions:
REMARK  status: ('A' for Active; 'I' for Inactive)
ROOT
HETATM    1  C   UNK N   1      19.808  15.904   0.554  0.00  0.00     0.163 C 
HETATM    2  N   UNK N   1      19.974  16.753   1.722  0.00  0.00    -0.288 N 
HETATM    3  C   UNK N   1      19.862  16.403   3.036  0.00  0.00     0.328 A 
HETATM    4  O   UNK N   1      19.596  15.279   3.418  0.00  0.00    -0.246 OA
HETATM    5  N   UNK N   1      20.082  17.456   3.881  0.00  0.00    -0.301 N 
HETATM    6  C   UNK N   1      20.336  18.478   3.040  0.00  0.00     0.150 A 
HETATM    7  C   UNK N   1      20.270  18.054   1.751  0.00  0.00     0.148 A 
HETATM    8  N   UNK N   1      20.483  18.876   0.698  0.00  0.00    -0.292 N 
HETATM    9  C   UNK N   1      20.779  20.197   0.962  0.00  0.00     0.328 A 
HETATM   10  O   UNK N   1      20.977  20.967   0.041  0.00  0.00    -0.247 OA
HETATM   11  N   UNK N   1      20.851  20.652   2.271  0.00  0.00    -0.273 N 
HETATM   12  C   UNK N   1      20.630  19.796   3.326  0.00  0.00     0.280 A 
HETATM   13  O   UNK N   1      20.693  20.192   4.476  0.00  0.00    -0.265 OA
HETATM   14  H   UNK N   1      20.061  17.465   4.866  0.00  0.00     0.171 HD
HETATM   15  H   UNK N   1      20.429  18.542  -0.226  0.00  0.00     0.172 HD
HETATM   16  H   UNK N   1      21.063  21.596   2.446  0.00  0.00     0.173 HD
ENDROOT
TORSDOF 0
ENDMDL
MODEL 2
REMARK VINA RESULT:      -5.5     14.900     15.764
REMARK  0 active torsions:
REMARK  status: ('A' for Active; 'I' for Inactive)
ROOT
HETATM    1  C   UNK N   1      33.766  17.387   6.223  0.00  0.00     0.163 C 
HETATM    2  N   UNK N   1      34.025  17.068   7.618  0.00  0.00    -0.288 N 
HETATM    3  C   UNK N   1      34.575  17.870   8.573  0.00  0.00     0.328 A 
HETATM    4  O   UNK N   1      34.937  19.014   8.372  0.00  0.00    -0.246 OA
HETATM    5  N   UNK N   1      34.675  17.249   9.788  0.00  0.00    -0.301 N 
HETATM    6  C   UNK N   1      34.165  16.025   9.550  0.00  0.00     0.150 A 
HETATM    7  C   UNK N   1      33.778  15.920   8.253  0.00  0.00     0.148 A 
HETATM    8  N   UNK N   1      33.230  14.795   7.740  0.00  0.00    -0.292 N 
HETATM    9  C   UNK N   1      33.064  13.717   8.585  0.00  0.00     0.328 A 
HETATM   10  O   UNK N   1      32.575  12.687   8.161  0.00  0.00    -0.247 OA
HETATM   11  N   UNK N   1      33.453  13.801   9.914  0.00  0.00    -0.273 N 
HETATM   12  C   UNK N   1      34.009  14.958  10.412  0.00  0.00     0.280 A 
HETATM   13  O   UNK N   1      34.351  15.035  11.579  0.00  0.00    -0.265 OA
HETATM   14  H   UNK N   1      35.034  17.609  10.632  0.00  0.00     0.171 HD
HETATM   15  H   UNK N   1      32.958  14.747   6.795  0.00  0.00     0.172 HD
HETATM   16  H   UNK N   1      33.330  13.026  10.506  0.00  0.00     0.173 HD
ENDROOT
TORSDOF 0
ENDMDL
MODEL 3
REMARK VINA RESULT:      -5.4     17.225     17.929
REMARK  0 active torsions:
REMARK  status: ('A' for Active; 'I' for Inactive)
ROOT
HETATM    1  C   UNK N   1      34.740  12.237  13.150  0.00  0.00     0.163 C 
HETATM    2  N   UNK N   1      35.219  13.544  12.733  0.00  0.00    -0.288 N 
HETATM    3  C   UNK N   1      36.201  14.299  13.303  0.00  0.00     0.328 A 
HETATM    4  O   UNK N   1      36.836  13.958  14.284  0.00  0.00    -0.246 OA
HETATM    5  N   UNK N   1      36.398  15.485  12.651  0.00  0.00    -0.301 N 
HETATM    6  C   UNK N   1      35.497  15.439  11.650  0.00  0.00     0.150 A 
HETATM    7  C   UNK N   1      34.794  14.278  11.702  0.00  0.00     0.148 A 
HETATM    8  N   UNK N   1      33.822  13.970  10.814  0.00  0.00    -0.292 N 
HETATM    9  C   UNK N   1      33.545  14.885   9.819  0.00  0.00     0.328 A 
HETATM   10  O   UNK N   1      32.678  14.643   9.002  0.00  0.00    -0.247 OA
HETATM   11  N   UNK N   1      34.251  16.077   9.747  0.00  0.00    -0.273 N 
HETATM   12  C   UNK N   1      35.236  16.368  10.663  0.00  0.00     0.280 A 
HETATM   13  O   UNK N   1      35.857  17.415  10.602  0.00  0.00    -0.265 OA
HETATM   14  H   UNK N   1      37.043  16.200  12.862  0.00  0.00     0.171 HD
HETATM   15  H   UNK N   1      33.328  13.120  10.875  0.00  0.00     0.172 HD
HETATM   16  H   UNK N   1      34.044  16.721   9.033  0.00  0.00     0.173 HD
ENDROOT
TORSDOF 0
ENDMDL
MODEL 4
REMARK VINA RESULT:      -5.3     15.443     16.012
REMARK  0 active torsions:
REMARK  status: ('A' for Active; 'I' for Inactive)
ROOT
HETATM    1  C   UNK N   1      34.507  13.719  10.321  0.00  0.00     0.163 C 
HETATM    2  N   UNK N   1      34.732  15.141  10.114  0.00  0.00    -0.288 N 
HETATM    3  C   UNK N   1      35.305  16.033  10.972  0.00  0.00     0.328 A 
HETATM    4  O   UNK N   1      35.723  15.739  12.077  0.00  0.00    -0.246 OA
HETATM    5  N   UNK N   1      35.359  17.299  10.455  0.00  0.00    -0.301 N 
HETATM    6  C   UNK N   1      34.796  17.159   9.240  0.00  0.00     0.150 A 
HETATM    7  C   UNK N   1      34.422  15.869   9.039  0.00  0.00     0.148 A 
HETATM    8  N   UNK N   1      33.830  15.446   7.899  0.00  0.00    -0.292 N 
HETATM    9  C   UNK N   1      33.602  16.378   6.908  0.00  0.00     0.328 A 
HETATM   10  O   UNK N   1      33.071  16.036   5.868  0.00  0.00    -0.247 OA
HETATM   11  N   UNK N   1      33.975  17.701   7.091  0.00  0.00    -0.273 N 
HETATM   12  C   UNK N   1      34.577  18.107   8.261  0.00  0.00     0.280 A 
HETATM   13  O   UNK N   1      34.906  19.269   8.424  0.00  0.00    -0.265 OA
HETATM   14  H   UNK N   1      35.722  18.114  10.872  0.00  0.00     0.171 HD
HETATM   15  H   UNK N   1      33.569  14.504   7.781  0.00  0.00     0.172 HD
HETATM   16  H   UNK N   1      33.808  18.357   6.377  0.00  0.00     0.173 HD
ENDROOT
TORSDOF 0
ENDMDL
MODEL 5
REMARK VINA RESULT:      -5.2     19.502     20.385
REMARK  0 active torsions:
REMARK  status: ('A' for Active; 'I' for Inactive)
ROOT
HETATM    1  C   UNK N   1      34.898  10.837  16.268  0.00  0.00     0.163 C 
HETATM    2  N   UNK N   1      34.947  11.636  15.054  0.00  0.00    -0.288 N 
HETATM    3  C   UNK N   1      34.320  11.396  13.867  0.00  0.00     0.328 A 
HETATM    4  O   UNK N   1      33.602  10.434  13.661  0.00  0.00    -0.246 OA
HETATM    5  N   UNK N   1      34.584  12.356  12.929  0.00  0.00    -0.301 N 
HETATM    6  C   UNK N   1      35.403  13.205  13.581  0.00  0.00     0.150 A 
HETATM    7  C   UNK N   1      35.617  12.772  14.850  0.00  0.00     0.148 A 
HETATM    8  N   UNK N   1      36.403  13.435  15.728  0.00  0.00    -0.292 N 
HETATM    9  C   UNK N   1      37.005  14.601  15.300  0.00  0.00     0.328 A 
HETATM   10  O   UNK N   1      37.719  15.226  16.061  0.00  0.00    -0.247 OA
HETATM   11  N   UNK N   1      36.800  15.062  14.008  0.00  0.00    -0.273 N 
HETATM   12  C   UNK N   1      35.995  14.368  13.132  0.00  0.00     0.280 A 
HETATM   13  O   UNK N   1      35.814  14.771  11.997  0.00  0.00    -0.265 OA
HETATM   14  H   UNK N   1      34.256  12.412  12.002  0.00  0.00     0.171 HD
HETATM   15  H   UNK N   1      36.541  13.098  16.642  0.00  0.00     0.172 HD
HETATM   16  H   UNK N   1      37.235  15.894  13.714  0.00  0.00     0.173 HD
ENDROOT
TORSDOF 0
ENDMDL
MODEL 6
REMARK VINA RESULT:      -5.1     14.931     15.461
REMARK  0 active torsions:
REMARK  status: ('A' for Active; 'I' for Inactive)
ROOT
HETATM    1  C   UNK N   1      36.539  15.013   9.992  0.00  0.00     0.163 C 
HETATM    2  N   UNK N   1      35.101  15.228   9.964  0.00  0.00    -0.288 N 
HETATM    3  C   UNK N   1      34.172  14.797  10.864  0.00  0.00     0.328 A 
HETATM    4  O   UNK N   1      34.439  14.145  11.856  0.00  0.00    -0.246 OA
HETATM    5  N   UNK N   1      32.900  15.179  10.530  0.00  0.00    -0.301 N 
HETATM    6  C   UNK N   1      33.077  15.865   9.385  0.00  0.00     0.150 A 
HETATM    7  C   UNK N   1      34.392  15.893   9.049  0.00  0.00     0.148 A 
HETATM    8  N   UNK N   1      34.854  16.516   7.941  0.00  0.00    -0.292 N 
HETATM    9  C   UNK N   1      33.935  17.147   7.128  0.00  0.00     0.328 A 
HETATM   10  O   UNK N   1      34.311  17.718   6.122  0.00  0.00    -0.247 OA
HETATM   11  N   UNK N   1      32.586  17.132   7.451  0.00  0.00    -0.273 N 
HETATM   12  C   UNK N   1      32.141  16.489   8.585  0.00  0.00     0.280 A 
HETATM   13  O   UNK N   1      30.957  16.475   8.871  0.00  0.00    -0.265 OA
HETATM   14  H   UNK N   1      32.061  14.996  11.012  0.00  0.00     0.171 HD
HETATM   15  H   UNK N   1      35.813  16.520   7.722  0.00  0.00     0.172 HD
HETATM   16  H   UNK N   1      31.940  17.585   6.863  0.00  0.00     0.173 HD
ENDROOT
TORSDOF 0
ENDMDL
MODEL 7
REMARK VINA RESULT:      -5.0     18.379     19.342
REMARK  0 active torsions:
REMARK  status: ('A' for Active; 'I' for Inactive)
ROOT
HETATM    1  C   UNK N   1      34.533  14.048   9.846  0.00  0.00     0.163 C 
HETATM    2  N   UNK N   1      35.197  14.308  11.113  0.00  0.00    -0.288 N 
HETATM    3  C   UNK N   1      36.014  15.352  11.433  0.00  0.00     0.328 A 
HETATM    4  O   UNK N   1      36.307  16.246  10.660  0.00  0.00    -0.246 OA
HETATM    5  N   UNK N   1      36.471  15.287  12.721  0.00  0.00    -0.301 N 
HETATM    6  C   UNK N   1      35.905  14.158  13.191  0.00  0.00     0.150 A 
HETATM    7  C   UNK N   1      35.145  13.576  12.228  0.00  0.00     0.148 A 
HETATM    8  N   UNK N   1      34.460  12.427  12.429  0.00  0.00    -0.292 N 
HETATM    9  C   UNK N   1      34.550  11.833  13.671  0.00  0.00     0.328 A 
HETATM   10  O   UNK N   1      33.949  10.799  13.890  0.00  0.00    -0.247 OA
HETATM   11  N   UNK N   1      35.320  12.410  14.670  0.00  0.00    -0.273 N 
HETATM   12  C   UNK N   1      36.008  13.581  14.440  0.00  0.00     0.280 A 
HETATM   13  O   UNK N   1      36.686  14.090  15.316  0.00  0.00    -0.265 OA
HETATM   14  H   UNK N   1      37.069  15.913  13.190  0.00  0.00     0.171 HD
HETATM   15  H   UNK N   1      33.917  12.027  11.712  0.00  0.00     0.172 HD
HETATM   16  H   UNK N   1      35.376  11.978  15.552  0.00  0.00     0.173 HD
ENDROOT
TORSDOF 0
ENDMDL
MODEL 8
REMARK VINA RESULT:      -4.9     22.757     23.538
REMARK  0 active torsions:
REMARK  status: ('A' for Active; 'I' for Inactive)
ROOT
HETATM    1  C   UNK N   1      40.932  24.018   0.864  0.00  0.00     0.163 C 
HETATM    2  N   UNK N   1      41.721  23.148   1.721  0.00  0.00    -0.288 N 
HETATM    3  C   UNK N   1      41.334  21.986   2.321  0.00  0.00     0.328 A 
HETATM    4  O   UNK N   1      40.222  21.504   2.211  0.00  0.00    -0.246 OA
HETATM    5  N   UNK N   1      42.334  21.419   3.062  0.00  0.00    -0.301 N 
HETATM    6  C   UNK N   1      43.361  22.275   2.900  0.00  0.00     0.150 A 
HETATM    7  C   UNK N   1      42.992  23.307   2.098  0.00  0.00     0.148 A 
HETATM    8  N   UNK N   1      43.831  24.315   1.767  0.00  0.00    -0.292 N 
HETATM    9  C   UNK N   1      45.113  24.278   2.275  0.00  0.00     0.328 A 
HETATM   10  O   UNK N   1      45.897  25.167   2.000  0.00  0.00    -0.247 OA
HETATM   11  N   UNK N   1      45.512  23.234   3.096  0.00  0.00    -0.273 N 
HETATM   12  C   UNK N   1      44.639  22.218   3.418  0.00  0.00     0.280 A 
HETATM   13  O   UNK N   1      44.987  21.300   4.139  0.00  0.00    -0.265 OA
HETATM   14  H   UNK N   1      42.308  20.586   3.588  0.00  0.00     0.171 HD
HETATM   15  H   UNK N   1      43.536  25.051   1.184  0.00  0.00     0.172 HD
HETATM   16  H   UNK N   1      46.429  23.218   3.452  0.00  0.00     0.173 HD
ENDROOT
TORSDOF 0
ENDMDL
MODEL 9
REMARK VINA RESULT:      -4.9      2.053      3.372
REMARK  0 active torsions:
REMARK  status: ('A' for Active; 'I' for Inactive)
ROOT
HETATM    1  C   UNK N   1      21.123  15.052   1.584  0.00  0.00     0.163 C 
HETATM    2  N   UNK N   1      20.854  16.455   1.852  0.00  0.00    -0.288 N 
HETATM    3  C   UNK N   1      20.347  17.389   0.997  0.00  0.00     0.328 A 
HETATM    4  O   UNK N   1      20.038  17.157  -0.157  0.00  0.00    -0.246 OA
HETATM    5  N   UNK N   1      20.221  18.621   1.580  0.00  0.00    -0.301 N 
HETATM    6  C   UNK N   1      20.671  18.416   2.833  0.00  0.00     0.150 A 
HETATM    7  C   UNK N   1      21.048  17.121   2.992  0.00  0.00     0.148 A 
HETATM    8  N   UNK N   1      21.540  16.639   4.156  0.00  0.00    -0.292 N 
HETATM    9  C   UNK N   1      21.657  17.513   5.217  0.00  0.00     0.328 A 
HETATM   10  O   UNK N   1      22.095  17.117   6.280  0.00  0.00    -0.247 OA
HETATM   11  N   UNK N   1      21.278  18.840   5.077  0.00  0.00    -0.273 N 
HETATM   12  C   UNK N   1      20.780  19.308   3.881  0.00  0.00     0.280 A 
HETATM   13  O   UNK N   1      20.446  20.472   3.755  0.00  0.00    -0.265 OA
HETATM   14  H   UNK N   1      19.883  19.455   1.179  0.00  0.00     0.171 HD
HETATM   15  H   UNK N   1      21.806  15.695   4.243  0.00  0.00     0.172 HD
HETATM   16  H   UNK N   1      21.366  19.454   5.841  0.00  0.00     0.173 HD
ENDROOT
TORSDOF 0
ENDMDL
