REMARK  5 active torsions:
REMARK  status: ('A' for Active; 'I' for Inactive)
REMARK    1  A    between atoms: O_1  and  S_2 
REMARK    2  A    between atoms: S_2  and  C_5 
REMARK    3  A    between atoms: C_5  and  C_6 
REMARK    4  A    between atoms: C_6  and  N_7 
REMARK    5  A    between atoms: N_7  and  C_8 
ROOT
HETATM    1  N   UNK N   1       0.224  -0.657  -0.330  0.00  0.00    -0.416 N 
HETATM    2  H   UNK N   1       0.377  -0.079  -1.157  0.00  0.00     0.153 HD
ENDROOT
BRANCH   1   3
HETATM    3  C   UNK N   1      -0.958  -0.648   0.515  0.00  0.00     0.131 C 
BRANCH   3   4
HETATM    4  C   UNK N   1      -2.155  -1.082  -0.308  0.00  0.00     0.174 C 
BRANCH   4   5
HETATM    5  S   UNK N   1      -3.169  -2.250   0.642  0.00  0.00     0.095 S 
HETATM    6  O   UNK N   1      -2.394  -3.012  -0.447  0.00  0.00    -0.601 OA
HETATM    7  O   UNK N   1      -4.068  -1.337  -0.206  0.00  0.00    -0.601 OA
BRANCH   5   8
HETATM    8  O   UNK N   1      -4.341  -3.347   0.033  0.00  0.00    -0.296 OA
HETATM    9  H   UNK N   1      -5.209  -3.084  -0.310  0.00  0.00     0.232 HD
ENDBRANCH   5   8
ENDBRANCH   4   5
ENDBRANCH   3   4
ENDBRANCH   1   3
BRANCH   1  10
HETATM   10  C   UNK N   1       1.150  -1.637   0.215  0.00  0.00     0.076 C 
HETATM   11  C   UNK N   1       2.566  -1.281  -0.226  0.00  0.00     0.024 C 
HETATM   12  C   UNK N   1       3.561  -2.303   0.314  0.00  0.00     0.002 C 
HETATM   13  C   UNK N   1       3.201  -3.699  -0.184  0.00  0.00     0.000 C 
HETATM   14  C   UNK N   1       1.787  -4.065   0.259  0.00  0.00     0.002 C 
HETATM   15  C   UNK N   1       0.790  -3.042  -0.279  0.00  0.00     0.024 C 
ENDBRANCH   1  10
TORSDOF 5
