MODEL 1
REMARK VINA RESULT:      -6.6      0.000      0.000
REMARK  11 active torsions:
REMARK  status: ('A' for Active; 'I' for Inactive)
REMARK    1  A    between atoms: C_5  and  C_2 
REMARK    2  A    between atoms: O_13  and  C_2 
REMARK    3  A    between atoms: C_6  and  C_3 
REMARK    4  A    between atoms: O_14  and  C_3 
REMARK    5  A    between atoms: C_4  and  O_15 
REMARK    6  A    between atoms: C_7  and  O_16 
REMARK    7  A    between atoms: C_8  and  O_17 
REMARK    8  A    between atoms: C_9  and  O_18 
REMARK    9  A    between atoms: C_10  and  O_19 
REMARK   10  A    between atoms: C_11  and  O_22 
REMARK   11  A    between atoms: C_12  and  O_22 
ROOT
HETATM    1  C   UNK N   1      29.404  17.149   8.438  0.00  0.00     0.179 C 
HETATM    2  C   UNK N   1      28.822  16.872   7.008  0.00  0.00     0.180 C 
HETATM    3  C   UNK N   1      29.699  17.628   6.012  0.00  0.00     0.183 C 
HETATM    4  C   UNK N   1      31.147  17.061   6.082  0.00  0.00     0.204 C 
HETATM    5  C   UNK N   1      31.429  16.429   7.471  0.00  0.00     0.292 C 
HETATM    6  O   UNK N   1      30.838  17.237   8.473  0.00  0.00    -0.348 OA
ENDROOT
BRANCH   5   7
HETATM    7  O   UNK N   1      32.830  16.219   7.622  0.00  0.00    -0.348 OA
BRANCH   7   8
HETATM    8  C   UNK N   1      33.344  16.373   8.938  0.00  0.00     0.184 C 
HETATM    9  C   UNK N   1      33.654  15.017   9.622  0.00  0.00     0.154 C 
HETATM   10  C   UNK N   1      34.331  15.284  10.961  0.00  0.00     0.095 C 
HETATM   11  C   UNK N   1      35.569  16.161  10.772  0.00  0.00     0.260 C 
HETATM   12  O   UNK N   1      35.252  17.372  10.107  0.00  0.00    -0.351 OA
HETATM   13  C   UNK N   1      34.689  17.133   8.826  0.00  0.00     0.179 C 
BRANCH   9  14
HETATM   14  O   UNK N   1      32.501  14.270   9.860  0.00  0.00    -0.393 OA
HETATM   15  H   UNK N   1      32.262  14.005  10.762  0.00  0.00     0.210 HD
ENDBRANCH   9  14
BRANCH  11  16
HETATM   16  O   UNK N   1      36.581  15.466  10.101  0.00  0.00    -0.371 OA
HETATM   17  H   UNK N   1      36.856  14.712   9.555  0.00  0.00     0.212 HD
ENDBRANCH  11  16
BRANCH  13  18
HETATM   18  C   UNK N   1      34.485  18.474   8.132  0.00  0.00     0.198 C 
BRANCH  18  19
HETATM   19  O   UNK N   1      35.410  19.407   8.604  0.00  0.00    -0.398 OA
HETATM   20  H   UNK N   1      35.515  20.260   8.155  0.00  0.00     0.209 HD
ENDBRANCH  18  19
ENDBRANCH  13  18
ENDBRANCH   7   8
ENDBRANCH   5   7
BRANCH   4  21
HETATM   21  O   UNK N   1      31.346  16.075   5.112  0.00  0.00    -0.388 OA
HETATM   22  H   UNK N   1      30.881  15.593   4.409  0.00  0.00     0.210 HD
ENDBRANCH   4  21
BRANCH   3  23
HETATM   23  O   UNK N   1      29.195  17.558   4.710  0.00  0.00    -0.390 OA
HETATM   24  H   UNK N   1      28.626  16.828   4.422  0.00  0.00     0.210 HD
ENDBRANCH   3  23
BRANCH   1  25
HETATM   25  C   UNK N   1      28.873  18.480   8.968  0.00  0.00     0.198 C 
BRANCH  25  26
HETATM   26  O   UNK N   1      27.556  18.334   9.407  0.00  0.00    -0.398 OA
HETATM   27  H   UNK N   1      27.216  17.516   9.804  0.00  0.00     0.209 HD
ENDBRANCH  25  26
ENDBRANCH   1  25
BRANCH   2  28
HETATM   28  O   UNK N   1      27.479  17.257   6.923  0.00  0.00    -0.390 OA
HETATM   29  H   UNK N   1      26.916  17.248   7.712  0.00  0.00     0.210 HD
ENDBRANCH   2  28
TORSDOF 11
ENDMDL
MODEL 2
REMARK VINA RESULT:      -6.5      9.476     11.941
REMARK  11 active torsions:
REMARK  status: ('A' for Active; 'I' for Inactive)
REMARK    1  A    between atoms: C_5  and  C_2 
REMARK    2  A    between atoms: O_13  and  C_2 
REMARK    3  A    between atoms: C_6  and  C_3 
REMARK    4  A    between atoms: O_14  and  C_3 
REMARK    5  A    between atoms: C_4  and  O_15 
REMARK    6  A    between atoms: C_7  and  O_16 
REMARK    7  A    between atoms: C_8  and  O_17 
REMARK    8  A    between atoms: C_9  and  O_18 
REMARK    9  A    between atoms: C_10  and  O_19 
REMARK   10  A    between atoms: C_11  and  O_22 
REMARK   11  A    between atoms: C_12  and  O_22 
ROOT
HETATM    1  C   UNK N   1      20.979  16.772   6.785  0.00  0.00     0.179 C 
HETATM    2  C   UNK N   1      20.126  15.526   6.359  0.00  0.00     0.180 C 
HETATM    3  C   UNK N   1      18.996  16.039   5.469  0.00  0.00     0.183 C 
HETATM    4  C   UNK N   1      19.611  16.685   4.194  0.00  0.00     0.204 C 
HETATM    5  C   UNK N   1      21.052  17.190   4.468  0.00  0.00     0.292 C 
HETATM    6  O   UNK N   1      21.100  17.770   5.758  0.00  0.00    -0.348 OA
ENDROOT
BRANCH   5   7
HETATM    7  O   UNK N   1      21.462  18.052   3.410  0.00  0.00    -0.348 OA
BRANCH   7   8
HETATM    8  C   UNK N   1      22.372  19.084   3.766  0.00  0.00     0.184 C 
HETATM    9  C   UNK N   1      23.847  18.608   3.766  0.00  0.00     0.154 C 
HETATM   10  C   UNK N   1      24.753  19.808   4.014  0.00  0.00     0.095 C 
HETATM   11  C   UNK N   1      24.475  20.912   2.993  0.00  0.00     0.260 C 
HETATM   12  O   UNK N   1      23.109  21.290   2.995  0.00  0.00    -0.351 OA
HETATM   13  C   UNK N   1      22.263  20.193   2.689  0.00  0.00     0.179 C 
BRANCH   9  14
HETATM   14  O   UNK N   1      24.097  17.663   4.759  0.00  0.00    -0.393 OA
HETATM   15  H   UNK N   1      23.432  16.992   4.980  0.00  0.00     0.210 HD
ENDBRANCH   9  14
BRANCH  11  16
HETATM   16  O   UNK N   1      24.892  20.530   1.713  0.00  0.00    -0.371 OA
HETATM   17  H   UNK N   1      24.903  19.873   0.999  0.00  0.00     0.212 HD
ENDBRANCH  11  16
BRANCH  13  18
HETATM   18  C   UNK N   1      20.829  20.702   2.597  0.00  0.00     0.198 C 
BRANCH  18  19
HETATM   19  O   UNK N   1      20.236  20.701   3.861  0.00  0.00    -0.398 OA
HETATM   20  H   UNK N   1      20.700  20.309   4.617  0.00  0.00     0.209 HD
ENDBRANCH  18  19
ENDBRANCH  13  18
ENDBRANCH   7   8
ENDBRANCH   5   7
BRANCH   4  21
HETATM   21  O   UNK N   1      19.668  15.764   3.144  0.00  0.00    -0.388 OA
HETATM   22  H   UNK N   1      20.233  15.068   2.772  0.00  0.00     0.210 HD
ENDBRANCH   4  21
BRANCH   3  23
HETATM   23  O   UNK N   1      18.091  15.028   5.133  0.00  0.00    -0.390 OA
HETATM   24  H   UNK N   1      18.350  14.274   4.581  0.00  0.00     0.210 HD
ENDBRANCH   3  23
BRANCH   1  25
HETATM   25  C   UNK N   1      20.333  17.459   7.988  0.00  0.00     0.198 C 
BRANCH  25  26
HETATM   26  O   UNK N   1      20.527  18.840   7.917  0.00  0.00    -0.398 OA
HETATM   27  H   UNK N   1      20.869  19.288   7.127  0.00  0.00     0.209 HD
ENDBRANCH  25  26
ENDBRANCH   1  25
BRANCH   2  28
HETATM   28  O   UNK N   1      19.642  14.836   7.476  0.00  0.00    -0.390 OA
HETATM   29  H   UNK N   1      20.053  14.002   7.754  0.00  0.00     0.210 HD
ENDBRANCH   2  28
TORSDOF 11
ENDMDL
MODEL 3
REMARK VINA RESULT:      -6.4     11.437     12.846
REMARK  11 active torsions:
REMARK  status: ('A' for Active; 'I' for Inactive)
REMARK    1  A    between atoms: C_5  and  C_2 
REMARK    2  A    between atoms: O_13  and  C_2 
REMARK    3  A    between atoms: C_6  and  C_3 
REMARK    4  A    between atoms: O_14  and  C_3 
REMARK    5  A    between atoms: C_4  and  O_15 
REMARK    6  A    between atoms: C_7  and  O_16 
REMARK    7  A    between atoms: C_8  and  O_17 
REMARK    8  A    between atoms: C_9  and  O_18 
REMARK    9  A    between atoms: C_10  and  O_19 
REMARK   10  A    between atoms: C_11  and  O_22 
REMARK   11  A    between atoms: C_12  and  O_22 
ROOT
HETATM    1  C   UNK N   1      21.105  19.520   3.744  0.00  0.00     0.179 C 
HETATM    2  C   UNK N   1      19.845  19.055   2.934  0.00  0.00     0.180 C 
HETATM    3  C   UNK N   1      20.194  17.712   2.294  0.00  0.00     0.183 C 
HETATM    4  C   UNK N   1      20.476  16.675   3.420  0.00  0.00     0.204 C 
HETATM    5  C   UNK N   1      20.947  17.381   4.719  0.00  0.00     0.292 C 
HETATM    6  O   UNK N   1      21.817  18.444   4.376  0.00  0.00    -0.348 OA
ENDROOT
BRANCH   5   7
HETATM    7  O   UNK N   1      21.504  16.417   5.608  0.00  0.00    -0.348 OA
BRANCH   7   8
HETATM    8  C   UNK N   1      21.041  16.468   6.950  0.00  0.00     0.184 C 
HETATM    9  C   UNK N   1      20.287  17.783   7.275  0.00  0.00     0.154 C 
HETATM   10  C   UNK N   1      19.707  17.685   8.680  0.00  0.00     0.095 C 
HETATM   11  C   UNK N   1      18.832  16.438   8.816  0.00  0.00     0.260 C 
HETATM   12  O   UNK N   1      19.545  15.262   8.472  0.00  0.00    -0.351 OA
HETATM   13  C   UNK N   1      20.024  15.314   7.136  0.00  0.00     0.179 C 
BRANCH   9  14
HETATM   14  O   UNK N   1      21.122  18.897   7.226  0.00  0.00    -0.393 OA
HETATM   15  H   UNK N   1      21.008  19.570   6.537  0.00  0.00     0.210 HD
ENDBRANCH   9  14
BRANCH  11  16
HETATM   16  O   UNK N   1      17.662  16.560   8.058  0.00  0.00    -0.371 OA
HETATM   17  H   UNK N   1      17.232  16.755   7.210  0.00  0.00     0.212 HD
ENDBRANCH  11  16
BRANCH  13  18
HETATM   18  C   UNK N   1      20.675  13.976   6.807  0.00  0.00     0.198 C 
BRANCH  18  19
HETATM   19  O   UNK N   1      20.542  13.699   5.445  0.00  0.00    -0.398 OA
HETATM   20  H   UNK N   1      20.444  12.783   5.141  0.00  0.00     0.209 HD
ENDBRANCH  18  19
ENDBRANCH  13  18
ENDBRANCH   7   8
ENDBRANCH   5   7
BRANCH   4  21
HETATM   21  O   UNK N   1      19.328  15.938   3.721  0.00  0.00    -0.388 OA
HETATM   22  H   UNK N   1      18.919  15.070   3.575  0.00  0.00     0.210 HD
ENDBRANCH   4  21
BRANCH   3  23
HETATM   23  O   UNK N   1      19.186  17.261   1.437  0.00  0.00    -0.390 OA
HETATM   24  H   UNK N   1      18.557  17.872   1.023  0.00  0.00     0.210 HD
ENDBRANCH   3  23
BRANCH   1  25
HETATM   25  C   UNK N   1      22.098  20.213   2.812  0.00  0.00     0.198 C 
BRANCH  25  26
HETATM   26  O   UNK N   1      21.828  21.581   2.749  0.00  0.00    -0.398 OA
HETATM   27  H   UNK N   1      22.085  22.139   1.998  0.00  0.00     0.209 HD
ENDBRANCH  25  26
ENDBRANCH   1  25
BRANCH   2  28
HETATM   28  O   UNK N   1      19.474  20.009   1.980  0.00  0.00    -0.390 OA
HETATM   29  H   UNK N   1      18.537  20.188   1.803  0.00  0.00     0.210 HD
ENDBRANCH   2  28
TORSDOF 11
ENDMDL
MODEL 4
REMARK VINA RESULT:      -6.0      2.576      5.184
REMARK  11 active torsions:
REMARK  status: ('A' for Active; 'I' for Inactive)
REMARK    1  A    between atoms: C_5  and  C_2 
REMARK    2  A    between atoms: O_13  and  C_2 
REMARK    3  A    between atoms: C_6  and  C_3 
REMARK    4  A    between atoms: O_14  and  C_3 
REMARK    5  A    between atoms: C_4  and  O_15 
REMARK    6  A    between atoms: C_7  and  O_16 
REMARK    7  A    between atoms: C_8  and  O_17 
REMARK    8  A    between atoms: C_9  and  O_18 
REMARK    9  A    between atoms: C_10  and  O_19 
REMARK   10  A    between atoms: C_11  and  O_22 
REMARK   11  A    between atoms: C_12  and  O_22 
ROOT
HETATM    1  C   UNK N   1      33.275  16.013   7.093  0.00  0.00     0.179 C 
HETATM    2  C   UNK N   1      34.323  17.179   7.078  0.00  0.00     0.180 C 
HETATM    3  C   UNK N   1      34.106  17.994   8.352  0.00  0.00     0.183 C 
HETATM    4  C   UNK N   1      34.383  17.086   9.586  0.00  0.00     0.204 C 
HETATM    5  C   UNK N   1      34.159  15.591   9.235  0.00  0.00     0.292 C 
HETATM    6  O   UNK N   1      33.020  15.479   8.402  0.00  0.00    -0.348 OA
ENDROOT
BRANCH   5   7
HETATM    7  O   UNK N   1      34.098  14.826  10.436  0.00  0.00    -0.348 OA
BRANCH   7   8
HETATM    8  C   UNK N   1      35.182  13.937  10.663  0.00  0.00     0.184 C 
HETATM    9  C   UNK N   1      35.833  14.128  12.057  0.00  0.00     0.154 C 
HETATM   10  C   UNK N   1      36.883  13.044  12.265  0.00  0.00     0.095 C 
HETATM   11  C   UNK N   1      36.269  11.657  12.071  0.00  0.00     0.260 C 
HETATM   12  O   UNK N   1      35.649  11.535  10.802  0.00  0.00    -0.351 OA
HETATM   13  C   UNK N   1      34.617  12.495  10.630  0.00  0.00     0.179 C 
BRANCH   9  14
HETATM   14  O   UNK N   1      36.459  15.368  12.182  0.00  0.00    -0.393 OA
HETATM   15  H   UNK N   1      37.383  15.484  11.910  0.00  0.00     0.210 HD
ENDBRANCH   9  14
BRANCH  11  16
HETATM   16  O   UNK N   1      35.373  11.355  13.103  0.00  0.00    -0.371 OA
HETATM   17  H   UNK N   1      34.460  11.300  13.427  0.00  0.00     0.212 HD
ENDBRANCH  11  16
BRANCH  13  18
HETATM   18  C   UNK N   1      33.927  12.226   9.298  0.00  0.00     0.198 C 
BRANCH  18  19
HETATM   19  O   UNK N   1      32.569  12.536   9.389  0.00  0.00    -0.398 OA
HETATM   20  H   UNK N   1      32.266  13.445   9.241  0.00  0.00     0.209 HD
ENDBRANCH  18  19
ENDBRANCH  13  18
ENDBRANCH   7   8
ENDBRANCH   5   7
BRANCH   4  21
HETATM   21  O   UNK N   1      35.701  17.232  10.028  0.00  0.00    -0.388 OA
HETATM   22  H   UNK N   1      36.408  16.751  10.486  0.00  0.00     0.210 HD
ENDBRANCH   4  21
BRANCH   3  23
HETATM   23  O   UNK N   1      34.902  19.142   8.385  0.00  0.00    -0.390 OA
HETATM   24  H   UNK N   1      34.537  20.010   8.615  0.00  0.00     0.210 HD
ENDBRANCH   3  23
BRANCH   1  25
HETATM   25  C   UNK N   1      31.934  16.510   6.555  0.00  0.00     0.198 C 
BRANCH  25  26
HETATM   26  O   UNK N   1      31.889  16.375   5.167  0.00  0.00    -0.398 OA
HETATM   27  H   UNK N   1      31.359  15.698   4.716  0.00  0.00     0.209 HD
ENDBRANCH  25  26
ENDBRANCH   1  25
BRANCH   2  28
HETATM   28  O   UNK N   1      34.194  17.964   5.926  0.00  0.00    -0.390 OA
HETATM   29  H   UNK N   1      33.351  18.395   5.719  0.00  0.00     0.210 HD
ENDBRANCH   2  28
TORSDOF 11
ENDMDL
MODEL 5
REMARK VINA RESULT:      -6.0      9.123     11.708
REMARK  11 active torsions:
REMARK  status: ('A' for Active; 'I' for Inactive)
REMARK    1  A    between atoms: C_5  and  C_2 
REMARK    2  A    between atoms: O_13  and  C_2 
REMARK    3  A    between atoms: C_6  and  C_3 
REMARK    4  A    between atoms: O_14  and  C_3 
REMARK    5  A    between atoms: C_4  and  O_15 
REMARK    6  A    between atoms: C_7  and  O_16 
REMARK    7  A    between atoms: C_8  and  O_17 
REMARK    8  A    between atoms: C_9  and  O_18 
REMARK    9  A    between atoms: C_10  and  O_19 
REMARK   10  A    between atoms: C_11  and  O_22 
REMARK   11  A    between atoms: C_12  and  O_22 
ROOT
HETATM    1  C   UNK N   1      22.117  19.293   4.003  0.00  0.00     0.179 C 
HETATM    2  C   UNK N   1      20.619  19.672   3.731  0.00  0.00     0.180 C 
HETATM    3  C   UNK N   1      20.058  18.623   2.773  0.00  0.00     0.183 C 
HETATM    4  C   UNK N   1      20.105  17.230   3.465  0.00  0.00     0.204 C 
HETATM    5  C   UNK N   1      21.216  17.186   4.547  0.00  0.00     0.292 C 
HETATM    6  O   UNK N   1      22.354  17.878   4.068  0.00  0.00    -0.348 OA
ENDROOT
BRANCH   5   7
HETATM    7  O   UNK N   1      21.456  15.834   4.927  0.00  0.00    -0.348 OA
BRANCH   7   8
HETATM    8  C   UNK N   1      21.522  15.582   6.324  0.00  0.00     0.184 C 
HETATM    9  C   UNK N   1      20.189  15.039   6.899  0.00  0.00     0.154 C 
HETATM   10  C   UNK N   1      20.397  14.665   8.361  0.00  0.00     0.095 C 
HETATM   11  C   UNK N   1      21.560  13.682   8.503  0.00  0.00     0.260 C 
HETATM   12  O   UNK N   1      22.750  14.196   7.929  0.00  0.00    -0.351 OA
HETATM   13  C   UNK N   1      22.585  14.477   6.548  0.00  0.00     0.179 C 
BRANCH   9  14
HETATM   14  O   UNK N   1      19.163  15.982   6.835  0.00  0.00    -0.393 OA
HETATM   15  H   UNK N   1      18.617  16.170   7.614  0.00  0.00     0.210 HD
ENDBRANCH   9  14
BRANCH  11  16
HETATM   16  O   UNK N   1      21.234  12.435   7.958  0.00  0.00    -0.371 OA
HETATM   17  H   UNK N   1      21.483  11.518   7.761  0.00  0.00     0.212 HD
ENDBRANCH  11  16
BRANCH  13  18
HETATM   18  C   UNK N   1      23.930  14.914   5.981  0.00  0.00     0.198 C 
BRANCH  18  19
HETATM   19  O   UNK N   1      24.095  16.292   6.140  0.00  0.00    -0.398 OA
HETATM   20  H   UNK N   1      23.687  16.907   5.512  0.00  0.00     0.209 HD
ENDBRANCH  18  19
ENDBRANCH  13  18
ENDBRANCH   7   8
ENDBRANCH   5   7
BRANCH   4  21
HETATM   21  O   UNK N   1      18.887  16.938   4.085  0.00  0.00    -0.388 OA
HETATM   22  H   UNK N   1      18.102  17.366   4.462  0.00  0.00     0.210 HD
ENDBRANCH   4  21
BRANCH   3  23
HETATM   23  O   UNK N   1      18.760  18.933   2.356  0.00  0.00    -0.390 OA
HETATM   24  H   UNK N   1      18.396  19.827   2.444  0.00  0.00     0.210 HD
ENDBRANCH   3  23
BRANCH   1  25
HETATM   25  C   UNK N   1      23.003  19.833   2.881  0.00  0.00     0.198 C 
BRANCH  25  26
HETATM   26  O   UNK N   1      23.200  21.206   3.039  0.00  0.00    -0.398 OA
HETATM   27  H   UNK N   1      23.161  21.652   3.900  0.00  0.00     0.209 HD
ENDBRANCH  25  26
ENDBRANCH   1  25
BRANCH   2  28
HETATM   28  O   UNK N   1      20.508  20.968   3.214  0.00  0.00    -0.390 OA
HETATM   29  H   UNK N   1      20.322  21.716   3.802  0.00  0.00     0.210 HD
ENDBRANCH   2  28
TORSDOF 11
ENDMDL
MODEL 6
REMARK VINA RESULT:      -6.0      2.099      6.904
REMARK  11 active torsions:
REMARK  status: ('A' for Active; 'I' for Inactive)
REMARK    1  A    between atoms: C_5  and  C_2 
REMARK    2  A    between atoms: O_13  and  C_2 
REMARK    3  A    between atoms: C_6  and  C_3 
REMARK    4  A    between atoms: O_14  and  C_3 
REMARK    5  A    between atoms: C_4  and  O_15 
REMARK    6  A    between atoms: C_7  and  O_16 
REMARK    7  A    between atoms: C_8  and  O_17 
REMARK    8  A    between atoms: C_9  and  O_18 
REMARK    9  A    between atoms: C_10  and  O_19 
REMARK   10  A    between atoms: C_11  and  O_22 
REMARK   11  A    between atoms: C_12  and  O_22 
ROOT
HETATM    1  C   UNK N   1      32.572  17.507   7.828  0.00  0.00     0.179 C 
HETATM    2  C   UNK N   1      33.417  17.516   6.506  0.00  0.00     0.180 C 
HETATM    3  C   UNK N   1      32.989  16.297   5.692  0.00  0.00     0.183 C 
HETATM    4  C   UNK N   1      31.483  16.439   5.325  0.00  0.00     0.204 C 
HETATM    5  C   UNK N   1      30.744  17.336   6.352  0.00  0.00     0.292 C 
HETATM    6  O   UNK N   1      31.225  17.042   7.651  0.00  0.00    -0.348 OA
ENDROOT
BRANCH   5   7
HETATM    7  O   UNK N   1      29.337  17.186   6.188  0.00  0.00    -0.348 OA
BRANCH   7   8
HETATM    8  C   UNK N   1      28.637  18.334   5.729  0.00  0.00     0.184 C 
HETATM    9  C   UNK N   1      27.860  18.077   4.413  0.00  0.00     0.154 C 
HETATM   10  C   UNK N   1      27.032  19.311   4.079  0.00  0.00     0.095 C 
HETATM   11  C   UNK N   1      26.125  19.683   5.252  0.00  0.00     0.260 C 
HETATM   12  O   UNK N   1      26.867  19.870   6.445  0.00  0.00    -0.351 OA
HETATM   13  C   UNK N   1      27.583  18.698   6.804  0.00  0.00     0.179 C 
BRANCH   9  14
HETATM   14  O   UNK N   1      28.711  17.822   3.339  0.00  0.00    -0.393 OA
HETATM   15  H   UNK N   1      29.616  17.506   3.490  0.00  0.00     0.210 HD
ENDBRANCH   9  14
BRANCH  11  16
HETATM   16  O   UNK N   1      25.115  18.731   5.429  0.00  0.00    -0.371 OA
HETATM   17  H   UNK N   1      24.564  18.020   5.065  0.00  0.00     0.212 HD
ENDBRANCH  11  16
BRANCH  13  18
HETATM   18  C   UNK N   1      28.259  18.940   8.149  0.00  0.00     0.198 C 
BRANCH  18  19
HETATM   19  O   UNK N   1      27.480  18.412   9.180  0.00  0.00    -0.398 OA
HETATM   20  H   UNK N   1      27.738  17.581   9.609  0.00  0.00     0.209 HD
ENDBRANCH  18  19
ENDBRANCH  13  18
ENDBRANCH   7   8
ENDBRANCH   5   7
BRANCH   4  21
HETATM   21  O   UNK N   1      31.328  17.013   4.060  0.00  0.00    -0.388 OA
HETATM   22  H   UNK N   1      31.647  17.750   3.514  0.00  0.00     0.210 HD
ENDBRANCH   4  21
BRANCH   3  23
HETATM   23  O   UNK N   1      33.771  16.129   4.546  0.00  0.00    -0.390 OA
HETATM   24  H   UNK N   1      34.725  16.307   4.548  0.00  0.00     0.210 HD
ENDBRANCH   3  23
BRANCH   1  25
HETATM   25  C   UNK N   1      33.222  16.582   8.856  0.00  0.00     0.198 C 
BRANCH  25  26
HETATM   26  O   UNK N   1      34.095  17.304   9.672  0.00  0.00    -0.398 OA
HETATM   27  H   UNK N   1      34.417  18.192   9.451  0.00  0.00     0.209 HD
ENDBRANCH  25  26
ENDBRANCH   1  25
BRANCH   2  28
HETATM   28  O   UNK N   1      34.790  17.507   6.781  0.00  0.00    -0.390 OA
HETATM   29  H   UNK N   1      35.388  16.940   6.270  0.00  0.00     0.210 HD
ENDBRANCH   2  28
TORSDOF 11
ENDMDL
MODEL 7
REMARK VINA RESULT:      -6.0      7.770     11.145
REMARK  11 active torsions:
REMARK  status: ('A' for Active; 'I' for Inactive)
REMARK    1  A    between atoms: C_5  and  C_2 
REMARK    2  A    between atoms: O_13  and  C_2 
REMARK    3  A    between atoms: C_6  and  C_3 
REMARK    4  A    between atoms: O_14  and  C_3 
REMARK    5  A    between atoms: C_4  and  O_15 
REMARK    6  A    between atoms: C_7  and  O_16 
REMARK    7  A    between atoms: C_8  and  O_17 
REMARK    8  A    between atoms: C_9  and  O_18 
REMARK    9  A    between atoms: C_10  and  O_19 
REMARK   10  A    between atoms: C_11  and  O_22 
REMARK   11  A    between atoms: C_12  and  O_22 
ROOT
HETATM    1  C   UNK N   1      20.928  16.488   2.398  0.00  0.00     0.179 C 
HETATM    2  C   UNK N   1      20.033  17.570   1.700  0.00  0.00     0.180 C 
HETATM    3  C   UNK N   1      19.516  18.500   2.796  0.00  0.00     0.183 C 
HETATM    4  C   UNK N   1      20.726  19.210   3.469  0.00  0.00     0.204 C 
HETATM    5  C   UNK N   1      22.017  18.360   3.325  0.00  0.00     0.292 C 
HETATM    6  O   UNK N   1      21.692  16.994   3.505  0.00  0.00    -0.348 OA
ENDROOT
BRANCH   5   7
HETATM    7  O   UNK N   1      23.014  18.858   4.213  0.00  0.00    -0.348 OA
BRANCH   7   8
HETATM    8  C   UNK N   1      24.314  19.016   3.662  0.00  0.00     0.184 C 
HETATM    9  C   UNK N   1      24.692  20.502   3.433  0.00  0.00     0.154 C 
HETATM   10  C   UNK N   1      26.145  20.578   2.981  0.00  0.00     0.095 C 
HETATM   11  C   UNK N   1      27.058  19.871   3.983  0.00  0.00     0.260 C 
HETATM   12  O   UNK N   1      26.656  18.528   4.196  0.00  0.00    -0.351 OA
HETATM   13  C   UNK N   1      25.327  18.453   4.690  0.00  0.00     0.179 C 
BRANCH   9  14
HETATM   14  O   UNK N   1      23.901  21.103   2.455  0.00  0.00    -0.393 OA
HETATM   15  H   UNK N   1      23.522  20.576   1.734  0.00  0.00     0.210 HD
ENDBRANCH   9  14
BRANCH  11  16
HETATM   16  O   UNK N   1      27.122  20.577   5.190  0.00  0.00    -0.371 OA
HETATM   17  H   UNK N   1      27.587  20.775   6.018  0.00  0.00     0.212 HD
ENDBRANCH  11  16
BRANCH  13  18
HETATM   18  C   UNK N   1      25.011  16.995   5.001  0.00  0.00     0.198 C 
BRANCH  18  19
HETATM   19  O   UNK N   1      23.919  16.913   5.867  0.00  0.00    -0.398 OA
HETATM   20  H   UNK N   1      23.174  17.527   5.770  0.00  0.00     0.209 HD
ENDBRANCH  18  19
ENDBRANCH  13  18
ENDBRANCH   7   8
ENDBRANCH   5   7
BRANCH   4  21
HETATM   21  O   UNK N   1      20.964  20.457   2.885  0.00  0.00    -0.388 OA
HETATM   22  H   UNK N   1      20.506  21.265   2.602  0.00  0.00     0.210 HD
ENDBRANCH   4  21
BRANCH   3  23
HETATM   23  O   UNK N   1      18.597  19.432   2.305  0.00  0.00    -0.390 OA
HETATM   24  H   UNK N   1      18.883  20.267   1.903  0.00  0.00     0.210 HD
ENDBRANCH   3  23
BRANCH   1  25
HETATM   25  C   UNK N   1      20.052  15.364   2.949  0.00  0.00     0.198 C 
BRANCH  25  26
HETATM   26  O   UNK N   1      19.856  14.383   1.976  0.00  0.00    -0.398 OA
HETATM   27  H   UNK N   1      20.276  13.509   2.010  0.00  0.00     0.209 HD
ENDBRANCH  25  26
ENDBRANCH   1  25
BRANCH   2  28
HETATM   28  O   UNK N   1      18.989  16.979   0.979  0.00  0.00    -0.390 OA
HETATM   29  H   UNK N   1      18.774  16.042   1.108  0.00  0.00     0.210 HD
ENDBRANCH   2  28
TORSDOF 11
ENDMDL
MODEL 8
REMARK VINA RESULT:      -6.0      2.578      6.806
REMARK  11 active torsions:
REMARK  status: ('A' for Active; 'I' for Inactive)
REMARK    1  A    between atoms: C_5  and  C_2 
REMARK    2  A    between atoms: O_13  and  C_2 
REMARK    3  A    between atoms: C_6  and  C_3 
REMARK    4  A    between atoms: O_14  and  C_3 
REMARK    5  A    between atoms: C_4  and  O_15 
REMARK    6  A    between atoms: C_7  and  O_16 
REMARK    7  A    between atoms: C_8  and  O_17 
REMARK    8  A    between atoms: C_9  and  O_18 
REMARK    9  A    between atoms: C_10  and  O_19 
REMARK   10  A    between atoms: C_11  and  O_22 
REMARK   11  A    between atoms: C_12  and  O_22 
ROOT
HETATM    1  C   UNK N   1      32.906  15.433   5.114  0.00  0.00     0.179 C 
HETATM    2  C   UNK N   1      33.892  16.029   6.178  0.00  0.00     0.180 C 
HETATM    3  C   UNK N   1      33.521  17.499   6.360  0.00  0.00     0.183 C 
HETATM    4  C   UNK N   1      32.070  17.589   6.916  0.00  0.00     0.204 C 
HETATM    5  C   UNK N   1      31.248  16.332   6.527  0.00  0.00     0.292 C 
HETATM    6  O   UNK N   1      31.573  15.962   5.199  0.00  0.00    -0.348 OA
ENDROOT
BRANCH   5   7
HETATM    7  O   UNK N   1      29.864  16.579   6.756  0.00  0.00    -0.348 OA
BRANCH   7   8
HETATM    8  C   UNK N   1      29.389  17.862   6.371  0.00  0.00     0.184 C 
HETATM    9  C   UNK N   1      28.847  17.889   4.919  0.00  0.00     0.154 C 
HETATM   10  C   UNK N   1      28.231  19.256   4.647  0.00  0.00     0.095 C 
HETATM   11  C   UNK N   1      27.167  19.585   5.695  0.00  0.00     0.260 C 
HETATM   12  O   UNK N   1      27.691  19.510   7.010  0.00  0.00    -0.351 OA
HETATM   13  C   UNK N   1      28.199  18.215   7.297  0.00  0.00     0.179 C 
BRANCH   9  14
HETATM   14  O   UNK N   1      29.849  17.669   3.976  0.00  0.00    -0.393 OA
HETATM   15  H   UNK N   1      29.794  18.070   3.094  0.00  0.00     0.210 HD
ENDBRANCH   9  14
BRANCH  11  16
HETATM   16  O   UNK N   1      26.047  18.760   5.550  0.00  0.00    -0.371 OA
HETATM   17  H   UNK N   1      25.665  17.869   5.505  0.00  0.00     0.212 HD
ENDBRANCH  11  16
BRANCH  13  18
HETATM   18  C   UNK N   1      28.635  18.182   8.757  0.00  0.00     0.198 C 
BRANCH  18  19
HETATM   19  O   UNK N   1      27.545  17.892   9.579  0.00  0.00    -0.398 OA
HETATM   20  H   UNK N   1      26.715  17.572   9.192  0.00  0.00     0.209 HD
ENDBRANCH  18  19
ENDBRANCH  13  18
ENDBRANCH   7   8
ENDBRANCH   5   7
BRANCH   4  21
HETATM   21  O   UNK N   1      32.074  17.686   8.311  0.00  0.00    -0.388 OA
HETATM   22  H   UNK N   1      31.539  18.009   9.053  0.00  0.00     0.210 HD
ENDBRANCH   4  21
BRANCH   3  23
HETATM   23  O   UNK N   1      34.421  18.169   7.194  0.00  0.00    -0.390 OA
HETATM   24  H   UNK N   1      34.593  17.872   8.101  0.00  0.00     0.210 HD
ENDBRANCH   3  23
BRANCH   1  25
HETATM   25  C   UNK N   1      33.410  15.743   3.705  0.00  0.00     0.198 C 
BRANCH  25  26
HETATM   26  O   UNK N   1      32.538  16.624   3.063  0.00  0.00    -0.398 OA
HETATM   27  H   UNK N   1      31.628  16.390   2.823  0.00  0.00     0.209 HD
ENDBRANCH  25  26
ENDBRANCH   1  25
BRANCH   2  28
HETATM   28  O   UNK N   1      35.225  15.869   5.781  0.00  0.00    -0.390 OA
HETATM   29  H   UNK N   1      35.783  16.645   5.616  0.00  0.00     0.210 HD
ENDBRANCH   2  28
TORSDOF 11
ENDMDL
MODEL 9
REMARK VINA RESULT:      -5.9     12.378     15.847
REMARK  11 active torsions:
REMARK  status: ('A' for Active; 'I' for Inactive)
REMARK    1  A    between atoms: C_5  and  C_2 
REMARK    2  A    between atoms: O_13  and  C_2 
REMARK    3  A    between atoms: C_6  and  C_3 
REMARK    4  A    between atoms: O_14  and  C_3 
REMARK    5  A    between atoms: C_4  and  O_15 
REMARK    6  A    between atoms: C_7  and  O_16 
REMARK    7  A    between atoms: C_8  and  O_17 
REMARK    8  A    between atoms: C_9  and  O_18 
REMARK    9  A    between atoms: C_10  and  O_19 
REMARK   10  A    between atoms: C_11  and  O_22 
REMARK   11  A    between atoms: C_12  and  O_22 
ROOT
HETATM    1  C   UNK N   1      30.294  21.526  -5.115  0.00  0.00     0.179 C 
HETATM    2  C   UNK N   1      30.852  20.845  -3.817  0.00  0.00     0.180 C 
HETATM    3  C   UNK N   1      31.807  21.843  -3.163  0.00  0.00     0.183 C 
HETATM    4  C   UNK N   1      31.008  23.115  -2.757  0.00  0.00     0.204 C 
HETATM    5  C   UNK N   1      29.749  23.286  -3.648  0.00  0.00     0.292 C 
HETATM    6  O   UNK N   1      30.076  22.940  -4.981  0.00  0.00    -0.348 OA
ENDROOT
BRANCH   5   7
HETATM    7  O   UNK N   1      29.226  24.601  -3.483  0.00  0.00    -0.348 OA
BRANCH   7   8
HETATM    8  C   UNK N   1      28.172  24.967  -4.363  0.00  0.00     0.184 C 
HETATM    9  C   UNK N   1      26.805  25.090  -3.642  0.00  0.00     0.154 C 
HETATM   10  C   UNK N   1      25.773  25.622  -4.628  0.00  0.00     0.095 C 
HETATM   11  C   UNK N   1      26.249  26.936  -5.247  0.00  0.00     0.260 C 
HETATM   12  O   UNK N   1      27.518  26.793  -5.861  0.00  0.00    -0.351 OA
HETATM   13  C   UNK N   1      28.503  26.370  -4.930  0.00  0.00     0.179 C 
BRANCH   9  14
HETATM   14  O   UNK N   1      26.351  23.864  -3.157  0.00  0.00    -0.393 OA
HETATM   15  H   UNK N   1      25.810  23.822  -2.353  0.00  0.00     0.210 HD
ENDBRANCH   9  14
BRANCH  11  16
HETATM   16  O   UNK N   1      26.259  27.965  -4.299  0.00  0.00    -0.371 OA
HETATM   17  H   UNK N   1      26.032  28.876  -4.051  0.00  0.00     0.212 HD
ENDBRANCH  11  16
BRANCH  13  18
HETATM   18  C   UNK N   1      29.854  26.350  -5.635  0.00  0.00     0.198 C 
BRANCH  18  19
HETATM   19  O   UNK N   1      29.929  25.259  -6.503  0.00  0.00    -0.398 OA
HETATM   20  H   UNK N   1      29.328  24.506  -6.392  0.00  0.00     0.209 HD
ENDBRANCH  18  19
ENDBRANCH  13  18
ENDBRANCH   7   8
ENDBRANCH   5   7
BRANCH   4  21
HETATM   21  O   UNK N   1      30.589  23.040  -1.426  0.00  0.00    -0.388 OA
HETATM   22  H   UNK N   1      30.382  23.599  -0.660  0.00  0.00     0.210 HD
ENDBRANCH   4  21
BRANCH   3  23
HETATM   23  O   UNK N   1      32.467  21.292  -2.060  0.00  0.00    -0.390 OA
HETATM   24  H   UNK N   1      32.326  20.372  -1.789  0.00  0.00     0.210 HD
ENDBRANCH   3  23
BRANCH   1  25
HETATM   25  C   UNK N   1      31.284  21.345  -6.265  0.00  0.00     0.198 C 
BRANCH  25  26
HETATM   26  O   UNK N   1      31.083  20.110  -6.885  0.00  0.00    -0.398 OA
HETATM   27  H   UNK N   1      30.945  19.285  -6.394  0.00  0.00     0.209 HD
ENDBRANCH  25  26
ENDBRANCH   1  25
BRANCH   2  28
HETATM   28  O   UNK N   1      31.483  19.631  -4.111  0.00  0.00    -0.390 OA
HETATM   29  H   UNK N   1      32.219  19.601  -4.741  0.00  0.00     0.210 HD
ENDBRANCH   2  28
TORSDOF 11
ENDMDL
