MODEL 1
REMARK VINA RESULT:      -6.0      0.000      0.000
REMARK  10 active torsions:
REMARK  status: ('A' for Active; 'I' for Inactive)
REMARK    1  A    between atoms: C_6  and  C_7 
REMARK    2  A    between atoms: C_7  and  O_8 
REMARK    3  A    between atoms: O_8  and  P_9 
REMARK    4  A    between atoms: P_9  and  O_10 
REMARK    5  A    between atoms: P_9  and  O_11 
REMARK    6  A    between atoms: C_13  and  C_14 
REMARK    7  A    between atoms: C_14  and  N_15 
REMARK    8  A    between atoms: N_15  and  C_16 
REMARK    9  A    between atoms: C_21  and  O_22 
REMARK   10  A    between atoms: C_23  and  O_24 
ROOT
HETATM    1  C   UNK N   1      32.754  15.927   3.429  0.00  0.00     0.071 C 
HETATM    2  C   UNK N   1      33.210  16.234   4.814  0.00  0.00     0.039 A 
HETATM    3  N   UNK N   1      34.426  15.788   5.227  0.00  0.00    -0.367 N 
ATOM      4  HN  UNK N   1      35.009  15.263   4.577  1.00  0.00     0.165 HD
HETATM    5  C   UNK N   1      34.882  16.023   6.484  0.00  0.00     0.098 A 
HETATM    6  C   UNK N   1      34.105  16.737   7.399  0.00  0.00    -0.008 A 
HETATM    7  C   UNK N   1      32.839  17.223   7.002  0.00  0.00     0.004 A 
HETATM    8  C   UNK N   1      32.393  16.964   5.693  0.00  0.00     0.096 A 
ENDROOT
BRANCH   7   9
HETATM    9  C   UNK N   1      31.937  17.965   7.958  0.00  0.00     0.162 C 
BRANCH   9  10
HETATM   10  N   UNK N   1      30.998  17.079   8.602  0.00  0.00    -0.381 N 
HETATM   11  H   UNK N   1      31.332  16.215   8.934  0.00  0.00     0.160 HD
BRANCH  10  12
HETATM   12  C   UNK N   1      29.627  17.378   8.786  0.00  0.00     0.106 A 
HETATM   13  C   UNK N   1      28.923  17.202   9.955  0.00  0.00     0.201 A 
HETATM   14  O   UNK N   1      27.681  17.579   9.713  0.00  0.00    -0.246 OA
HETATM   15  N   UNK N   1      27.530  17.983   8.482  0.00  0.00    -0.238 N 
HETATM   16  C   UNK N   1      28.725  17.869   7.881  0.00  0.00     0.189 A 
ATOM     17  HN  UNK N   1      26.668  18.323   8.057  1.00  0.00     0.197 HD
BRANCH  16  18
HETATM   18  O   UNK N   1      28.959  18.196   6.601  0.00  0.00    -0.343 OA
HETATM   19  H   UNK N   1      29.824  18.355   6.276  0.00  0.00     0.219 HD
ENDBRANCH  16  18
ENDBRANCH  10  12
ENDBRANCH   9  10
ENDBRANCH   7   9
BRANCH   6  20
HETATM   20  C   UNK N   1      34.642  16.944   8.780  0.00  0.00     0.221 C 
BRANCH  20  21
HETATM   21  O   UNK N   1      34.301  15.861   9.602  0.00  0.00    -0.292 OA
BRANCH  21  22
HETATM   22  P   UNK N   1      35.370  15.995  10.969  0.00  0.00     0.391 P 
HETATM   23  O   UNK N   1      35.546  17.407  10.351  0.00  0.00    -0.632 OA
BRANCH  22  24
HETATM   24  O   UNK N   1      37.096  16.074  10.819  0.00  0.00    -0.307 OA
HETATM   25  H   UNK N   1      37.653  16.616  10.238  0.00  0.00     0.222 HD
ENDBRANCH  22  24
BRANCH  22  26
HETATM   26  O   UNK N   1      35.984  14.850   9.816  0.00  0.00    -0.307 OA
HETATM   27  H   UNK N   1      35.632  14.043   9.406  0.00  0.00     0.222 HD
ENDBRANCH  22  26
ENDBRANCH  21  22
ENDBRANCH  20  21
ENDBRANCH   6  20
BRANCH   8  28
HETATM   28  O   UNK N   1      31.184  17.397   5.288  0.00  0.00    -0.358 OA
HETATM   29  H   UNK N   1      30.993  18.315   5.275  0.00  0.00     0.217 HD
ENDBRANCH   8  28
TORSDOF 10
ENDMDL
MODEL 2
REMARK VINA RESULT:      -5.9     14.148     16.298
REMARK  10 active torsions:
REMARK  status: ('A' for Active; 'I' for Inactive)
REMARK    1  A    between atoms: C_6  and  C_7 
REMARK    2  A    between atoms: C_7  and  O_8 
REMARK    3  A    between atoms: O_8  and  P_9 
REMARK    4  A    between atoms: P_9  and  O_10 
REMARK    5  A    between atoms: P_9  and  O_11 
REMARK    6  A    between atoms: C_13  and  C_14 
REMARK    7  A    between atoms: C_14  and  N_15 
REMARK    8  A    between atoms: N_15  and  C_16 
REMARK    9  A    between atoms: C_21  and  O_22 
REMARK   10  A    between atoms: C_23  and  O_24 
ROOT
HETATM    1  C   UNK N   1      26.629  28.833  -4.833  0.00  0.00     0.071 C 
HETATM    2  C   UNK N   1      27.136  27.435  -4.738  0.00  0.00     0.039 A 
HETATM    3  N   UNK N   1      28.450  27.222  -4.464  0.00  0.00    -0.367 N 
ATOM      4  HN  UNK N   1      29.062  28.024  -4.314  1.00  0.00     0.165 HD
HETATM    5  C   UNK N   1      28.969  25.970  -4.386  0.00  0.00     0.098 A 
HETATM    6  C   UNK N   1      28.157  24.852  -4.588  0.00  0.00    -0.008 A 
HETATM    7  C   UNK N   1      26.784  25.035  -4.868  0.00  0.00     0.004 A 
HETATM    8  C   UNK N   1      26.276  26.344  -4.943  0.00  0.00     0.096 A 
ENDROOT
BRANCH   7   9
HETATM    9  C   UNK N   1      25.866  23.867  -5.136  0.00  0.00     0.162 C 
BRANCH   9  10
HETATM   10  N   UNK N   1      25.508  23.779  -6.532  0.00  0.00    -0.381 N 
HETATM   11  H   UNK N   1      25.080  24.561  -6.949  0.00  0.00     0.160 HD
BRANCH  10  12
HETATM   12  C   UNK N   1      25.739  22.637  -7.336  0.00  0.00     0.106 A 
HETATM   13  C   UNK N   1      26.972  22.086  -7.600  0.00  0.00     0.201 A 
HETATM   14  O   UNK N   1      26.765  21.053  -8.397  0.00  0.00    -0.246 OA
HETATM   15  N   UNK N   1      25.498  20.896  -8.664  0.00  0.00    -0.238 N 
HETATM   16  C   UNK N   1      24.835  21.868  -8.017  0.00  0.00     0.189 A 
ATOM     17  HN  UNK N   1      25.088  20.171  -9.252  1.00  0.00     0.197 HD
BRANCH  16  18
HETATM   18  O   UNK N   1      23.503  22.027  -8.054  0.00  0.00    -0.343 OA
HETATM   19  H   UNK N   1      23.006  21.897  -8.838  0.00  0.00     0.219 HD
ENDBRANCH  16  18
ENDBRANCH  10  12
ENDBRANCH   9  10
ENDBRANCH   7   9
BRANCH   6  20
HETATM   20  C   UNK N   1      28.784  23.495  -4.520  0.00  0.00     0.221 C 
BRANCH  20  21
HETATM   21  O   UNK N   1      29.203  23.218  -3.212  0.00  0.00    -0.292 OA
BRANCH  21  22
HETATM   22  P   UNK N   1      30.885  22.802  -3.370  0.00  0.00     0.391 P 
HETATM   23  O   UNK N   1      30.248  21.395  -3.512  0.00  0.00    -0.632 OA
BRANCH  22  24
HETATM   24  O   UNK N   1      31.762  21.920  -2.160  0.00  0.00    -0.307 OA
HETATM   25  H   UNK N   1      31.571  21.065  -1.742  0.00  0.00     0.222 HD
ENDBRANCH  22  24
BRANCH  22  26
HETATM   26  O   UNK N   1      30.537  23.364  -1.763  0.00  0.00    -0.307 OA
HETATM   27  H   UNK N   1      30.985  23.957  -1.139  0.00  0.00     0.222 HD
ENDBRANCH  22  26
ENDBRANCH  21  22
ENDBRANCH  20  21
ENDBRANCH   6  20
BRANCH   8  28
HETATM   28  O   UNK N   1      24.975  26.553  -5.225  0.00  0.00    -0.358 OA
HETATM   29  H   UNK N   1      24.398  26.886  -4.565  0.00  0.00     0.217 HD
ENDBRANCH   8  28
TORSDOF 10
ENDMDL
MODEL 3
REMARK VINA RESULT:      -5.9      9.985     12.503
REMARK  10 active torsions:
REMARK  status: ('A' for Active; 'I' for Inactive)
REMARK    1  A    between atoms: C_6  and  C_7 
REMARK    2  A    between atoms: C_7  and  O_8 
REMARK    3  A    between atoms: O_8  and  P_9 
REMARK    4  A    between atoms: P_9  and  O_10 
REMARK    5  A    between atoms: P_9  and  O_11 
REMARK    6  A    between atoms: C_13  and  C_14 
REMARK    7  A    between atoms: C_14  and  N_15 
REMARK    8  A    between atoms: N_15  and  C_16 
REMARK    9  A    between atoms: C_21  and  O_22 
REMARK   10  A    between atoms: C_23  and  O_24 
ROOT
HETATM    1  C   UNK N   1      24.846  14.369   6.755  0.00  0.00     0.071 C 
HETATM    2  C   UNK N   1      23.916  15.460   6.351  0.00  0.00     0.039 A 
HETATM    3  N   UNK N   1      24.367  16.447   5.532  0.00  0.00    -0.367 N 
ATOM      4  HN  UNK N   1      25.330  16.414   5.198  1.00  0.00     0.165 HD
HETATM    5  C   UNK N   1      23.568  17.476   5.148  0.00  0.00     0.098 A 
HETATM    6  C   UNK N   1      22.246  17.551   5.590  0.00  0.00    -0.008 A 
HETATM    7  C   UNK N   1      21.741  16.538   6.437  0.00  0.00     0.004 A 
HETATM    8  C   UNK N   1      22.592  15.485   6.818  0.00  0.00     0.096 A 
ENDROOT
BRANCH   7   9
HETATM    9  C   UNK N   1      20.333  16.586   6.980  0.00  0.00     0.162 C 
BRANCH   9  10
HETATM   10  N   UNK N   1      20.307  17.024   8.355  0.00  0.00    -0.381 N 
HETATM   11  H   UNK N   1      21.150  17.007   8.861  0.00  0.00     0.160 HD
BRANCH  10  12
HETATM   12  C   UNK N   1      19.141  17.478   9.017  0.00  0.00     0.106 A 
HETATM   13  C   UNK N   1      17.906  16.873   8.957  0.00  0.00     0.201 A 
HETATM   14  O   UNK N   1      17.086  17.606   9.690  0.00  0.00    -0.246 OA
HETATM   15  N   UNK N   1      17.696  18.632  10.216  0.00  0.00    -0.238 N 
HETATM   16  C   UNK N   1      18.976  18.578   9.814  0.00  0.00     0.189 A 
ATOM     17  HN  UNK N   1      17.280  19.341  10.819  1.00  0.00     0.197 HD
BRANCH  16  18
HETATM   18  O   UNK N   1      19.914  19.473  10.161  0.00  0.00    -0.343 OA
HETATM   19  H   UNK N   1      20.072  20.250   9.661  0.00  0.00     0.219 HD
ENDBRANCH  16  18
ENDBRANCH  10  12
ENDBRANCH   9  10
ENDBRANCH   7   9
BRANCH   6  20
HETATM   20  C   UNK N   1      21.417  18.720   5.162  0.00  0.00     0.221 C 
BRANCH  20  21
HETATM   21  O   UNK N   1      20.754  18.433   3.961  0.00  0.00    -0.292 OA
BRANCH  21  22
HETATM   22  P   UNK N   1      21.251  19.697   2.873  0.00  0.00     0.391 P 
HETATM   23  O   UNK N   1      20.334  20.509   3.826  0.00  0.00    -0.632 OA
BRANCH  22  24
HETATM   24  O   UNK N   1      20.176  20.446   1.736  0.00  0.00    -0.307 OA
HETATM   25  H   UNK N   1      20.365  20.984   0.951  0.00  0.00     0.222 HD
ENDBRANCH  22  24
BRANCH  22  26
HETATM   26  O   UNK N   1      20.247  18.539   2.056  0.00  0.00    -0.307 OA
HETATM   27  H   UNK N   1      19.508  18.603   1.430  0.00  0.00     0.222 HD
ENDBRANCH  22  26
ENDBRANCH  21  22
ENDBRANCH  20  21
ENDBRANCH   6  20
BRANCH   8  28
HETATM   28  O   UNK N   1      22.147  14.514   7.638  0.00  0.00    -0.358 OA
HETATM   29  H   UNK N   1      21.901  14.719   8.519  0.00  0.00     0.217 HD
ENDBRANCH   8  28
TORSDOF 10
ENDMDL
MODEL 4
REMARK VINA RESULT:      -5.9     13.741     15.549
REMARK  10 active torsions:
REMARK  status: ('A' for Active; 'I' for Inactive)
REMARK    1  A    between atoms: C_6  and  C_7 
REMARK    2  A    between atoms: C_7  and  O_8 
REMARK    3  A    between atoms: O_8  and  P_9 
REMARK    4  A    between atoms: P_9  and  O_10 
REMARK    5  A    between atoms: P_9  and  O_11 
REMARK    6  A    between atoms: C_13  and  C_14 
REMARK    7  A    between atoms: C_14  and  N_15 
REMARK    8  A    between atoms: N_15  and  C_16 
REMARK    9  A    between atoms: C_21  and  O_22 
REMARK   10  A    between atoms: C_23  and  O_24 
ROOT
HETATM    1  C   UNK N   1      25.490  22.595  -8.024  0.00  0.00     0.071 C 
HETATM    2  C   UNK N   1      26.634  22.814  -7.094  0.00  0.00     0.039 A 
HETATM    3  N   UNK N   1      27.755  22.058  -7.232  0.00  0.00    -0.367 N 
ATOM      4  HN  UNK N   1      27.797  21.364  -7.977  1.00  0.00     0.165 HD
HETATM    5  C   UNK N   1      28.819  22.203  -6.401  0.00  0.00     0.098 A 
HETATM    6  C   UNK N   1      28.791  23.143  -5.369  0.00  0.00    -0.008 A 
HETATM    7  C   UNK N   1      27.644  23.952  -5.201  0.00  0.00     0.004 A 
HETATM    8  C   UNK N   1      26.557  23.779  -6.077  0.00  0.00     0.096 A 
ENDROOT
BRANCH   7   9
HETATM    9  C   UNK N   1      27.538  24.957  -4.079  0.00  0.00     0.162 C 
BRANCH   9  10
HETATM   10  N   UNK N   1      27.735  26.306  -4.552  0.00  0.00    -0.381 N 
HETATM   11  H   UNK N   1      28.384  26.451  -5.277  0.00  0.00     0.160 HD
BRANCH  10  12
HETATM   12  C   UNK N   1      27.050  27.432  -4.035  0.00  0.00     0.106 A 
HETATM   13  C   UNK N   1      27.560  28.319  -3.115  0.00  0.00     0.201 A 
HETATM   14  O   UNK N   1      26.613  29.210  -2.880  0.00  0.00    -0.246 OA
HETATM   15  N   UNK N   1      25.537  28.965  -3.575  0.00  0.00    -0.238 N 
HETATM   16  C   UNK N   1      25.780  27.864  -4.304  0.00  0.00     0.189 A 
ATOM     17  HN  UNK N   1      24.674  29.508  -3.568  1.00  0.00     0.197 HD
BRANCH  16  18
HETATM   18  O   UNK N   1      24.898  27.309  -5.148  0.00  0.00    -0.343 OA
HETATM   19  H   UNK N   1      24.326  26.613  -4.888  0.00  0.00     0.219 HD
ENDBRANCH  16  18
ENDBRANCH  10  12
ENDBRANCH   9  10
ENDBRANCH   7   9
BRANCH   6  20
HETATM   20  C   UNK N   1      29.977  23.243  -4.464  0.00  0.00     0.221 C 
BRANCH  20  21
HETATM   21  O   UNK N   1      30.192  22.024  -3.806  0.00  0.00    -0.292 OA
BRANCH  21  22
HETATM   22  P   UNK N   1      31.907  21.979  -3.517  0.00  0.00     0.391 P 
HETATM   23  O   UNK N   1      31.641  20.474  -3.785  0.00  0.00    -0.632 OA
BRANCH  22  24
HETATM   24  O   UNK N   1      32.611  21.262  -2.102  0.00  0.00    -0.307 OA
HETATM   25  H   UNK N   1      32.593  21.549  -1.176  0.00  0.00     0.222 HD
ENDBRANCH  22  24
BRANCH  22  26
HETATM   26  O   UNK N   1      31.048  22.401  -2.068  0.00  0.00    -0.307 OA
HETATM   27  H   UNK N   1      31.094  23.143  -1.443  0.00  0.00     0.222 HD
ENDBRANCH  22  26
ENDBRANCH  21  22
ENDBRANCH  20  21
ENDBRANCH   6  20
BRANCH   8  28
HETATM   28  O   UNK N   1      25.443  24.522  -5.933  0.00  0.00    -0.358 OA
HETATM   29  H   UNK N   1      25.262  25.219  -6.532  0.00  0.00     0.217 HD
ENDBRANCH   8  28
TORSDOF 10
ENDMDL
MODEL 5
REMARK VINA RESULT:      -5.9     14.264     17.144
REMARK  10 active torsions:
REMARK  status: ('A' for Active; 'I' for Inactive)
REMARK    1  A    between atoms: C_6  and  C_7 
REMARK    2  A    between atoms: C_7  and  O_8 
REMARK    3  A    between atoms: O_8  and  P_9 
REMARK    4  A    between atoms: P_9  and  O_10 
REMARK    5  A    between atoms: P_9  and  O_11 
REMARK    6  A    between atoms: C_13  and  C_14 
REMARK    7  A    between atoms: C_14  and  N_15 
REMARK    8  A    between atoms: N_15  and  C_16 
REMARK    9  A    between atoms: C_21  and  O_22 
REMARK   10  A    between atoms: C_23  and  O_24 
ROOT
HETATM    1  C   UNK N   1      27.375  28.862  -5.787  0.00  0.00     0.071 C 
HETATM    2  C   UNK N   1      27.054  27.408  -5.838  0.00  0.00     0.039 A 
HETATM    3  N   UNK N   1      26.182  26.952  -6.776  0.00  0.00    -0.367 N 
ATOM      4  HN  UNK N   1      25.774  27.613  -7.436  1.00  0.00     0.165 HD
HETATM    5  C   UNK N   1      25.840  25.641  -6.855  0.00  0.00     0.098 A 
HETATM    6  C   UNK N   1      26.380  24.712  -5.963  0.00  0.00    -0.008 A 
HETATM    7  C   UNK N   1      27.296  25.148  -4.979  0.00  0.00     0.004 A 
HETATM    8  C   UNK N   1      27.631  26.513  -4.922  0.00  0.00     0.096 A 
ENDROOT
BRANCH   7   9
HETATM    9  C   UNK N   1      27.882  24.199  -3.962  0.00  0.00     0.162 C 
BRANCH   9  10
HETATM   10  N   UNK N   1      29.300  24.018  -4.158  0.00  0.00    -0.381 N 
HETATM   11  H   UNK N   1      29.827  24.792  -4.460  0.00  0.00     0.160 HD
BRANCH  10  12
HETATM   12  C   UNK N   1      29.977  22.794  -3.940  0.00  0.00     0.106 A 
HETATM   13  C   UNK N   1      30.163  21.808  -4.882  0.00  0.00     0.201 A 
HETATM   14  O   UNK N   1      30.819  20.829  -4.286  0.00  0.00    -0.246 OA
HETATM   15  N   UNK N   1      31.070  21.107  -3.037  0.00  0.00    -0.238 N 
HETATM   16  C   UNK N   1      30.557  22.324  -2.793  0.00  0.00     0.189 A 
ATOM     17  HN  UNK N   1      31.563  20.513  -2.371  1.00  0.00     0.197 HD
BRANCH  16  18
HETATM   18  O   UNK N   1      30.625  22.946  -1.606  0.00  0.00    -0.343 OA
HETATM   19  H   UNK N   1      30.445  23.861  -1.511  0.00  0.00     0.219 HD
ENDBRANCH  16  18
ENDBRANCH  10  12
ENDBRANCH   9  10
ENDBRANCH   7   9
BRANCH   6  20
HETATM   20  C   UNK N   1      25.948  23.284  -6.074  0.00  0.00     0.221 C 
BRANCH  20  21
HETATM   21  O   UNK N   1      25.037  23.131  -7.127  0.00  0.00    -0.292 OA
BRANCH  21  22
HETATM   22  P   UNK N   1      25.478  21.622  -7.872  0.00  0.00     0.391 P 
HETATM   23  O   UNK N   1      26.320  22.601  -8.732  0.00  0.00    -0.632 OA
BRANCH  22  24
HETATM   24  O   UNK N   1      24.976  21.171  -9.471  0.00  0.00    -0.307 OA
HETATM   25  H   UNK N   1      24.088  21.030  -9.836  0.00  0.00     0.222 HD
ENDBRANCH  22  24
BRANCH  22  26
HETATM   26  O   UNK N   1      23.806  21.989  -8.165  0.00  0.00    -0.307 OA
HETATM   27  H   UNK N   1      23.035  21.469  -8.445  0.00  0.00     0.222 HD
ENDBRANCH  22  26
ENDBRANCH  21  22
ENDBRANCH  20  21
ENDBRANCH   6  20
BRANCH   8  28
HETATM   28  O   UNK N   1      28.488  26.964  -3.985  0.00  0.00    -0.358 OA
HETATM   29  H   UNK N   1      29.355  27.225  -4.228  0.00  0.00     0.217 HD
ENDBRANCH   8  28
TORSDOF 10
ENDMDL
MODEL 6
REMARK VINA RESULT:      -5.9      2.858      5.551
REMARK  10 active torsions:
REMARK  status: ('A' for Active; 'I' for Inactive)
REMARK    1  A    between atoms: C_6  and  C_7 
REMARK    2  A    between atoms: C_7  and  O_8 
REMARK    3  A    between atoms: O_8  and  P_9 
REMARK    4  A    between atoms: P_9  and  O_10 
REMARK    5  A    between atoms: P_9  and  O_11 
REMARK    6  A    between atoms: C_13  and  C_14 
REMARK    7  A    between atoms: C_14  and  N_15 
REMARK    8  A    between atoms: N_15  and  C_16 
REMARK    9  A    between atoms: C_21  and  O_22 
REMARK   10  A    between atoms: C_23  and  O_24 
ROOT
HETATM    1  C   UNK N   1      32.030  13.404   2.741  0.00  0.00     0.071 C 
HETATM    2  C   UNK N   1      31.669  14.353   3.832  0.00  0.00     0.039 A 
HETATM    3  N   UNK N   1      30.494  14.186   4.495  0.00  0.00    -0.367 N 
ATOM      4  HN  UNK N   1      29.888  13.407   4.242  1.00  0.00     0.165 HD
HETATM    5  C   UNK N   1      30.107  15.032   5.484  0.00  0.00     0.098 A 
HETATM    6  C   UNK N   1      30.914  16.111   5.851  0.00  0.00    -0.008 A 
HETATM    7  C   UNK N   1      32.146  16.311   5.188  0.00  0.00     0.004 A 
HETATM    8  C   UNK N   1      32.520  15.418   4.168  0.00  0.00     0.096 A 
ENDROOT
BRANCH   7   9
HETATM    9  C   UNK N   1      33.043  17.481   5.513  0.00  0.00     0.162 C 
BRANCH   9  10
HETATM   10  N   UNK N   1      34.219  17.066   6.239  0.00  0.00    -0.381 N 
HETATM   11  H   UNK N   1      35.033  16.867   5.724  0.00  0.00     0.160 HD
BRANCH  10  12
HETATM   12  C   UNK N   1      34.271  16.930   7.647  0.00  0.00     0.106 A 
HETATM   13  C   UNK N   1      33.932  15.797   8.350  0.00  0.00     0.201 A 
HETATM   14  O   UNK N   1      34.098  16.078   9.630  0.00  0.00    -0.246 OA
HETATM   15  N   UNK N   1      34.517  17.301   9.805  0.00  0.00    -0.238 N 
HETATM   16  C   UNK N   1      34.633  17.856   8.588  0.00  0.00     0.189 A 
ATOM     17  HN  UNK N   1      34.719  17.750  10.698  1.00  0.00     0.197 HD
BRANCH  16  18
HETATM   18  O   UNK N   1      35.044  19.114   8.369  0.00  0.00    -0.343 OA
HETATM   19  H   UNK N   1      34.462  19.785   8.071  0.00  0.00     0.219 HD
ENDBRANCH  16  18
ENDBRANCH  10  12
ENDBRANCH   9  10
ENDBRANCH   7   9
BRANCH   6  20
HETATM   20  C   UNK N   1      30.429  17.030   6.927  0.00  0.00     0.221 C 
BRANCH  20  21
HETATM   21  O   UNK N   1      29.072  16.798   7.190  0.00  0.00    -0.292 OA
BRANCH  21  22
HETATM   22  P   UNK N   1      28.551  18.203   8.074  0.00  0.00     0.391 P 
HETATM   23  O   UNK N   1      29.463  17.540   9.139  0.00  0.00    -0.632 OA
BRANCH  22  24
HETATM   24  O   UNK N   1      27.470  18.124   9.428  0.00  0.00    -0.307 OA
HETATM   25  H   UNK N   1      26.500  18.125   9.461  0.00  0.00     0.222 HD
ENDBRANCH  22  24
BRANCH  22  26
HETATM   26  O   UNK N   1      27.220  17.123   7.792  0.00  0.00    -0.307 OA
HETATM   27  H   UNK N   1      26.999  16.485   7.095  0.00  0.00     0.222 HD
ENDBRANCH  22  26
ENDBRANCH  21  22
ENDBRANCH  20  21
ENDBRANCH   6  20
BRANCH   8  28
HETATM   28  O   UNK N   1      33.680  15.590   3.504  0.00  0.00    -0.358 OA
HETATM   29  H   UNK N   1      33.685  16.011   2.667  0.00  0.00     0.217 HD
ENDBRANCH   8  28
TORSDOF 10
ENDMDL
MODEL 7
REMARK VINA RESULT:      -5.8      9.219     12.588
REMARK  10 active torsions:
REMARK  status: ('A' for Active; 'I' for Inactive)
REMARK    1  A    between atoms: C_6  and  C_7 
REMARK    2  A    between atoms: C_7  and  O_8 
REMARK    3  A    between atoms: O_8  and  P_9 
REMARK    4  A    between atoms: P_9  and  O_10 
REMARK    5  A    between atoms: P_9  and  O_11 
REMARK    6  A    between atoms: C_13  and  C_14 
REMARK    7  A    between atoms: C_14  and  N_15 
REMARK    8  A    between atoms: N_15  and  C_16 
REMARK    9  A    between atoms: C_21  and  O_22 
REMARK   10  A    between atoms: C_23  and  O_24 
ROOT
HETATM    1  C   UNK N   1      26.481  18.035   4.838  0.00  0.00     0.071 C 
HETATM    2  C   UNK N   1      25.244  17.349   4.369  0.00  0.00     0.039 A 
HETATM    3  N   UNK N   1      25.348  16.333   3.472  0.00  0.00    -0.367 N 
ATOM      4  HN  UNK N   1      26.272  16.050   3.147  1.00  0.00     0.165 HD
HETATM    5  C   UNK N   1      24.253  15.686   2.997  0.00  0.00     0.098 A 
HETATM    6  C   UNK N   1      22.974  16.052   3.420  0.00  0.00    -0.008 A 
HETATM    7  C   UNK N   1      22.828  17.100   4.358  0.00  0.00     0.004 A 
HETATM    8  C   UNK N   1      23.981  17.750   4.832  0.00  0.00     0.096 A 
ENDROOT
BRANCH   7   9
HETATM    9  C   UNK N   1      21.470  17.567   4.822  0.00  0.00     0.162 C 
BRANCH   9  10
HETATM   10  N   UNK N   1      21.255  18.962   4.522  0.00  0.00    -0.381 N 
HETATM   11  H   UNK N   1      21.171  19.589   5.276  0.00  0.00     0.160 HD
BRANCH  10  12
HETATM   12  C   UNK N   1      21.158  19.481   3.209  0.00  0.00     0.106 A 
HETATM   13  C   UNK N   1      22.033  20.379   2.641  0.00  0.00     0.201 A 
HETATM   14  O   UNK N   1      21.589  20.626   1.422  0.00  0.00    -0.246 OA
HETATM   15  N   UNK N   1      20.500  19.958   1.160  0.00  0.00    -0.238 N 
HETATM   16  C   UNK N   1      20.208  19.237   2.255  0.00  0.00     0.189 A 
ATOM     17  HN  UNK N   1      19.971  19.979   0.289  1.00  0.00     0.197 HD
BRANCH  16  18
HETATM   18  O   UNK N   1      19.150  18.418   2.358  0.00  0.00    -0.343 OA
HETATM   19  H   UNK N   1      18.873  17.868   1.652  0.00  0.00     0.219 HD
ENDBRANCH  16  18
ENDBRANCH  10  12
ENDBRANCH   9  10
ENDBRANCH   7   9
BRANCH   6  20
HETATM   20  C   UNK N   1      21.798  15.328   2.844  0.00  0.00     0.221 C 
BRANCH  20  21
HETATM   21  O   UNK N   1      21.050  16.186   2.028  0.00  0.00    -0.292 OA
BRANCH  21  22
HETATM   22  P   UNK N   1      20.225  15.129   0.920  0.00  0.00     0.391 P 
HETATM   23  O   UNK N   1      20.179  16.452   0.111  0.00  0.00    -0.632 OA
BRANCH  22  24
HETATM   24  O   UNK N   1      18.528  15.248   0.580  0.00  0.00    -0.307 OA
HETATM   25  H   UNK N   1      17.816  14.599   0.694  0.00  0.00     0.222 HD
ENDBRANCH  22  24
BRANCH  22  26
HETATM   26  O   UNK N   1      19.282  15.372   2.357  0.00  0.00    -0.307 OA
HETATM   27  H   UNK N   1      18.672  14.819   2.871  0.00  0.00     0.222 HD
ENDBRANCH  22  26
ENDBRANCH  21  22
ENDBRANCH  20  21
ENDBRANCH   6  20
BRANCH   8  28
HETATM   28  O   UNK N   1      23.876  18.764   5.713  0.00  0.00    -0.358 OA
HETATM   29  H   UNK N   1      23.288  19.475   5.545  0.00  0.00     0.217 HD
ENDBRANCH   8  28
TORSDOF 10
ENDMDL
MODEL 8
REMARK VINA RESULT:      -5.8      2.661      5.550
REMARK  10 active torsions:
REMARK  status: ('A' for Active; 'I' for Inactive)
REMARK    1  A    between atoms: C_6  and  C_7 
REMARK    2  A    between atoms: C_7  and  O_8 
REMARK    3  A    between atoms: O_8  and  P_9 
REMARK    4  A    between atoms: P_9  and  O_10 
REMARK    5  A    between atoms: P_9  and  O_11 
REMARK    6  A    between atoms: C_13  and  C_14 
REMARK    7  A    between atoms: C_14  and  N_15 
REMARK    8  A    between atoms: N_15  and  C_16 
REMARK    9  A    between atoms: C_21  and  O_22 
REMARK   10  A    between atoms: C_23  and  O_24 
ROOT
HETATM    1  C   UNK N   1      27.005  20.420   6.889  0.00  0.00     0.071 C 
HETATM    2  C   UNK N   1      27.978  19.320   6.634  0.00  0.00     0.039 A 
HETATM    3  N   UNK N   1      28.200  18.914   5.357  0.00  0.00    -0.367 N 
ATOM      4  HN  UNK N   1      27.707  19.378   4.595  1.00  0.00     0.165 HD
HETATM    5  C   UNK N   1      29.061  17.904   5.069  0.00  0.00     0.098 A 
HETATM    6  C   UNK N   1      29.750  17.246   6.090  0.00  0.00    -0.008 A 
HETATM    7  C   UNK N   1      29.549  17.647   7.430  0.00  0.00     0.004 A 
HETATM    8  C   UNK N   1      28.651  18.696   7.697  0.00  0.00     0.096 A 
ENDROOT
BRANCH   7   9
HETATM    9  C   UNK N   1      30.234  16.948   8.580  0.00  0.00     0.162 C 
BRANCH   9  10
HETATM   10  N   UNK N   1      31.403  17.669   9.021  0.00  0.00    -0.381 N 
HETATM   11  H   UNK N   1      31.292  18.340   9.732  0.00  0.00     0.160 HD
BRANCH  10  12
HETATM   12  C   UNK N   1      32.701  17.467   8.491  0.00  0.00     0.106 A 
HETATM   13  C   UNK N   1      33.451  18.419   7.839  0.00  0.00     0.201 A 
HETATM   14  O   UNK N   1      34.583  17.838   7.487  0.00  0.00    -0.246 OA
HETATM   15  N   UNK N   1      34.622  16.589   7.863  0.00  0.00    -0.238 N 
HETATM   16  C   UNK N   1      33.463  16.330   8.490  0.00  0.00     0.189 A 
ATOM     17  HN  UNK N   1      35.387  15.933   7.709  1.00  0.00     0.197 HD
BRANCH  16  18
HETATM   18  O   UNK N   1      33.142  15.140   9.019  0.00  0.00    -0.343 OA
HETATM   19  H   UNK N   1      32.264  14.924   9.266  0.00  0.00     0.219 HD
ENDBRANCH  16  18
ENDBRANCH  10  12
ENDBRANCH   9  10
ENDBRANCH   7   9
BRANCH   6  20
HETATM   20  C   UNK N   1      30.664  16.121   5.722  0.00  0.00     0.221 C 
BRANCH  20  21
HETATM   21  O   UNK N   1      31.880  16.621   5.236  0.00  0.00    -0.292 OA
BRANCH  21  22
HETATM   22  P   UNK N   1      32.764  15.209   4.733  0.00  0.00     0.391 P 
HETATM   23  O   UNK N   1      32.318  14.756   6.148  0.00  0.00    -0.632 OA
BRANCH  22  24
HETATM   24  O   UNK N   1      34.286  14.748   5.426  0.00  0.00    -0.307 OA
HETATM   25  H   UNK N   1      35.182  15.079   5.255  0.00  0.00     0.222 HD
ENDBRANCH  22  24
BRANCH  22  26
HETATM   26  O   UNK N   1      33.831  16.564   4.940  0.00  0.00    -0.307 OA
HETATM   27  H   UNK N   1      34.440  17.045   4.357  0.00  0.00     0.222 HD
ENDBRANCH  22  26
ENDBRANCH  21  22
ENDBRANCH  20  21
ENDBRANCH   6  20
BRANCH   8  28
HETATM   28  O   UNK N   1      28.424  19.091   8.965  0.00  0.00    -0.358 OA
HETATM   29  H   UNK N   1      29.124  19.098   9.588  0.00  0.00     0.217 HD
ENDBRANCH   8  28
TORSDOF 10
ENDMDL
MODEL 9
REMARK VINA RESULT:      -5.7     12.229     13.945
REMARK  10 active torsions:
REMARK  status: ('A' for Active; 'I' for Inactive)
REMARK    1  A    between atoms: C_6  and  C_7 
REMARK    2  A    between atoms: C_7  and  O_8 
REMARK    3  A    between atoms: O_8  and  P_9 
REMARK    4  A    between atoms: P_9  and  O_10 
REMARK    5  A    between atoms: P_9  and  O_11 
REMARK    6  A    between atoms: C_13  and  C_14 
REMARK    7  A    between atoms: C_14  and  N_15 
REMARK    8  A    between atoms: N_15  and  C_16 
REMARK    9  A    between atoms: C_21  and  O_22 
REMARK   10  A    between atoms: C_23  and  O_24 
ROOT
HETATM    1  C   UNK N   1      20.669  13.245   6.426  0.00  0.00     0.071 C 
HETATM    2  C   UNK N   1      20.523  14.469   5.588  0.00  0.00     0.039 A 
HETATM    3  N   UNK N   1      19.600  15.405   5.936  0.00  0.00    -0.367 N 
ATOM      4  HN  UNK N   1      19.035  15.258   6.772  1.00  0.00     0.165 HD
HETATM    5  C   UNK N   1      19.412  16.529   5.199  0.00  0.00     0.098 A 
HETATM    6  C   UNK N   1      20.169  16.758   4.048  0.00  0.00    -0.008 A 
HETATM    7  C   UNK N   1      21.142  15.810   3.660  0.00  0.00     0.004 A 
HETATM    8  C   UNK N   1      21.315  14.655   4.444  0.00  0.00     0.096 A 
ENDROOT
BRANCH   7   9
HETATM    9  C   UNK N   1      21.962  15.981   2.404  0.00  0.00     0.162 C 
BRANCH   9  10
HETATM   10  N   UNK N   1      21.473  15.151   1.330  0.00  0.00    -0.381 N 
HETATM   11  H   UNK N   1      22.070  14.454   0.976  0.00  0.00     0.160 HD
BRANCH  10  12
HETATM   12  C   UNK N   1      20.185  15.279   0.757  0.00  0.00     0.106 A 
HETATM   13  C   UNK N   1      19.214  14.304   0.755  0.00  0.00     0.201 A 
HETATM   14  O   UNK N   1      18.174  14.803   0.112  0.00  0.00    -0.246 OA
HETATM   15  N   UNK N   1      18.399  16.020  -0.299  0.00  0.00    -0.238 N 
HETATM   16  C   UNK N   1      19.643  16.343   0.088  0.00  0.00     0.189 A 
ATOM     17  HN  UNK N   1      17.752  16.615  -0.816  1.00  0.00     0.197 HD
BRANCH  16  18
HETATM   18  O   UNK N   1      20.225  17.527  -0.157  0.00  0.00    -0.343 OA
HETATM   19  H   UNK N   1      20.884  17.633  -0.815  0.00  0.00     0.219 HD
ENDBRANCH  16  18
ENDBRANCH  10  12
ENDBRANCH   9  10
ENDBRANCH   7   9
BRANCH   6  20
HETATM   20  C   UNK N   1      19.902  17.998   3.255  0.00  0.00     0.221 C 
BRANCH  20  21
HETATM   21  O   UNK N   1      20.497  19.107   3.870  0.00  0.00    -0.292 OA
BRANCH  21  22
HETATM   22  P   UNK N   1      21.030  20.107   2.550  0.00  0.00     0.391 P 
HETATM   23  O   UNK N   1      22.403  19.675   3.129  0.00  0.00    -0.632 OA
BRANCH  22  24
HETATM   24  O   UNK N   1      21.791  21.650   2.776  0.00  0.00    -0.307 OA
HETATM   25  H   UNK N   1      22.724  21.877   2.916  0.00  0.00     0.222 HD
ENDBRANCH  22  24
BRANCH  22  26
HETATM   26  O   UNK N   1      20.236  21.061   3.765  0.00  0.00    -0.307 OA
HETATM   27  H   UNK N   1      20.385  21.216   4.712  0.00  0.00     0.222 HD
ENDBRANCH  22  26
ENDBRANCH  21  22
ENDBRANCH  20  21
ENDBRANCH   6  20
BRANCH   8  28
HETATM   28  O   UNK N   1      22.222  13.723   4.092  0.00  0.00    -0.358 OA
HETATM   29  H   UNK N   1      22.708  13.266   4.751  0.00  0.00     0.217 HD
ENDBRANCH   8  28
TORSDOF 10
ENDMDL
