MODEL 1
REMARK VINA RESULT:      -8.0      0.000      0.000
REMARK  21 active torsions:
REMARK  status: ('A' for Active; 'I' for Inactive)
REMARK    1  A    between atoms: C_21  and  C_19 
REMARK    2  A    between atoms: C_31  and  C_19 
REMARK    3  A    between atoms: C_22  and  C_20 
REMARK    4  A    between atoms: C_42  and  C_20 
REMARK    5  A    between atoms: N_49  and  C_21 
REMARK    6  A    between atoms: N_50  and  C_22 
REMARK    7  A    between atoms: C_30  and  C_23 
REMARK    8  A    between atoms: C_36  and  C_23 
REMARK    9  A    between atoms: C_37  and  C_27 
REMARK   10  A    between atoms: N_49  and  C_27 
REMARK   11  A    between atoms: C_32  and  C_28 
REMARK   12  A    between atoms: O_58  and  C_28 
REMARK   13  A    between atoms: C_44  and  C_33 
REMARK   14  A    between atoms: C_37  and  C_36 
REMARK   15  A    between atoms: C_36  and  N_47 
REMARK   16  A    between atoms: C_37  and  O_51 
REMARK   17  A    between atoms: O_56  and  C_40 
REMARK   18  A    between atoms: O_57  and  C_41 
REMARK       I    between atoms: N_49  and  C_42 
REMARK   19  A    between atoms: O_58  and  C_43 
REMARK   20  A    between atoms: N_47  and  C_44 
REMARK   21  A    between atoms: C_44  and  O_53 
ROOT
HETATM    1  C   UNK N   1      34.729  15.726   9.475  0.00  0.00     0.118 C 
ENDROOT
BRANCH   1   2
HETATM    2  C   UNK N   1      33.570  14.869   8.956  0.00  0.00     0.066 C 
BRANCH   2   3
HETATM    3  C   UNK N   1      33.740  14.318   7.570  0.00  0.00    -0.056 A 
HETATM    4  C   UNK N   1      34.905  14.640   6.865  0.00  0.00     0.007 A 
HETATM    5  C   UNK N   1      35.088  14.183   5.558  0.00  0.00     0.001 A 
HETATM    6  C   UNK N   1      34.104  13.401   4.946  0.00  0.00     0.000 A 
HETATM    7  C   UNK N   1      32.938  13.075   5.643  0.00  0.00     0.001 A 
HETATM    8  C   UNK N   1      32.754  13.535   6.950  0.00  0.00     0.007 A 
ENDBRANCH   2   3
ENDBRANCH   1   2
BRANCH   1   9
HETATM    9  C   UNK N   1      35.021  15.287  10.913  0.00  0.00     0.159 C 
BRANCH   9  10
HETATM   10  C   UNK N   1      36.486  14.773  10.964  0.00  0.00     0.159 C 
BRANCH  10  11
HETATM   11  N   UNK N   1      36.619  13.474  11.544  0.00  0.00    -0.350 N 
HETATM   12  C   UNK N   1      36.402  13.355  12.886  0.00  0.00     0.221 C 
HETATM   13  O   UNK N   1      36.107  14.341  13.547  0.00  0.00    -0.273 OA
BRANCH  11  14
HETATM   14  C   UNK N   1      37.060  12.377  10.688  0.00  0.00     0.126 C 
BRANCH  14  15
HETATM   15  C   UNK N   1      36.205  12.386   9.419  0.00  0.00     0.024 C 
BRANCH  15  16
HETATM   16  C   UNK N   1      35.448  11.152   8.927  0.00  0.00    -0.010 C 
HETATM   17  C   UNK N   1      35.416  10.914   7.402  0.00  0.00     0.007 C 
HETATM   18  C   UNK N   1      34.581   9.652   7.023  0.00  0.00     0.035 C 
HETATM   19  C   UNK N   1      33.635   9.220   8.159  0.00  0.00     0.153 C 
HETATM   20  C   UNK N   1      32.987  10.433   8.722  0.00  0.00     0.153 C 
HETATM   21  O   UNK N   1      32.553   8.446   7.768  0.00  0.00    -0.359 OA
HETATM   22  C   UNK N   1      34.015  11.252   9.512  0.00  0.00     0.039 C 
HETATM   23  O   UNK N   1      31.957   9.916   9.491  0.00  0.00    -0.359 OA
HETATM   24  C   UNK N   1      31.589   8.751   8.767  0.00  0.00     0.339 C 
ENDBRANCH  15  16
ENDBRANCH  14  15
ENDBRANCH  11  14
BRANCH  12  25
HETATM   25  C   UNK N   1      36.540  12.068  13.596  0.00  0.00     0.123 C 
BRANCH  25  26
HETATM   26  C   UNK N   1      35.206  11.581  14.129  0.00  0.00     0.145 C 
BRANCH  26  27
HETATM   27  N   UNK N   1      35.324  11.474  15.560  0.00  0.00    -0.279 N 
HETATM   28  C   UNK N   1      34.908  12.408  16.444  0.00  0.00     0.261 A 
HETATM   29  C   UNK N   1      35.278  11.992  17.787  0.00  0.00     0.048 A 
HETATM   30  O   UNK N   1      34.344  13.447  16.140  0.00  0.00    -0.267 OA
HETATM   31  C   UNK N   1      35.116  12.612  19.018  0.00  0.00     0.018 A 
HETATM   32  C   UNK N   1      35.908  10.773  17.659  0.00  0.00     0.048 A 
HETATM   33  C   UNK N   1      35.620  11.951  20.150  0.00  0.00     0.001 A 
HETATM   34  C   UNK N   1      36.268  10.700  20.022  0.00  0.00     0.001 A 
HETATM   35  C   UNK N   1      36.418  10.096  18.759  0.00  0.00     0.018 A 
HETATM   36  C   UNK N   1      35.910  10.461  16.232  0.00  0.00     0.261 A 
HETATM   37  O   UNK N   1      36.372   9.459  15.713  0.00  0.00    -0.267 OA
ENDBRANCH  26  27
ENDBRANCH  25  26
ENDBRANCH  12  25
ENDBRANCH  10  11
ENDBRANCH   9  10
BRANCH   9  38
HETATM   38  O   UNK N   1      34.139  14.257  11.236  0.00  0.00    -0.392 OA
HETATM   39  H   UNK N   1      34.173  13.607  11.957  0.00  0.00     0.210 HD
ENDBRANCH   9  38
ENDBRANCH   1   9
BRANCH   1  40
HETATM   40  N   UNK N   1      34.311  17.110   9.600  0.00  0.00    -0.363 N 
ATOM     41  HN  UNK N   1      34.020  17.409  10.531  1.00  0.00     0.162 HD
BRANCH  40  42
HETATM   42  C   UNK N   1      34.261  18.008   8.678  0.00  0.00     0.146 C 
BRANCH  42  43
HETATM   43  C   UNK N   1      33.063  18.295   7.875  0.00  0.00     0.020 C 
HETATM   44  C   UNK N   1      33.168  17.853   6.563  0.00  0.00     0.055 C 
HETATM   45  C   UNK N   1      32.178  17.075   5.995  0.00  0.00     0.105 C 
HETATM   46  C   UNK N   1      31.010  16.794   6.751  0.00  0.00     0.135 C 
HETATM   47  C   UNK N   1      30.813  17.413   7.997  0.00  0.00     0.105 C 
HETATM   48  C   UNK N   1      31.855  18.147   8.557  0.00  0.00     0.055 C 
BRANCH  45  49
HETATM   49  O   UNK N   1      32.459  16.518   4.792  0.00  0.00    -0.353 OA
HETATM   50  C   UNK N   1      32.139  17.072   3.578  0.00  0.00     0.210 C 
ENDBRANCH  45  49
BRANCH  46  51
HETATM   51  O   UNK N   1      30.129  15.868   6.343  0.00  0.00    -0.341 OA
BRANCH  51  52
HETATM   52  C   UNK N   1      28.990  16.123   5.638  0.00  0.00     0.214 C 
BRANCH  52  53
HETATM   53  C   UNK N   1      29.039  15.244   4.447  0.00  0.00    -0.034 A 
HETATM   54  C   UNK N   1      28.434  15.644   3.252  0.00  0.00     0.009 A 
HETATM   55  C   UNK N   1      28.532  14.833   2.118  0.00  0.00     0.001 A 
HETATM   56  C   UNK N   1      29.239  13.627   2.179  0.00  0.00     0.000 A 
HETATM   57  C   UNK N   1      29.851  13.233   3.372  0.00  0.00     0.001 A 
HETATM   58  C   UNK N   1      29.756  14.044   4.503  0.00  0.00     0.009 A 
ENDBRANCH  52  53
ENDBRANCH  51  52
ENDBRANCH  46  51
BRANCH  47  59
HETATM   59  O   UNK N   1      29.661  17.206   8.682  0.00  0.00    -0.353 OA
HETATM   60  C   UNK N   1      29.034  18.182   9.423  0.00  0.00     0.210 C 
ENDBRANCH  47  59
ENDBRANCH  42  43
BRANCH  42  61
HETATM   61  O   UNK N   1      35.294  18.870   8.588  0.00  0.00    -0.346 OA
HETATM   62  H   UNK N   1      35.587  19.756   8.520  0.00  0.00     0.219 HD
ENDBRANCH  42  61
ENDBRANCH  40  42
ENDBRANCH   1  40
TORSDOF 21
ENDMDL
MODEL 2
REMARK VINA RESULT:      -7.9      2.063      3.267
REMARK  21 active torsions:
REMARK  status: ('A' for Active; 'I' for Inactive)
REMARK    1  A    between atoms: C_21  and  C_19 
REMARK    2  A    between atoms: C_31  and  C_19 
REMARK    3  A    between atoms: C_22  and  C_20 
REMARK    4  A    between atoms: C_42  and  C_20 
REMARK    5  A    between atoms: N_49  and  C_21 
REMARK    6  A    between atoms: N_50  and  C_22 
REMARK    7  A    between atoms: C_30  and  C_23 
REMARK    8  A    between atoms: C_36  and  C_23 
REMARK    9  A    between atoms: C_37  and  C_27 
REMARK   10  A    between atoms: N_49  and  C_27 
REMARK   11  A    between atoms: C_32  and  C_28 
REMARK   12  A    between atoms: O_58  and  C_28 
REMARK   13  A    between atoms: C_44  and  C_33 
REMARK   14  A    between atoms: C_37  and  C_36 
REMARK   15  A    between atoms: C_36  and  N_47 
REMARK   16  A    between atoms: C_37  and  O_51 
REMARK   17  A    between atoms: O_56  and  C_40 
REMARK   18  A    between atoms: O_57  and  C_41 
REMARK       I    between atoms: N_49  and  C_42 
REMARK   19  A    between atoms: O_58  and  C_43 
REMARK   20  A    between atoms: N_47  and  C_44 
REMARK   21  A    between atoms: C_44  and  O_53 
ROOT
HETATM    1  C   UNK N   1      34.903  15.976   9.628  0.00  0.00     0.118 C 
ENDROOT
BRANCH   1   2
HETATM    2  C   UNK N   1      33.966  14.902   9.065  0.00  0.00     0.066 C 
BRANCH   2   3
HETATM    3  C   UNK N   1      34.335  14.362   7.714  0.00  0.00    -0.056 A 
HETATM    4  C   UNK N   1      33.536  13.355   7.161  0.00  0.00     0.007 A 
HETATM    5  C   UNK N   1      33.862  12.794   5.924  0.00  0.00     0.001 A 
HETATM    6  C   UNK N   1      34.993  13.237   5.233  0.00  0.00     0.000 A 
HETATM    7  C   UNK N   1      35.797  14.241   5.778  0.00  0.00     0.001 A 
HETATM    8  C   UNK N   1      35.471  14.800   7.018  0.00  0.00     0.007 A 
ENDBRANCH   2   3
ENDBRANCH   1   2
BRANCH   1   9
HETATM    9  C   UNK N   1      35.033  15.733  11.135  0.00  0.00     0.159 C 
BRANCH   9  10
HETATM   10  C   UNK N   1      36.431  15.109  11.395  0.00  0.00     0.159 C 
BRANCH  10  11
HETATM   11  N   UNK N   1      36.390  13.711  11.690  0.00  0.00    -0.350 N 
HETATM   12  C   UNK N   1      36.495  13.337  12.998  0.00  0.00     0.221 C 
HETATM   13  O   UNK N   1      36.623  14.186  13.869  0.00  0.00    -0.273 OA
BRANCH  11  14
HETATM   14  C   UNK N   1      36.323  12.771  10.576  0.00  0.00     0.126 C 
BRANCH  14  15
HETATM   15  C   UNK N   1      37.729  12.617   9.992  0.00  0.00     0.024 C 
BRANCH  15  16
HETATM   16  C   UNK N   1      38.007  12.656   8.490  0.00  0.00    -0.010 C 
HETATM   17  C   UNK N   1      38.490  11.344   7.834  0.00  0.00     0.007 C 
HETATM   18  C   UNK N   1      38.779  11.521   6.311  0.00  0.00     0.035 C 
HETATM   19  C   UNK N   1      38.959  13.001   5.924  0.00  0.00     0.153 C 
HETATM   20  C   UNK N   1      39.806  13.660   6.950  0.00  0.00     0.153 C 
HETATM   21  O   UNK N   1      39.663  13.225   4.751  0.00  0.00    -0.359 OA
HETATM   22  C   UNK N   1      39.018  13.809   8.258  0.00  0.00     0.039 C 
HETATM   23  O   UNK N   1      40.153  14.862   6.353  0.00  0.00    -0.359 OA
HETATM   24  C   UNK N   1      40.224  14.511   4.979  0.00  0.00     0.339 C 
ENDBRANCH  15  16
ENDBRANCH  14  15
ENDBRANCH  11  14
BRANCH  12  25
HETATM   25  C   UNK N   1      36.494  11.921  13.416  0.00  0.00     0.123 C 
BRANCH  25  26
HETATM   26  C   UNK N   1      35.147  11.507  13.977  0.00  0.00     0.145 C 
BRANCH  26  27
HETATM   27  N   UNK N   1      35.286  11.406  15.407  0.00  0.00    -0.279 N 
HETATM   28  C   UNK N   1      34.865  12.335  16.294  0.00  0.00     0.261 A 
HETATM   29  C   UNK N   1      35.259  11.930  17.633  0.00  0.00     0.048 A 
HETATM   30  O   UNK N   1      34.278  13.363  15.995  0.00  0.00    -0.267 OA
HETATM   31  C   UNK N   1      35.103  12.551  18.864  0.00  0.00     0.018 A 
HETATM   32  C   UNK N   1      35.910  10.722  17.500  0.00  0.00     0.048 A 
HETATM   33  C   UNK N   1      35.633  11.902  19.992  0.00  0.00     0.001 A 
HETATM   34  C   UNK N   1      36.302  10.662  19.858  0.00  0.00     0.001 A 
HETATM   35  C   UNK N   1      36.447  10.058  18.595  0.00  0.00     0.018 A 
HETATM   36  C   UNK N   1      35.899  10.406  16.074  0.00  0.00     0.261 A 
HETATM   37  O   UNK N   1      36.372   9.411  15.552  0.00  0.00    -0.267 OA
ENDBRANCH  26  27
ENDBRANCH  25  26
ENDBRANCH  12  25
ENDBRANCH  10  11
ENDBRANCH   9  10
BRANCH   9  38
HETATM   38  O   UNK N   1      34.030  14.842  11.515  0.00  0.00    -0.392 OA
HETATM   39  H   UNK N   1      33.068  14.897  11.399  0.00  0.00     0.210 HD
ENDBRANCH   9  38
ENDBRANCH   1   9
BRANCH   1  40
HETATM   40  N   UNK N   1      34.282  17.284   9.528  0.00  0.00    -0.363 N 
ATOM     41  HN  UNK N   1      33.808  17.621  10.366  1.00  0.00     0.162 HD
BRANCH  40  42
HETATM   42  C   UNK N   1      34.255  18.072   8.509  0.00  0.00     0.146 C 
BRANCH  42  43
HETATM   43  C   UNK N   1      33.115  18.184   7.587  0.00  0.00     0.020 C 
HETATM   44  C   UNK N   1      33.358  17.612   6.347  0.00  0.00     0.055 C 
HETATM   45  C   UNK N   1      32.470  16.708   5.795  0.00  0.00     0.105 C 
HETATM   46  C   UNK N   1      31.262  16.429   6.485  0.00  0.00     0.135 C 
HETATM   47  C   UNK N   1      30.922  17.163   7.634  0.00  0.00     0.105 C 
HETATM   48  C   UNK N   1      31.865  18.026   8.185  0.00  0.00     0.055 C 
BRANCH  45  49
HETATM   49  O   UNK N   1      32.887  16.046   4.689  0.00  0.00    -0.353 OA
HETATM   50  C   UNK N   1      33.025  16.608   3.444  0.00  0.00     0.210 C 
ENDBRANCH  45  49
BRANCH  46  51
HETATM   51  O   UNK N   1      30.478  15.404   6.118  0.00  0.00    -0.341 OA
BRANCH  51  52
HETATM   52  C   UNK N   1      29.895  15.259   4.893  0.00  0.00     0.214 C 
BRANCH  52  53
HETATM   53  C   UNK N   1      28.683  16.110   4.912  0.00  0.00    -0.034 A 
HETATM   54  C   UNK N   1      27.607  15.782   5.743  0.00  0.00     0.009 A 
HETATM   55  C   UNK N   1      26.490  16.620   5.796  0.00  0.00     0.001 A 
HETATM   56  C   UNK N   1      26.452  17.786   5.024  0.00  0.00     0.000 A 
HETATM   57  C   UNK N   1      27.532  18.117   4.202  0.00  0.00     0.001 A 
HETATM   58  C   UNK N   1      28.649  17.282   4.151  0.00  0.00     0.009 A 
ENDBRANCH  52  53
ENDBRANCH  51  52
ENDBRANCH  46  51
BRANCH  47  59
HETATM   59  O   UNK N   1      29.731  16.950   8.245  0.00  0.00    -0.353 OA
HETATM   60  C   UNK N   1      29.334  17.615   9.384  0.00  0.00     0.210 C 
ENDBRANCH  47  59
ENDBRANCH  42  43
BRANCH  42  61
HETATM   61  O   UNK N   1      35.237  18.989   8.402  0.00  0.00    -0.346 OA
HETATM   62  H   UNK N   1      35.963  19.324   7.915  0.00  0.00     0.219 HD
ENDBRANCH  42  61
ENDBRANCH  40  42
ENDBRANCH   1  40
TORSDOF 21
ENDMDL
MODEL 3
REMARK VINA RESULT:      -7.8      8.390     13.123
REMARK  21 active torsions:
REMARK  status: ('A' for Active; 'I' for Inactive)
REMARK    1  A    between atoms: C_21  and  C_19 
REMARK    2  A    between atoms: C_31  and  C_19 
REMARK    3  A    between atoms: C_22  and  C_20 
REMARK    4  A    between atoms: C_42  and  C_20 
REMARK    5  A    between atoms: N_49  and  C_21 
REMARK    6  A    between atoms: N_50  and  C_22 
REMARK    7  A    between atoms: C_30  and  C_23 
REMARK    8  A    between atoms: C_36  and  C_23 
REMARK    9  A    between atoms: C_37  and  C_27 
REMARK   10  A    between atoms: N_49  and  C_27 
REMARK   11  A    between atoms: C_32  and  C_28 
REMARK   12  A    between atoms: O_58  and  C_28 
REMARK   13  A    between atoms: C_44  and  C_33 
REMARK   14  A    between atoms: C_37  and  C_36 
REMARK   15  A    between atoms: C_36  and  N_47 
REMARK   16  A    between atoms: C_37  and  O_51 
REMARK   17  A    between atoms: O_56  and  C_40 
REMARK   18  A    between atoms: O_57  and  C_41 
REMARK       I    between atoms: N_49  and  C_42 
REMARK   19  A    between atoms: O_58  and  C_43 
REMARK   20  A    between atoms: N_47  and  C_44 
REMARK   21  A    between atoms: C_44  and  O_53 
ROOT
HETATM    1  C   UNK N   1      21.179  14.583   0.842  0.00  0.00     0.118 C 
ENDROOT
BRANCH   1   2
HETATM    2  C   UNK N   1      20.298  13.330   0.836  0.00  0.00     0.066 C 
BRANCH   2   3
HETATM    3  C   UNK N   1      20.067  12.692   2.175  0.00  0.00    -0.056 A 
HETATM    4  C   UNK N   1      20.953  11.694   2.596  0.00  0.00     0.007 A 
HETATM    5  C   UNK N   1      20.755  11.044   3.817  0.00  0.00     0.001 A 
HETATM    6  C   UNK N   1      19.667  11.388   4.624  0.00  0.00     0.000 A 
HETATM    7  C   UNK N   1      18.777  12.383   4.210  0.00  0.00     0.001 A 
HETATM    8  C   UNK N   1      18.974  13.031   2.987  0.00  0.00     0.007 A 
ENDBRANCH   2   3
ENDBRANCH   1   2
BRANCH   1   9
HETATM    9  C   UNK N   1      22.567  14.170   1.342  0.00  0.00     0.159 C 
BRANCH   9  10
HETATM   10  C   UNK N   1      23.027  15.224   2.387  0.00  0.00     0.159 C 
BRANCH  10  11
HETATM   11  N   UNK N   1      23.763  14.667   3.478  0.00  0.00    -0.350 N 
HETATM   12  C   UNK N   1      23.059  14.261   4.574  0.00  0.00     0.221 C 
HETATM   13  O   UNK N   1      21.842  14.382   4.598  0.00  0.00    -0.273 OA
BRANCH  11  14
HETATM   14  C   UNK N   1      25.219  14.645   3.389  0.00  0.00     0.126 C 
BRANCH  14  15
HETATM   15  C   UNK N   1      25.708  16.076   3.155  0.00  0.00     0.024 C 
BRANCH  15  16
HETATM   16  C   UNK N   1      27.065  16.574   3.653  0.00  0.00    -0.010 C 
HETATM   17  C   UNK N   1      28.319  15.916   3.037  0.00  0.00     0.007 C 
HETATM   18  C   UNK N   1      29.638  16.477   3.653  0.00  0.00     0.035 C 
HETATM   19  C   UNK N   1      29.394  17.185   4.999  0.00  0.00     0.153 C 
HETATM   20  C   UNK N   1      28.457  16.360   5.804  0.00  0.00     0.153 C 
HETATM   21  O   UNK N   1      30.503  17.288   5.825  0.00  0.00    -0.359 OA
HETATM   22  C   UNK N   1      27.050  16.427   5.196  0.00  0.00     0.039 C 
HETATM   23  O   UNK N   1      28.557  16.911   7.073  0.00  0.00    -0.359 OA
HETATM   24  C   UNK N   1      29.912  17.333   7.117  0.00  0.00     0.339 C 
ENDBRANCH  15  16
ENDBRANCH  14  15
ENDBRANCH  11  14
BRANCH  12  25
HETATM   25  C   UNK N   1      23.717  13.698   5.770  0.00  0.00     0.123 C 
BRANCH  25  26
HETATM   26  C   UNK N   1      23.833  14.728   6.877  0.00  0.00     0.145 C 
BRANCH  26  27
HETATM   27  N   UNK N   1      23.296  14.138   8.076  0.00  0.00    -0.279 N 
HETATM   28  C   UNK N   1      24.022  13.485   9.010  0.00  0.00     0.261 A 
HETATM   29  C   UNK N   1      23.126  12.952  10.024  0.00  0.00     0.048 A 
HETATM   30  O   UNK N   1      25.234  13.345   8.973  0.00  0.00    -0.267 OA
HETATM   31  C   UNK N   1      23.371  12.181  11.151  0.00  0.00     0.018 A 
HETATM   32  C   UNK N   1      21.853  13.332   9.659  0.00  0.00     0.048 A 
HETATM   33  C   UNK N   1      22.264  11.794  11.926  0.00  0.00     0.001 A 
HETATM   34  C   UNK N   1      20.956  12.182  11.554  0.00  0.00     0.001 A 
HETATM   35  C   UNK N   1      20.740  12.963  10.403  0.00  0.00     0.018 A 
HETATM   36  C   UNK N   1      21.993  14.099   8.424  0.00  0.00     0.261 A 
HETATM   37  O   UNK N   1      21.089  14.616   7.789  0.00  0.00    -0.267 OA
ENDBRANCH  26  27
ENDBRANCH  25  26
ENDBRANCH  12  25
ENDBRANCH  10  11
ENDBRANCH   9  10
BRANCH   9  38
HETATM   38  O   UNK N   1      23.434  14.166   0.251  0.00  0.00    -0.392 OA
HETATM   39  H   UNK N   1      24.028  14.860  -0.080  0.00  0.00     0.210 HD
ENDBRANCH   9  38
ENDBRANCH   1   9
BRANCH   1  40
HETATM   40  N   UNK N   1      20.704  15.525   1.840  0.00  0.00    -0.363 N 
ATOM     41  HN  UNK N   1      21.007  15.353   2.798  1.00  0.00     0.162 HD
BRANCH  40  42
HETATM   42  C   UNK N   1      19.944  16.550   1.662  0.00  0.00     0.146 C 
BRANCH  42  43
HETATM   43  C   UNK N   1      20.007  17.770   2.480  0.00  0.00     0.020 C 
HETATM   44  C   UNK N   1      20.629  17.573   3.705  0.00  0.00     0.055 C 
HETATM   45  C   UNK N   1      21.652  18.402   4.125  0.00  0.00     0.105 C 
HETATM   46  C   UNK N   1      22.010  19.510   3.314  0.00  0.00     0.135 C 
HETATM   47  C   UNK N   1      21.244  19.828   2.179  0.00  0.00     0.105 C 
HETATM   48  C   UNK N   1      20.256  18.940   1.763  0.00  0.00     0.055 C 
BRANCH  45  49
HETATM   49  O   UNK N   1      22.335  18.012   5.228  0.00  0.00    -0.353 OA
HETATM   50  C   UNK N   1      21.765  17.729   6.444  0.00  0.00     0.210 C 
ENDBRANCH  45  49
BRANCH  46  51
HETATM   51  O   UNK N   1      23.131  20.208   3.552  0.00  0.00    -0.341 OA
BRANCH  51  52
HETATM   52  C   UNK N   1      24.277  20.129   2.817  0.00  0.00     0.214 C 
BRANCH  52  53
HETATM   53  C   UNK N   1      25.392  20.180   3.790  0.00  0.00    -0.034 A 
HETATM   54  C   UNK N   1      25.134  20.094   5.161  0.00  0.00     0.009 A 
HETATM   55  C   UNK N   1      26.197  20.087   6.069  0.00  0.00     0.001 A 
HETATM   56  C   UNK N   1      27.515  20.159   5.605  0.00  0.00     0.000 A 
HETATM   57  C   UNK N   1      27.771  20.235   4.233  0.00  0.00     0.001 A 
HETATM   58  C   UNK N   1      26.711  20.239   3.327  0.00  0.00     0.009 A 
ENDBRANCH  52  53
ENDBRANCH  51  52
ENDBRANCH  46  51
BRANCH  47  59
HETATM   59  O   UNK N   1      21.539  20.933   1.451  0.00  0.00    -0.353 OA
HETATM   60  C   UNK N   1      20.778  21.366   0.388  0.00  0.00     0.210 C 
ENDBRANCH  47  59
ENDBRANCH  42  43
BRANCH  42  61
HETATM   61  O   UNK N   1      19.199  16.588   0.539  0.00  0.00    -0.346 OA
HETATM   62  H   UNK N   1      19.150  16.774  -0.377  0.00  0.00     0.219 HD
ENDBRANCH  42  61
ENDBRANCH  40  42
ENDBRANCH   1  40
TORSDOF 21
ENDMDL
MODEL 4
REMARK VINA RESULT:      -7.8      2.448      4.703
REMARK  21 active torsions:
REMARK  status: ('A' for Active; 'I' for Inactive)
REMARK    1  A    between atoms: C_21  and  C_19 
REMARK    2  A    between atoms: C_31  and  C_19 
REMARK    3  A    between atoms: C_22  and  C_20 
REMARK    4  A    between atoms: C_42  and  C_20 
REMARK    5  A    between atoms: N_49  and  C_21 
REMARK    6  A    between atoms: N_50  and  C_22 
REMARK    7  A    between atoms: C_30  and  C_23 
REMARK    8  A    between atoms: C_36  and  C_23 
REMARK    9  A    between atoms: C_37  and  C_27 
REMARK   10  A    between atoms: N_49  and  C_27 
REMARK   11  A    between atoms: C_32  and  C_28 
REMARK   12  A    between atoms: O_58  and  C_28 
REMARK   13  A    between atoms: C_44  and  C_33 
REMARK   14  A    between atoms: C_37  and  C_36 
REMARK   15  A    between atoms: C_36  and  N_47 
REMARK   16  A    between atoms: C_37  and  O_51 
REMARK   17  A    between atoms: O_56  and  C_40 
REMARK   18  A    between atoms: O_57  and  C_41 
REMARK       I    between atoms: N_49  and  C_42 
REMARK   19  A    between atoms: O_58  and  C_43 
REMARK   20  A    between atoms: N_47  and  C_44 
REMARK   21  A    between atoms: C_44  and  O_53 
ROOT
HETATM    1  C   UNK N   1      31.507  17.130   7.990  0.00  0.00     0.118 C 
ENDROOT
BRANCH   1   2
HETATM    2  C   UNK N   1      30.977  16.182   6.909  0.00  0.00     0.066 C 
BRANCH   2   3
HETATM    3  C   UNK N   1      31.314  16.556   5.494  0.00  0.00    -0.056 A 
HETATM    4  C   UNK N   1      30.419  16.196   4.481  0.00  0.00     0.007 A 
HETATM    5  C   UNK N   1      30.710  16.488   3.146  0.00  0.00     0.001 A 
HETATM    6  C   UNK N   1      31.901  17.141   2.817  0.00  0.00     0.000 A 
HETATM    7  C   UNK N   1      32.800  17.504   3.823  0.00  0.00     0.001 A 
HETATM    8  C   UNK N   1      32.510  17.209   5.158  0.00  0.00     0.007 A 
ENDBRANCH   2   3
ENDBRANCH   1   2
BRANCH   1   9
HETATM    9  C   UNK N   1      32.763  16.492   8.589  0.00  0.00     0.159 C 
BRANCH   9  10
HETATM   10  C   UNK N   1      32.330  15.197   9.330  0.00  0.00     0.159 C 
BRANCH  10  11
HETATM   11  N   UNK N   1      33.318  14.166   9.310  0.00  0.00    -0.350 N 
HETATM   12  C   UNK N   1      34.175  14.091  10.369  0.00  0.00     0.221 C 
HETATM   13  O   UNK N   1      34.082  14.891  11.289  0.00  0.00    -0.273 OA
BRANCH  11  14
HETATM   14  C   UNK N   1      33.405  13.314   8.128  0.00  0.00     0.126 C 
BRANCH  14  15
HETATM   15  C   UNK N   1      34.306  14.006   7.103  0.00  0.00     0.024 C 
BRANCH  15  16
HETATM   16  C   UNK N   1      33.957  14.081   5.617  0.00  0.00    -0.010 C 
HETATM   17  C   UNK N   1      32.776  13.211   5.133  0.00  0.00     0.007 C 
HETATM   18  C   UNK N   1      32.544  13.340   3.595  0.00  0.00     0.035 C 
HETATM   19  C   UNK N   1      33.776  13.912   2.869  0.00  0.00     0.153 C 
HETATM   20  C   UNK N   1      34.993  13.256   3.413  0.00  0.00     0.153 C 
HETATM   21  O   UNK N   1      33.851  13.629   1.514  0.00  0.00    -0.359 OA
HETATM   22  C   UNK N   1      35.257  13.750   4.840  0.00  0.00     0.039 C 
HETATM   23  O   UNK N   1      35.976  13.601   2.498  0.00  0.00    -0.359 OA
HETATM   24  C   UNK N   1      35.252  13.659   1.278  0.00  0.00     0.339 C 
ENDBRANCH  15  16
ENDBRANCH  14  15
ENDBRANCH  11  14
BRANCH  12  25
HETATM   25  C   UNK N   1      35.253  13.084  10.441  0.00  0.00     0.123 C 
BRANCH  25  26
HETATM   26  C   UNK N   1      36.342  13.504  11.410  0.00  0.00     0.145 C 
BRANCH  26  27
HETATM   27  N   UNK N   1      35.982  13.003  12.711  0.00  0.00    -0.279 N 
HETATM   28  C   UNK N   1      36.056  13.708  13.861  0.00  0.00     0.261 A 
HETATM   29  C   UNK N   1      35.700  12.845  14.975  0.00  0.00     0.048 A 
HETATM   30  O   UNK N   1      36.404  14.876  13.937  0.00  0.00    -0.267 OA
HETATM   31  C   UNK N   1      35.663  13.077  16.342  0.00  0.00     0.018 A 
HETATM   32  C   UNK N   1      35.398  11.614  14.434  0.00  0.00     0.048 A 
HETATM   33  C   UNK N   1      35.299  12.006  17.175  0.00  0.00     0.001 A 
HETATM   34  C   UNK N   1      34.989  10.741  16.622  0.00  0.00     0.001 A 
HETATM   35  C   UNK N   1      35.037  10.535  15.231  0.00  0.00     0.018 A 
HETATM   36  C   UNK N   1      35.571  11.748  12.990  0.00  0.00     0.261 A 
HETATM   37  O   UNK N   1      35.390  10.876  12.157  0.00  0.00    -0.267 OA
ENDBRANCH  26  27
ENDBRANCH  25  26
ENDBRANCH  12  25
ENDBRANCH  10  11
ENDBRANCH   9  10
BRANCH   9  38
HETATM   38  O   UNK N   1      33.318  17.398   9.491  0.00  0.00    -0.392 OA
HETATM   39  H   UNK N   1      34.220  17.455   9.846  0.00  0.00     0.210 HD
ENDBRANCH   9  38
ENDBRANCH   1   9
BRANCH   1  40
HETATM   40  N   UNK N   1      30.572  17.195   9.099  0.00  0.00    -0.363 N 
ATOM     41  HN  UNK N   1      30.630  16.436   9.779  1.00  0.00     0.162 HD
BRANCH  40  42
HETATM   42  C   UNK N   1      29.679  18.094   9.330  0.00  0.00     0.146 C 
BRANCH  42  43
HETATM   43  C   UNK N   1      28.377  18.152   8.650  0.00  0.00     0.020 C 
HETATM   44  C   UNK N   1      28.220  19.290   7.871  0.00  0.00     0.055 C 
HETATM   45  C   UNK N   1      27.815  19.198   6.553  0.00  0.00     0.105 C 
HETATM   46  C   UNK N   1      27.488  17.923   6.025  0.00  0.00     0.135 C 
HETATM   47  C   UNK N   1      27.447  16.801   6.871  0.00  0.00     0.105 C 
HETATM   48  C   UNK N   1      27.911  16.925   8.177  0.00  0.00     0.055 C 
BRANCH  45  49
HETATM   49  O   UNK N   1      27.891  20.332   5.815  0.00  0.00    -0.353 OA
HETATM   50  C   UNK N   1      27.099  21.439   5.995  0.00  0.00     0.210 C 
ENDBRANCH  45  49
BRANCH  46  51
HETATM   51  O   UNK N   1      27.311  17.745   4.707  0.00  0.00    -0.341 OA
BRANCH  51  52
HETATM   52  C   UNK N   1      26.157  18.000   4.028  0.00  0.00     0.214 C 
BRANCH  52  53
HETATM   53  C   UNK N   1      25.762  16.721   3.393  0.00  0.00    -0.034 A 
HETATM   54  C   UNK N   1      24.446  16.262   3.496  0.00  0.00     0.009 A 
HETATM   55  C   UNK N   1      24.069  15.082   2.847  0.00  0.00     0.001 A 
HETATM   56  C   UNK N   1      25.007  14.368   2.092  0.00  0.00     0.000 A 
HETATM   57  C   UNK N   1      26.319  14.835   1.982  0.00  0.00     0.001 A 
HETATM   58  C   UNK N   1      26.695  16.014   2.627  0.00  0.00     0.009 A 
ENDBRANCH  52  53
ENDBRANCH  51  52
ENDBRANCH  46  51
BRANCH  47  59
HETATM   59  O   UNK N   1      27.057  15.598   6.381  0.00  0.00    -0.353 OA
HETATM   60  C   UNK N   1      25.887  14.973   6.751  0.00  0.00     0.210 C 
ENDBRANCH  47  59
ENDBRANCH  42  43
BRANCH  42  61
HETATM   61  O   UNK N   1      29.863  18.897  10.398  0.00  0.00    -0.346 OA
HETATM   62  H   UNK N   1      30.085  19.745  10.726  0.00  0.00     0.219 HD
ENDBRANCH  42  61
ENDBRANCH  40  42
ENDBRANCH   1  40
TORSDOF 21
ENDMDL
MODEL 5
REMARK VINA RESULT:      -7.7      1.551      2.386
REMARK  21 active torsions:
REMARK  status: ('A' for Active; 'I' for Inactive)
REMARK    1  A    between atoms: C_21  and  C_19 
REMARK    2  A    between atoms: C_31  and  C_19 
REMARK    3  A    between atoms: C_22  and  C_20 
REMARK    4  A    between atoms: C_42  and  C_20 
REMARK    5  A    between atoms: N_49  and  C_21 
REMARK    6  A    between atoms: N_50  and  C_22 
REMARK    7  A    between atoms: C_30  and  C_23 
REMARK    8  A    between atoms: C_36  and  C_23 
REMARK    9  A    between atoms: C_37  and  C_27 
REMARK   10  A    between atoms: N_49  and  C_27 
REMARK   11  A    between atoms: C_32  and  C_28 
REMARK   12  A    between atoms: O_58  and  C_28 
REMARK   13  A    between atoms: C_44  and  C_33 
REMARK   14  A    between atoms: C_37  and  C_36 
REMARK   15  A    between atoms: C_36  and  N_47 
REMARK   16  A    between atoms: C_37  and  O_51 
REMARK   17  A    between atoms: O_56  and  C_40 
REMARK   18  A    between atoms: O_57  and  C_41 
REMARK       I    between atoms: N_49  and  C_42 
REMARK   19  A    between atoms: O_58  and  C_43 
REMARK   20  A    between atoms: N_47  and  C_44 
REMARK   21  A    between atoms: C_44  and  O_53 
ROOT
HETATM    1  C   UNK N   1      35.376  15.769   9.022  0.00  0.00     0.118 C 
ENDROOT
BRANCH   1   2
HETATM    2  C   UNK N   1      34.314  14.724   8.665  0.00  0.00     0.066 C 
BRANCH   2   3
HETATM    3  C   UNK N   1      34.299  14.276   7.232  0.00  0.00    -0.056 A 
HETATM    4  C   UNK N   1      33.294  13.392   6.824  0.00  0.00     0.007 A 
HETATM    5  C   UNK N   1      33.263  12.917   5.511  0.00  0.00     0.001 A 
HETATM    6  C   UNK N   1      34.240  13.323   4.597  0.00  0.00     0.000 A 
HETATM    7  C   UNK N   1      35.247  14.205   4.997  0.00  0.00     0.001 A 
HETATM    8  C   UNK N   1      35.279  14.678   6.313  0.00  0.00     0.007 A 
ENDBRANCH   2   3
ENDBRANCH   1   2
BRANCH   1   9
HETATM    9  C   UNK N   1      36.053  15.317  10.319  0.00  0.00     0.159 C 
BRANCH   9  10
HETATM   10  C   UNK N   1      34.946  14.795  11.275  0.00  0.00     0.159 C 
BRANCH  10  11
HETATM   11  N   UNK N   1      35.302  13.597  11.967  0.00  0.00    -0.350 N 
HETATM   12  C   UNK N   1      35.963  13.724  13.154  0.00  0.00     0.221 C 
HETATM   13  O   UNK N   1      36.232  14.836  13.588  0.00  0.00    -0.273 OA
BRANCH  11  14
HETATM   14  C   UNK N   1      35.015  12.317  11.327  0.00  0.00     0.126 C 
BRANCH  14  15
HETATM   15  C   UNK N   1      36.212  11.939  10.451  0.00  0.00     0.024 C 
BRANCH  15  16
HETATM   16  C   UNK N   1      36.066  11.557   8.978  0.00  0.00    -0.010 C 
HETATM   17  C   UNK N   1      35.875  10.058   8.662  0.00  0.00     0.007 C 
HETATM   18  C   UNK N   1      35.781   9.789   7.128  0.00  0.00     0.035 C 
HETATM   19  C   UNK N   1      36.343  10.960   6.299  0.00  0.00     0.153 C 
HETATM   20  C   UNK N   1      37.610  11.417   6.926  0.00  0.00     0.153 C 
HETATM   21  O   UNK N   1      36.735  10.639   5.009  0.00  0.00    -0.359 OA
HETATM   22  C   UNK N   1      37.307  12.133   8.248  0.00  0.00     0.039 C 
HETATM   23  O   UNK N   1      38.171  12.230   5.953  0.00  0.00    -0.359 OA
HETATM   24  C   UNK N   1      37.742  11.608   4.751  0.00  0.00     0.339 C 
ENDBRANCH  15  16
ENDBRANCH  14  15
ENDBRANCH  11  14
BRANCH  12  25
HETATM   25  C   UNK N   1      36.405  12.556  13.940  0.00  0.00     0.123 C 
BRANCH  25  26
HETATM   26  C   UNK N   1      35.226  11.790  14.510  0.00  0.00     0.145 C 
BRANCH  26  27
HETATM   27  N   UNK N   1      35.521  11.504  15.890  0.00  0.00    -0.279 N 
HETATM   28  C   UNK N   1      36.157  10.398  16.333  0.00  0.00     0.261 A 
HETATM   29  C   UNK N   1      36.191  10.416  17.787  0.00  0.00     0.048 A 
HETATM   30  O   UNK N   1      36.597   9.515  15.613  0.00  0.00    -0.267 OA
HETATM   31  C   UNK N   1      36.686   9.502  18.705  0.00  0.00     0.018 A 
HETATM   32  C   UNK N   1      35.567  11.581  18.177  0.00  0.00     0.048 A 
HETATM   33  C   UNK N   1      36.534   9.803  20.069  0.00  0.00     0.001 A 
HETATM   34  C   UNK N   1      35.894  10.998  20.473  0.00  0.00     0.001 A 
HETATM   35  C   UNK N   1      35.400  11.906  19.517  0.00  0.00     0.018 A 
HETATM   36  C   UNK N   1      35.165  12.261  16.949  0.00  0.00     0.261 A 
HETATM   37  O   UNK N   1      34.589  13.333  16.873  0.00  0.00    -0.267 OA
ENDBRANCH  26  27
ENDBRANCH  25  26
ENDBRANCH  12  25
ENDBRANCH  10  11
ENDBRANCH   9  10
BRANCH   9  38
HETATM   38  O   UNK N   1      36.691  16.422  10.880  0.00  0.00    -0.392 OA
HETATM   39  H   UNK N   1      37.636  16.639  10.931  0.00  0.00     0.210 HD
ENDBRANCH   9  38
ENDBRANCH   1   9
BRANCH   1  40
HETATM   40  N   UNK N   1      34.741  17.028   9.369  0.00  0.00    -0.363 N 
ATOM     41  HN  UNK N   1      34.428  17.121  10.335  1.00  0.00     0.162 HD
BRANCH  40  42
HETATM   42  C   UNK N   1      34.525  18.042   8.605  0.00  0.00     0.146 C 
BRANCH  42  43
HETATM   43  C   UNK N   1      33.275  18.259   7.862  0.00  0.00     0.020 C 
HETATM   44  C   UNK N   1      33.341  17.824   6.546  0.00  0.00     0.055 C 
HETATM   45  C   UNK N   1      32.372  16.989   6.024  0.00  0.00     0.105 C 
HETATM   46  C   UNK N   1      31.260  16.641   6.835  0.00  0.00     0.135 C 
HETATM   47  C   UNK N   1      31.089  17.248   8.091  0.00  0.00     0.105 C 
HETATM   48  C   UNK N   1      32.112  18.042   8.601  0.00  0.00     0.055 C 
BRANCH  45  49
HETATM   49  O   UNK N   1      32.626  16.450   4.807  0.00  0.00    -0.353 OA
HETATM   50  C   UNK N   1      32.284  17.024   3.608  0.00  0.00     0.210 C 
ENDBRANCH  45  49
BRANCH  46  51
HETATM   51  O   UNK N   1      30.416  15.666   6.468  0.00  0.00    -0.341 OA
BRANCH  51  52
HETATM   52  C   UNK N   1      29.235  15.854   5.812  0.00  0.00     0.214 C 
BRANCH  52  53
HETATM   53  C   UNK N   1      29.317  15.042   4.577  0.00  0.00    -0.034 A 
HETATM   54  C   UNK N   1      28.801  15.535   3.375  0.00  0.00     0.009 A 
HETATM   55  C   UNK N   1      28.933  14.786   2.202  0.00  0.00     0.001 A 
HETATM   56  C   UNK N   1      29.585  13.549   2.232  0.00  0.00     0.000 A 
HETATM   57  C   UNK N   1      30.109  13.062   3.432  0.00  0.00     0.001 A 
HETATM   58  C   UNK N   1      29.981  13.811   4.602  0.00  0.00     0.009 A 
ENDBRANCH  52  53
ENDBRANCH  51  52
ENDBRANCH  46  51
BRANCH  47  59
HETATM   59  O   UNK N   1      29.985  16.974   8.830  0.00  0.00    -0.353 OA
HETATM   60  C   UNK N   1      29.251  17.940   9.482  0.00  0.00     0.210 C 
ENDBRANCH  47  59
ENDBRANCH  42  43
BRANCH  42  61
HETATM   61  O   UNK N   1      35.407  19.061   8.654  0.00  0.00    -0.346 OA
HETATM   62  H   UNK N   1      35.616  19.917   8.969  0.00  0.00     0.219 HD
ENDBRANCH  42  61
ENDBRANCH  40  42
ENDBRANCH   1  40
TORSDOF 21
ENDMDL
MODEL 6
REMARK VINA RESULT:      -7.6      2.133      3.960
REMARK  21 active torsions:
REMARK  status: ('A' for Active; 'I' for Inactive)
REMARK    1  A    between atoms: C_21  and  C_19 
REMARK    2  A    between atoms: C_31  and  C_19 
REMARK    3  A    between atoms: C_22  and  C_20 
REMARK    4  A    between atoms: C_42  and  C_20 
REMARK    5  A    between atoms: N_49  and  C_21 
REMARK    6  A    between atoms: N_50  and  C_22 
REMARK    7  A    between atoms: C_30  and  C_23 
REMARK    8  A    between atoms: C_36  and  C_23 
REMARK    9  A    between atoms: C_37  and  C_27 
REMARK   10  A    between atoms: N_49  and  C_27 
REMARK   11  A    between atoms: C_32  and  C_28 
REMARK   12  A    between atoms: O_58  and  C_28 
REMARK   13  A    between atoms: C_44  and  C_33 
REMARK   14  A    between atoms: C_37  and  C_36 
REMARK   15  A    between atoms: C_36  and  N_47 
REMARK   16  A    between atoms: C_37  and  O_51 
REMARK   17  A    between atoms: O_56  and  C_40 
REMARK   18  A    between atoms: O_57  and  C_41 
REMARK       I    between atoms: N_49  and  C_42 
REMARK   19  A    between atoms: O_58  and  C_43 
REMARK   20  A    between atoms: N_47  and  C_44 
REMARK   21  A    between atoms: C_44  and  O_53 
ROOT
HETATM    1  C   UNK N   1      35.101  15.944   9.522  0.00  0.00     0.118 C 
ENDROOT
BRANCH   1   2
HETATM    2  C   UNK N   1      34.092  14.843   9.179  0.00  0.00     0.066 C 
BRANCH   2   3
HETATM    3  C   UNK N   1      34.130  14.344   7.763  0.00  0.00    -0.056 A 
HETATM    4  C   UNK N   1      33.112  13.486   7.334  0.00  0.00     0.007 A 
HETATM    5  C   UNK N   1      33.127  12.966   6.038  0.00  0.00     0.001 A 
HETATM    6  C   UNK N   1      34.164  13.300   5.162  0.00  0.00     0.000 A 
HETATM    7  C   UNK N   1      35.185  14.156   5.584  0.00  0.00     0.001 A 
HETATM    8  C   UNK N   1      35.170  14.674   6.882  0.00  0.00     0.007 A 
ENDBRANCH   2   3
ENDBRANCH   1   2
BRANCH   1   9
HETATM    9  C   UNK N   1      35.552  15.724  10.969  0.00  0.00     0.159 C 
BRANCH   9  10
HETATM   10  C   UNK N   1      34.920  14.395  11.465  0.00  0.00     0.159 C 
BRANCH  10  11
HETATM   11  N   UNK N   1      35.877  13.450  11.947  0.00  0.00    -0.350 N 
HETATM   12  C   UNK N   1      35.877  13.177  13.284  0.00  0.00     0.221 C 
HETATM   13  O   UNK N   1      35.079  13.737  14.023  0.00  0.00    -0.273 OA
BRANCH  11  14
HETATM   14  C   UNK N   1      36.844  12.901  11.003  0.00  0.00     0.126 C 
BRANCH  14  15
HETATM   15  C   UNK N   1      36.079  12.123   9.930  0.00  0.00     0.024 C 
BRANCH  15  16
HETATM   16  C   UNK N   1      36.706  11.733   8.591  0.00  0.00    -0.010 C 
HETATM   17  C   UNK N   1      35.827  10.912   7.622  0.00  0.00     0.007 C 
HETATM   18  C   UNK N   1      36.589  10.541   6.312  0.00  0.00     0.035 C 
HETATM   19  C   UNK N   1      38.116  10.665   6.474  0.00  0.00     0.153 C 
HETATM   20  C   UNK N   1      38.501  10.079   7.783  0.00  0.00     0.153 C 
HETATM   21  O   UNK N   1      38.870   9.931   5.572  0.00  0.00    -0.359 OA
HETATM   22  C   UNK N   1      38.026  10.990   8.922  0.00  0.00     0.039 C 
HETATM   23  O   UNK N   1      39.879   9.960   7.685  0.00  0.00    -0.359 OA
HETATM   24  C   UNK N   1      40.066   9.695   6.303  0.00  0.00     0.339 C 
ENDBRANCH  15  16
ENDBRANCH  14  15
ENDBRANCH  11  14
BRANCH  12  25
HETATM   25  C   UNK N   1      36.839  12.240  13.898  0.00  0.00     0.123 C 
BRANCH  25  26
HETATM   26  C   UNK N   1      36.143  11.012  14.454  0.00  0.00     0.145 C 
BRANCH  26  27
HETATM   27  N   UNK N   1      35.650  10.249  13.336  0.00  0.00    -0.279 N 
HETATM   28  C   UNK N   1      36.422   9.554  12.472  0.00  0.00     0.261 A 
HETATM   29  C   UNK N   1      35.583   8.992  11.427  0.00  0.00     0.048 A 
HETATM   30  O   UNK N   1      37.637   9.453  12.554  0.00  0.00    -0.267 OA
HETATM   31  C   UNK N   1      35.895   8.243  10.301  0.00  0.00     0.018 A 
HETATM   32  C   UNK N   1      34.290   9.368  11.720  0.00  0.00     0.048 A 
HETATM   33  C   UNK N   1      34.838   7.871   9.454  0.00  0.00     0.001 A 
HETATM   34  C   UNK N   1      33.510   8.257   9.751  0.00  0.00     0.001 A 
HETATM   35  C   UNK N   1      33.224   9.018  10.900  0.00  0.00     0.018 A 
HETATM   36  C   UNK N   1      34.361  10.155  12.948  0.00  0.00     0.261 A 
HETATM   37  O   UNK N   1      33.421  10.663  13.536  0.00  0.00    -0.267 OA
ENDBRANCH  26  27
ENDBRANCH  25  26
ENDBRANCH  12  25
ENDBRANCH  10  11
ENDBRANCH   9  10
BRANCH   9  38
HETATM   38  O   UNK N   1      35.084  16.792  11.732  0.00  0.00    -0.392 OA
HETATM   39  H   UNK N   1      35.547  17.585  12.049  0.00  0.00     0.210 HD
ENDBRANCH   9  38
ENDBRANCH   1   9
BRANCH   1  40
HETATM   40  N   UNK N   1      34.441  17.237   9.543  0.00  0.00    -0.363 N 
ATOM     41  HN  UNK N   1      34.033  17.517  10.435  1.00  0.00     0.162 HD
BRANCH  40  42
HETATM   42  C   UNK N   1      34.308  18.075   8.574  0.00  0.00     0.146 C 
BRANCH  42  43
HETATM   43  C   UNK N   1      33.065  18.258   7.811  0.00  0.00     0.020 C 
HETATM   44  C   UNK N   1      33.135  17.747   6.523  0.00  0.00     0.055 C 
HETATM   45  C   UNK N   1      32.162  16.891   6.044  0.00  0.00     0.105 C 
HETATM   46  C   UNK N   1      31.043  16.599   6.866  0.00  0.00     0.135 C 
HETATM   47  C   UNK N   1      30.869  17.278   8.084  0.00  0.00     0.105 C 
HETATM   48  C   UNK N   1      31.896  18.092   8.554  0.00  0.00     0.055 C 
BRANCH  45  49
HETATM   49  O   UNK N   1      32.420  16.280   4.862  0.00  0.00    -0.353 OA
HETATM   50  C   UNK N   1      33.035  16.875   3.790  0.00  0.00     0.210 C 
ENDBRANCH  45  49
BRANCH  46  51
HETATM   51  O   UNK N   1      30.193  15.610   6.551  0.00  0.00    -0.341 OA
BRANCH  51  52
HETATM   52  C   UNK N   1      29.047  15.760   5.827  0.00  0.00     0.214 C 
BRANCH  52  53
HETATM   53  C   UNK N   1      29.220  14.936   4.609  0.00  0.00    -0.034 A 
HETATM   54  C   UNK N   1      28.738  15.391   3.378  0.00  0.00     0.009 A 
HETATM   55  C   UNK N   1      28.954  14.632   2.224  0.00  0.00     0.001 A 
HETATM   56  C   UNK N   1      29.657  13.424   2.302  0.00  0.00     0.000 A 
HETATM   57  C   UNK N   1      30.146  12.976   3.532  0.00  0.00     0.001 A 
HETATM   58  C   UNK N   1      29.933  13.735   4.683  0.00  0.00     0.009 A 
ENDBRANCH  52  53
ENDBRANCH  51  52
ENDBRANCH  46  51
BRANCH  47  59
HETATM   59  O   UNK N   1      29.759  17.056   8.831  0.00  0.00    -0.353 OA
HETATM   60  C   UNK N   1      28.786  18.008   9.044  0.00  0.00     0.210 C 
ENDBRANCH  47  59
ENDBRANCH  42  43
BRANCH  42  61
HETATM   61  O   UNK N   1      35.294  18.975   8.386  0.00  0.00    -0.346 OA
HETATM   62  H   UNK N   1      35.615  19.716   7.912  0.00  0.00     0.219 HD
ENDBRANCH  42  61
ENDBRANCH  40  42
ENDBRANCH   1  40
TORSDOF 21
ENDMDL
MODEL 7
REMARK VINA RESULT:      -7.5      3.138     11.195
REMARK  21 active torsions:
REMARK  status: ('A' for Active; 'I' for Inactive)
REMARK    1  A    between atoms: C_21  and  C_19 
REMARK    2  A    between atoms: C_31  and  C_19 
REMARK    3  A    between atoms: C_22  and  C_20 
REMARK    4  A    between atoms: C_42  and  C_20 
REMARK    5  A    between atoms: N_49  and  C_21 
REMARK    6  A    between atoms: N_50  and  C_22 
REMARK    7  A    between atoms: C_30  and  C_23 
REMARK    8  A    between atoms: C_36  and  C_23 
REMARK    9  A    between atoms: C_37  and  C_27 
REMARK   10  A    between atoms: N_49  and  C_27 
REMARK   11  A    between atoms: C_32  and  C_28 
REMARK   12  A    between atoms: O_58  and  C_28 
REMARK   13  A    between atoms: C_44  and  C_33 
REMARK   14  A    between atoms: C_37  and  C_36 
REMARK   15  A    between atoms: C_36  and  N_47 
REMARK   16  A    between atoms: C_37  and  O_51 
REMARK   17  A    between atoms: O_56  and  C_40 
REMARK   18  A    between atoms: O_57  and  C_41 
REMARK       I    between atoms: N_49  and  C_42 
REMARK   19  A    between atoms: O_58  and  C_43 
REMARK   20  A    between atoms: N_47  and  C_44 
REMARK   21  A    between atoms: C_44  and  O_53 
ROOT
HETATM    1  C   UNK N   1      35.634  12.677  14.748  0.00  0.00     0.118 C 
ENDROOT
BRANCH   1   2
HETATM    2  C   UNK N   1      34.949  13.361  15.936  0.00  0.00     0.066 C 
BRANCH   2   3
HETATM    3  C   UNK N   1      35.209  12.744  17.280  0.00  0.00    -0.056 A 
HETATM    4  C   UNK N   1      35.552  11.388  17.332  0.00  0.00     0.007 A 
HETATM    5  C   UNK N   1      35.763  10.761  18.562  0.00  0.00     0.001 A 
HETATM    6  C   UNK N   1      35.632  11.487  19.749  0.00  0.00     0.000 A 
HETATM    7  C   UNK N   1      35.289  12.841  19.705  0.00  0.00     0.001 A 
HETATM    8  C   UNK N   1      35.074  13.467  18.474  0.00  0.00     0.007 A 
ENDBRANCH   2   3
ENDBRANCH   1   2
BRANCH   1   9
HETATM    9  C   UNK N   1      36.228  13.775  13.862  0.00  0.00     0.159 C 
BRANCH   9  10
HETATM   10  C   UNK N   1      36.899  13.087  12.642  0.00  0.00     0.159 C 
BRANCH  10  11
HETATM   11  N   UNK N   1      36.848  13.864  11.444  0.00  0.00    -0.350 N 
HETATM   12  C   UNK N   1      37.658  13.490  10.412  0.00  0.00     0.221 C 
HETATM   13  O   UNK N   1      38.396  12.522  10.533  0.00  0.00    -0.273 OA
BRANCH  11  14
HETATM   14  C   UNK N   1      36.001  15.052  11.427  0.00  0.00     0.126 C 
BRANCH  14  15
HETATM   15  C   UNK N   1      34.732  14.726  10.636  0.00  0.00     0.024 C 
BRANCH  15  16
HETATM   16  C   UNK N   1      34.324  15.495   9.380  0.00  0.00    -0.010 C 
HETATM   17  C   UNK N   1      34.746  16.979   9.301  0.00  0.00     0.007 C 
HETATM   18  C   UNK N   1      34.237  17.665   7.996  0.00  0.00     0.035 C 
HETATM   19  C   UNK N   1      33.088  16.879   7.338  0.00  0.00     0.153 C 
HETATM   20  C   UNK N   1      32.144  16.444   8.399  0.00  0.00     0.153 C 
HETATM   21  O   UNK N   1      32.278  17.614   6.486  0.00  0.00    -0.359 OA
HETATM   22  C   UNK N   1      32.786  15.339   9.246  0.00  0.00     0.039 C 
HETATM   23  O   UNK N   1      31.027  16.038   7.684  0.00  0.00    -0.359 OA
HETATM   24  C   UNK N   1      31.044  16.914   6.568  0.00  0.00     0.339 C 
ENDBRANCH  15  16
ENDBRANCH  14  15
ENDBRANCH  11  14
BRANCH  12  25
HETATM   25  C   UNK N   1      37.709  14.236   9.139  0.00  0.00     0.123 C 
BRANCH  25  26
HETATM   26  C   UNK N   1      37.818  13.301   7.950  0.00  0.00     0.145 C 
BRANCH  26  27
HETATM   27  N   UNK N   1      36.611  13.441   7.176  0.00  0.00    -0.279 N 
HETATM   28  C   UNK N   1      36.468  14.248   6.102  0.00  0.00     0.261 A 
HETATM   29  C   UNK N   1      35.090  14.194   5.643  0.00  0.00     0.048 A 
HETATM   30  O   UNK N   1      37.360  14.935   5.627  0.00  0.00    -0.267 OA
HETATM   31  C   UNK N   1      34.437  14.860   4.616  0.00  0.00     0.018 A 
HETATM   32  C   UNK N   1      34.436  13.312   6.476  0.00  0.00     0.048 A 
HETATM   33  C   UNK N   1      33.066  14.606   4.445  0.00  0.00     0.001 A 
HETATM   34  C   UNK N   1      32.391  13.702   5.299  0.00  0.00     0.001 A 
HETATM   35  C   UNK N   1      33.081  13.041   6.333  0.00  0.00     0.018 A 
HETATM   36  C   UNK N   1      35.432  12.837   7.433  0.00  0.00     0.261 A 
HETATM   37  O   UNK N   1      35.244  12.034   8.331  0.00  0.00    -0.267 OA
ENDBRANCH  26  27
ENDBRANCH  25  26
ENDBRANCH  12  25
ENDBRANCH  10  11
ENDBRANCH   9  10
BRANCH   9  38
HETATM   38  O   UNK N   1      37.183  14.463  14.610  0.00  0.00    -0.392 OA
HETATM   39  H   UNK N   1      37.864  14.128  15.214  0.00  0.00     0.210 HD
ENDBRANCH   9  38
ENDBRANCH   1   9
BRANCH   1  40
HETATM   40  N   UNK N   1      34.644  12.031  13.905  0.00  0.00    -0.363 N 
ATOM     41  HN  UNK N   1      34.291  12.584  13.124  1.00  0.00     0.162 HD
BRANCH  40  42
HETATM   42  C   UNK N   1      34.156  10.845  14.024  0.00  0.00     0.146 C 
BRANCH  42  43
HETATM   43  C   UNK N   1      34.910   9.615  13.744  0.00  0.00     0.020 C 
HETATM   44  C   UNK N   1      35.487   9.605  12.481  0.00  0.00     0.055 C 
HETATM   45  C   UNK N   1      36.828   9.311  12.315  0.00  0.00     0.105 C 
HETATM   46  C   UNK N   1      37.594   8.944  13.452  0.00  0.00     0.135 C 
HETATM   47  C   UNK N   1      36.963   8.753  14.693  0.00  0.00     0.105 C 
HETATM   48  C   UNK N   1      35.624   9.109  14.830  0.00  0.00     0.055 C 
BRANCH  45  49
HETATM   49  O   UNK N   1      37.348   9.529  11.083  0.00  0.00    -0.353 OA
HETATM   50  C   UNK N   1      36.727   9.209   9.901  0.00  0.00     0.210 C 
ENDBRANCH  45  49
BRANCH  46  51
HETATM   51  O   UNK N   1      38.932   8.872  13.389  0.00  0.00    -0.341 OA
BRANCH  51  52
HETATM   52  C   UNK N   1      39.640   7.807  12.915  0.00  0.00     0.214 C 
BRANCH  52  53
HETATM   53  C   UNK N   1      40.994   7.919  13.503  0.00  0.00    -0.034 A 
HETATM   54  C   UNK N   1      41.155   8.381  14.813  0.00  0.00     0.009 A 
HETATM   55  C   UNK N   1      42.432   8.431  15.380  0.00  0.00     0.001 A 
HETATM   56  C   UNK N   1      43.543   8.015  14.639  0.00  0.00     0.000 A 
HETATM   57  C   UNK N   1      43.379   7.544  13.333  0.00  0.00     0.001 A 
HETATM   58  C   UNK N   1      42.104   7.491  12.769  0.00  0.00     0.009 A 
ENDBRANCH  52  53
ENDBRANCH  51  52
ENDBRANCH  46  51
BRANCH  47  59
HETATM   59  O   UNK N   1      37.683   8.325  15.759  0.00  0.00    -0.353 OA
HETATM   60  C   UNK N   1      37.564   7.063  16.297  0.00  0.00     0.210 C 
ENDBRANCH  47  59
ENDBRANCH  42  43
BRANCH  42  61
HETATM   61  O   UNK N   1      32.961  10.719  14.635  0.00  0.00    -0.346 OA
HETATM   62  H   UNK N   1      32.352  10.168  15.085  0.00  0.00     0.219 HD
ENDBRANCH  42  61
ENDBRANCH  40  42
ENDBRANCH   1  40
TORSDOF 21
ENDMDL
MODEL 8
REMARK VINA RESULT:      -7.5      2.854      4.188
REMARK  21 active torsions:
REMARK  status: ('A' for Active; 'I' for Inactive)
REMARK    1  A    between atoms: C_21  and  C_19 
REMARK    2  A    between atoms: C_31  and  C_19 
REMARK    3  A    between atoms: C_22  and  C_20 
REMARK    4  A    between atoms: C_42  and  C_20 
REMARK    5  A    between atoms: N_49  and  C_21 
REMARK    6  A    between atoms: N_50  and  C_22 
REMARK    7  A    between atoms: C_30  and  C_23 
REMARK    8  A    between atoms: C_36  and  C_23 
REMARK    9  A    between atoms: C_37  and  C_27 
REMARK   10  A    between atoms: N_49  and  C_27 
REMARK   11  A    between atoms: C_32  and  C_28 
REMARK   12  A    between atoms: O_58  and  C_28 
REMARK   13  A    between atoms: C_44  and  C_33 
REMARK   14  A    between atoms: C_37  and  C_36 
REMARK   15  A    between atoms: C_36  and  N_47 
REMARK   16  A    between atoms: C_37  and  O_51 
REMARK   17  A    between atoms: O_56  and  C_40 
REMARK   18  A    between atoms: O_57  and  C_41 
REMARK       I    between atoms: N_49  and  C_42 
REMARK   19  A    between atoms: O_58  and  C_43 
REMARK   20  A    between atoms: N_47  and  C_44 
REMARK   21  A    between atoms: C_44  and  O_53 
ROOT
HETATM    1  C   UNK N   1      34.411  15.808   9.436  0.00  0.00     0.118 C 
ENDROOT
BRANCH   1   2
HETATM    2  C   UNK N   1      33.880  14.491   8.860  0.00  0.00     0.066 C 
BRANCH   2   3
HETATM    3  C   UNK N   1      34.521  14.036   7.581  0.00  0.00    -0.056 A 
HETATM    4  C   UNK N   1      35.297  14.953   6.865  0.00  0.00     0.007 A 
HETATM    5  C   UNK N   1      35.881  14.586   5.649  0.00  0.00     0.001 A 
HETATM    6  C   UNK N   1      35.689  13.298   5.142  0.00  0.00     0.000 A 
HETATM    7  C   UNK N   1      34.914  12.376   5.852  0.00  0.00     0.001 A 
HETATM    8  C   UNK N   1      34.328  12.745   7.066  0.00  0.00     0.007 A 
ENDBRANCH   2   3
ENDBRANCH   1   2
BRANCH   1   9
HETATM    9  C   UNK N   1      34.711  15.576  10.920  0.00  0.00     0.159 C 
BRANCH   9  10
HETATM   10  C   UNK N   1      36.219  15.230  11.050  0.00  0.00     0.159 C 
BRANCH  10  11
HETATM   11  N   UNK N   1      36.466  13.895  11.495  0.00  0.00    -0.350 N 
HETATM   12  C   UNK N   1      36.496  13.672  12.841  0.00  0.00     0.221 C 
HETATM   13  O   UNK N   1      36.319  14.600  13.619  0.00  0.00    -0.273 OA
BRANCH  11  14
HETATM   14  C   UNK N   1      36.753  12.874  10.493  0.00  0.00     0.126 C 
BRANCH  14  15
HETATM   15  C   UNK N   1      37.498  13.536   9.332  0.00  0.00     0.024 C 
BRANCH  15  16
HETATM   16  C   UNK N   1      38.566  12.808   8.517  0.00  0.00    -0.010 C 
HETATM   17  C   UNK N   1      39.760  12.218   9.299  0.00  0.00     0.007 C 
HETATM   18  C   UNK N   1      40.801  11.538   8.357  0.00  0.00     0.035 C 
HETATM   19  C   UNK N   1      40.646  11.998   6.895  0.00  0.00     0.153 C 
HETATM   20  C   UNK N   1      40.437  13.468   6.881  0.00  0.00     0.153 C 
HETATM   21  O   UNK N   1      41.770  11.837   6.100  0.00  0.00    -0.359 OA
HETATM   22  C   UNK N   1      39.044  13.802   7.426  0.00  0.00     0.039 C 
HETATM   23  O   UNK N   1      40.624  13.804   5.549  0.00  0.00    -0.359 OA
HETATM   24  C   UNK N   1      41.601  12.862   5.131  0.00  0.00     0.339 C 
ENDBRANCH  15  16
ENDBRANCH  14  15
ENDBRANCH  11  14
BRANCH  12  25
HETATM   25  C   UNK N   1      36.771  12.340  13.414  0.00  0.00     0.123 C 
BRANCH  25  26
HETATM   26  C   UNK N   1      35.492  11.639  13.831  0.00  0.00     0.145 C 
BRANCH  26  27
HETATM   27  N   UNK N   1      35.532  11.480  15.262  0.00  0.00    -0.279 N 
HETATM   28  C   UNK N   1      35.026  12.360  16.154  0.00  0.00     0.261 A 
HETATM   29  C   UNK N   1      35.334  11.907  17.500  0.00  0.00     0.048 A 
HETATM   30  O   UNK N   1      34.435  13.386  15.856  0.00  0.00    -0.267 OA
HETATM   31  C   UNK N   1      35.075  12.470  18.741  0.00  0.00     0.018 A 
HETATM   32  C   UNK N   1      36.023  10.721  17.364  0.00  0.00     0.048 A 
HETATM   33  C   UNK N   1      35.541  11.786  19.876  0.00  0.00     0.001 A 
HETATM   34  C   UNK N   1      36.250  10.569  19.740  0.00  0.00     0.001 A 
HETATM   35  C   UNK N   1      36.499  10.023  18.467  0.00  0.00     0.018 A 
HETATM   36  C   UNK N   1      36.122  10.466  15.930  0.00  0.00     0.261 A 
HETATM   37  O   UNK N   1      36.656   9.506  15.402  0.00  0.00    -0.267 OA
ENDBRANCH  26  27
ENDBRANCH  25  26
ENDBRANCH  12  25
ENDBRANCH  10  11
ENDBRANCH   9  10
BRANCH   9  38
HETATM   38  O   UNK N   1      33.933  14.504  11.354  0.00  0.00    -0.392 OA
HETATM   39  H   UNK N   1      33.215  14.030  10.905  0.00  0.00     0.210 HD
ENDBRANCH   9  38
ENDBRANCH   1   9
BRANCH   1  40
HETATM   40  N   UNK N   1      33.364  16.814   9.434  0.00  0.00    -0.363 N 
ATOM     41  HN  UNK N   1      33.052  17.138  10.349  1.00  0.00     0.162 HD
BRANCH  40  42
HETATM   42  C   UNK N   1      32.780  17.346   8.417  0.00  0.00     0.146 C 
BRANCH  42  43
HETATM   43  C   UNK N   1      31.784  16.654   7.586  0.00  0.00     0.020 C 
HETATM   44  C   UNK N   1      30.477  16.898   7.986  0.00  0.00     0.055 C 
HETATM   45  C   UNK N   1      29.522  17.313   7.077  0.00  0.00     0.105 C 
HETATM   46  C   UNK N   1      29.880  17.414   5.707  0.00  0.00     0.135 C 
HETATM   47  C   UNK N   1      31.141  16.968   5.275  0.00  0.00     0.105 C 
HETATM   48  C   UNK N   1      32.090  16.607   6.226  0.00  0.00     0.055 C 
BRANCH  45  49
HETATM   49  O   UNK N   1      28.338  17.726   7.588  0.00  0.00    -0.353 OA
HETATM   50  C   UNK N   1      28.198  18.622   8.619  0.00  0.00     0.210 C 
ENDBRANCH  45  49
BRANCH  46  51
HETATM   51  O   UNK N   1      29.072  18.021   4.825  0.00  0.00    -0.341 OA
BRANCH  51  52
HETATM   52  C   UNK N   1      28.103  17.403   4.092  0.00  0.00     0.214 C 
BRANCH  52  53
HETATM   53  C   UNK N   1      27.006  18.388   3.948  0.00  0.00    -0.034 A 
HETATM   54  C   UNK N   1      27.297  19.742   3.757  0.00  0.00     0.009 A 
HETATM   55  C   UNK N   1      26.257  20.656   3.567  0.00  0.00     0.001 A 
HETATM   56  C   UNK N   1      24.930  20.215   3.562  0.00  0.00     0.000 A 
HETATM   57  C   UNK N   1      24.641  18.859   3.743  0.00  0.00     0.001 A 
HETATM   58  C   UNK N   1      25.679  17.947   3.929  0.00  0.00     0.009 A 
ENDBRANCH  52  53
ENDBRANCH  51  52
ENDBRANCH  46  51
BRANCH  47  59
HETATM   59  O   UNK N   1      31.451  16.991   3.955  0.00  0.00    -0.353 OA
HETATM   60  C   UNK N   1      32.730  17.179   3.480  0.00  0.00     0.210 C 
ENDBRANCH  47  59
ENDBRANCH  42  43
BRANCH  42  61
HETATM   61  O   UNK N   1      32.934  18.672   8.231  0.00  0.00    -0.346 OA
HETATM   62  H   UNK N   1      32.822  19.540   8.563  0.00  0.00     0.219 HD
ENDBRANCH  42  61
ENDBRANCH  40  42
ENDBRANCH   1  40
TORSDOF 21
ENDMDL
MODEL 9
REMARK VINA RESULT:      -7.4      2.239      9.281
REMARK  21 active torsions:
REMARK  status: ('A' for Active; 'I' for Inactive)
REMARK    1  A    between atoms: C_21  and  C_19 
REMARK    2  A    between atoms: C_31  and  C_19 
REMARK    3  A    between atoms: C_22  and  C_20 
REMARK    4  A    between atoms: C_42  and  C_20 
REMARK    5  A    between atoms: N_49  and  C_21 
REMARK    6  A    between atoms: N_50  and  C_22 
REMARK    7  A    between atoms: C_30  and  C_23 
REMARK    8  A    between atoms: C_36  and  C_23 
REMARK    9  A    between atoms: C_37  and  C_27 
REMARK   10  A    between atoms: N_49  and  C_27 
REMARK   11  A    between atoms: C_32  and  C_28 
REMARK   12  A    between atoms: O_58  and  C_28 
REMARK   13  A    between atoms: C_44  and  C_33 
REMARK   14  A    between atoms: C_37  and  C_36 
REMARK   15  A    between atoms: C_36  and  N_47 
REMARK   16  A    between atoms: C_37  and  O_51 
REMARK   17  A    between atoms: O_56  and  C_40 
REMARK   18  A    between atoms: O_57  and  C_41 
REMARK       I    between atoms: N_49  and  C_42 
REMARK   19  A    between atoms: O_58  and  C_43 
REMARK   20  A    between atoms: N_47  and  C_44 
REMARK   21  A    between atoms: C_44  and  O_53 
ROOT
HETATM    1  C   UNK N   1      36.681  13.214  13.235  0.00  0.00     0.118 C 
ENDROOT
BRANCH   1   2
HETATM    2  C   UNK N   1      36.212  12.707  14.603  0.00  0.00     0.066 C 
BRANCH   2   3
HETATM    3  C   UNK N   1      36.315  13.692  15.731  0.00  0.00    -0.056 A 
HETATM    4  C   UNK N   1      35.500  13.503  16.853  0.00  0.00     0.007 A 
HETATM    5  C   UNK N   1      35.533  14.415  17.911  0.00  0.00     0.001 A 
HETATM    6  C   UNK N   1      36.381  15.525  17.851  0.00  0.00     0.000 A 
HETATM    7  C   UNK N   1      37.197  15.721  16.734  0.00  0.00     0.001 A 
HETATM    8  C   UNK N   1      37.162  14.809  15.675  0.00  0.00     0.007 A 
ENDBRANCH   2   3
ENDBRANCH   1   2
BRANCH   1   9
HETATM    9  C   UNK N   1      35.451  13.299  12.327  0.00  0.00     0.159 C 
BRANCH   9  10
HETATM   10  C   UNK N   1      35.203  14.797  12.003  0.00  0.00     0.159 C 
BRANCH  10  11
HETATM   11  N   UNK N   1      34.838  15.038  10.643  0.00  0.00    -0.350 N 
HETATM   12  C   UNK N   1      34.894  16.324  10.190  0.00  0.00     0.221 C 
HETATM   13  O   UNK N   1      35.246  17.223  10.943  0.00  0.00    -0.273 OA
BRANCH  11  14
HETATM   14  C   UNK N   1      34.348  13.915   9.849  0.00  0.00     0.126 C 
BRANCH  14  15
HETATM   15  C   UNK N   1      35.333  13.672   8.703  0.00  0.00     0.024 C 
BRANCH  15  16
HETATM   16  C   UNK N   1      34.882  13.485   7.255  0.00  0.00    -0.010 C 
HETATM   17  C   UNK N   1      35.398  14.513   6.224  0.00  0.00     0.007 C 
HETATM   18  C   UNK N   1      34.836  14.243   4.794  0.00  0.00     0.035 C 
HETATM   19  C   UNK N   1      33.588  13.341   4.823  0.00  0.00     0.153 C 
HETATM   20  C   UNK N   1      32.702  13.795   5.926  0.00  0.00     0.153 C 
HETATM   21  O   UNK N   1      32.766  13.431   3.710  0.00  0.00    -0.359 OA
HETATM   22  C   UNK N   1      33.332  13.440   7.278  0.00  0.00     0.039 C 
HETATM   23  O   UNK N   1      31.507  13.142   5.663  0.00  0.00    -0.359 OA
HETATM   24  C   UNK N   1      31.497  13.082   4.245  0.00  0.00     0.339 C 
ENDBRANCH  15  16
ENDBRANCH  14  15
ENDBRANCH  11  14
BRANCH  12  25
HETATM   25  C   UNK N   1      34.512  16.694   8.813  0.00  0.00     0.123 C 
BRANCH  25  26
HETATM   26  C   UNK N   1      33.199  17.453   8.785  0.00  0.00     0.145 C 
BRANCH  26  27
HETATM   27  N   UNK N   1      32.668  17.351   7.450  0.00  0.00    -0.279 N 
HETATM   28  C   UNK N   1      31.404  16.983   7.145  0.00  0.00     0.261 A 
HETATM   29  C   UNK N   1      31.264  16.906   5.700  0.00  0.00     0.048 A 
HETATM   30  O   UNK N   1      30.538  16.727   7.967  0.00  0.00    -0.267 OA
HETATM   31  C   UNK N   1      30.193  16.539   4.898  0.00  0.00     0.018 A 
HETATM   32  C   UNK N   1      32.487  17.259   5.171  0.00  0.00     0.048 A 
HETATM   33  C   UNK N   1      30.391  16.538   3.507  0.00  0.00     0.001 A 
HETATM   34  C   UNK N   1      31.645  16.899   2.961  0.00  0.00     0.001 A 
HETATM   35  C   UNK N   1      32.715  17.266   3.800  0.00  0.00     0.018 A 
HETATM   36  C   UNK N   1      33.356  17.551   6.307  0.00  0.00     0.261 A 
HETATM   37  O   UNK N   1      34.521  17.908   6.252  0.00  0.00    -0.267 OA
ENDBRANCH  26  27
ENDBRANCH  25  26
ENDBRANCH  12  25
ENDBRANCH  10  11
ENDBRANCH   9  10
BRANCH   9  38
HETATM   38  O   UNK N   1      34.364  12.772  13.023  0.00  0.00    -0.392 OA
HETATM   39  H   UNK N   1      34.320  12.378  13.909  0.00  0.00     0.210 HD
ENDBRANCH   9  38
ENDBRANCH   1   9
BRANCH   1  40
HETATM   40  N   UNK N   1      37.530  12.224  12.599  0.00  0.00    -0.363 N 
ATOM     41  HN  UNK N   1      37.753  11.399  13.157  1.00  0.00     0.162 HD
BRANCH  40  42
HETATM   42  C   UNK N   1      38.038  12.259  11.416  0.00  0.00     0.146 C 
BRANCH  42  43
HETATM   43  C   UNK N   1      38.056  11.113  10.495  0.00  0.00     0.020 C 
HETATM   44  C   UNK N   1      36.900  10.347  10.557  0.00  0.00     0.055 C 
HETATM   45  C   UNK N   1      36.202  10.020   9.409  0.00  0.00     0.105 C 
HETATM   46  C   UNK N   1      36.728  10.417   8.153  0.00  0.00     0.135 C 
HETATM   47  C   UNK N   1      38.000  11.010   8.078  0.00  0.00     0.105 C 
HETATM   48  C   UNK N   1      38.647  11.369   9.258  0.00  0.00     0.055 C 
BRANCH  45  49
HETATM   49  O   UNK N   1      34.983   9.454   9.581  0.00  0.00    -0.353 OA
HETATM   50  C   UNK N   1      33.825  10.147   9.834  0.00  0.00     0.210 C 
ENDBRANCH  45  49
BRANCH  46  51
HETATM   51  O   UNK N   1      35.990  10.329   7.036  0.00  0.00    -0.341 OA
BRANCH  51  52
HETATM   52  C   UNK N   1      35.817   9.197   6.295  0.00  0.00     0.214 C 
BRANCH  52  53
HETATM   53  C   UNK N   1      34.363   8.914   6.312  0.00  0.00    -0.034 A 
HETATM   54  C   UNK N   1      33.895   7.664   6.726  0.00  0.00     0.009 A 
HETATM   55  C   UNK N   1      32.520   7.423   6.791  0.00  0.00     0.001 A 
HETATM   56  C   UNK N   1      31.616   8.435   6.449  0.00  0.00     0.000 A 
HETATM   57  C   UNK N   1      32.086   9.688   6.046  0.00  0.00     0.001 A 
HETATM   58  C   UNK N   1      33.458   9.928   5.983  0.00  0.00     0.009 A 
ENDBRANCH  52  53
ENDBRANCH  51  52
ENDBRANCH  46  51
BRANCH  47  59
HETATM   59  O   UNK N   1      38.535  11.316   6.870  0.00  0.00    -0.353 OA
HETATM   60  C   UNK N   1      39.606  12.166   6.709  0.00  0.00     0.210 C 
ENDBRANCH  47  59
ENDBRANCH  42  43
BRANCH  42  61
HETATM   61  O   UNK N   1      38.383  13.464  10.919  0.00  0.00    -0.346 OA
HETATM   62  H   UNK N   1      38.332  14.078  10.214  0.00  0.00     0.219 HD
ENDBRANCH  42  61
ENDBRANCH  40  42
ENDBRANCH   1  40
TORSDOF 21
ENDMDL
