MODEL 1
REMARK VINA RESULT:      -6.6      0.000      0.000
REMARK  11 active torsions:
REMARK  status: ('A' for Active; 'I' for Inactive)
REMARK    1  A    between atoms: C_3  and  C_2 
REMARK    2  A    between atoms: O_26  and  C_3 
REMARK    3  A    between atoms: C_7  and  C_4 
REMARK    4  A    between atoms: O_27  and  C_4 
REMARK    5  A    between atoms: C_9  and  O_22 
REMARK    6  A    between atoms: C_10  and  O_23 
REMARK    7  A    between atoms: N_14  and  C_11 
REMARK    8  A    between atoms: C_13  and  N_21 
REMARK    9  A    between atoms: P_29  and  O_24 
REMARK   10  A    between atoms: P_29  and  O_26 
REMARK   11  A    between atoms: P_29  and  O_27 
ROOT
HETATM    1  C   UNK N   1      30.498  17.308   8.034  0.00  0.00     0.180 C 
HETATM    2  C   UNK N   1      29.635  17.375   9.316  0.00  0.00     0.182 C 
HETATM    3  C   UNK N   1      28.208  17.341   8.773  0.00  0.00     0.198 C 
HETATM    4  C   UNK N   1      28.436  16.904   7.334  0.00  0.00     0.262 C 
HETATM    5  O   UNK N   1      29.636  17.535   6.941  0.00  0.00    -0.353 OA
ENDROOT
BRANCH   4   6
HETATM    6  N   UNK N   1      27.329  17.261   6.435  0.00  0.00    -0.297 N 
HETATM    7  C   UNK N   1      26.255  16.488   6.125  0.00  0.00     0.188 A 
HETATM    8  N   UNK N   1      25.383  17.149   5.311  0.00  0.00    -0.346 N 
HETATM    9  C   UNK N   1      25.950  18.354   5.126  0.00  0.00     0.122 A 
ATOM     10  HN  UNK N   1      24.501  16.807   4.930  1.00  0.00     0.167 HD
HETATM   11  C   UNK N   1      25.496  19.450   4.410  0.00  0.00     0.131 A 
HETATM   12  C   UNK N   1      27.122  18.417   5.791  0.00  0.00     0.142 A 
HETATM   13  N   UNK N   1      26.279  20.570   4.392  0.00  0.00    -0.337 N 
HETATM   14  C   UNK N   1      27.477  20.607   5.066  0.00  0.00     0.183 A 
ATOM     15  HN  UNK N   1      25.970  21.390   3.870  1.00  0.00     0.168 HD
HETATM   16  N   UNK N   1      27.905  19.522   5.784  0.00  0.00    -0.336 N 
ATOM     17  HN  UNK N   1      28.786  19.545   6.298  1.00  0.00     0.168 HD
BRANCH  11  18
HETATM   18  N   UNK N   1      24.259  19.424   3.736  0.00  0.00    -0.383 N 
HETATM   19  H   UNK N   1      23.697  20.230   3.669  0.00  0.00     0.157 HD
HETATM   20  H   UNK N   1      23.951  18.585   3.324  0.00  0.00     0.157 HD
ENDBRANCH  11  18
ENDBRANCH   4   6
BRANCH   3  21
HETATM   21  O   UNK N   1      27.675  18.637   8.765  0.00  0.00    -0.388 OA
HETATM   22  H   UNK N   1      27.034  19.361   8.697  0.00  0.00     0.210 HD
ENDBRANCH   3  21
BRANCH   2  23
HETATM   23  O   UNK N   1      29.835  18.539  10.069  0.00  0.00    -0.390 OA
HETATM   24  H   UNK N   1      29.550  19.266  10.642  0.00  0.00     0.210 HD
ENDBRANCH   2  23
BRANCH   1  25
HETATM   25  C   UNK N   1      31.727  18.233   7.956  0.00  0.00     0.215 C 
BRANCH  25  26
HETATM   26  O   UNK N   1      32.749  17.863   8.843  0.00  0.00    -0.294 OA
BRANCH  26  27
HETATM   27  P   UNK N   1      34.290  17.846   8.018  0.00  0.00     0.393 P 
HETATM   28  O   UNK N   1      35.049  16.527   8.327  0.00  0.00    -0.631 OA
BRANCH  27  29
HETATM   29  O   UNK N   1      35.296  19.149   8.566  0.00  0.00    -0.307 OA
HETATM   30  H   UNK N   1      35.737  19.138   9.430  0.00  0.00     0.222 HD
ENDBRANCH  27  29
BRANCH  27  31
HETATM   31  O   UNK N   1      34.076  17.916   6.291  0.00  0.00    -0.297 OA
BRANCH  31  32
HETATM   32  C   UNK N   1      34.101  16.585   5.862  0.00  0.00     0.180 C 
BRANCH  32  33
HETATM   33  C   UNK N   1      32.970  16.322   4.882  0.00  0.00     0.022 C 
HETATM   34  C   UNK N   1      32.476  17.620   4.272  0.00  0.00     0.007 C 
ENDBRANCH  32  33
ENDBRANCH  31  32
ENDBRANCH  27  31
ENDBRANCH  26  27
ENDBRANCH  25  26
ENDBRANCH   1  25
TORSDOF 11
ENDMDL
MODEL 2
REMARK VINA RESULT:      -6.6      9.515     12.095
REMARK  11 active torsions:
REMARK  status: ('A' for Active; 'I' for Inactive)
REMARK    1  A    between atoms: C_3  and  C_2 
REMARK    2  A    between atoms: O_26  and  C_3 
REMARK    3  A    between atoms: C_7  and  C_4 
REMARK    4  A    between atoms: O_27  and  C_4 
REMARK    5  A    between atoms: C_9  and  O_22 
REMARK    6  A    between atoms: C_10  and  O_23 
REMARK    7  A    between atoms: N_14  and  C_11 
REMARK    8  A    between atoms: C_13  and  N_21 
REMARK    9  A    between atoms: P_29  and  O_24 
REMARK   10  A    between atoms: P_29  and  O_26 
REMARK   11  A    between atoms: P_29  and  O_27 
ROOT
HETATM    1  C   UNK N   1      35.145  13.155  12.742  0.00  0.00     0.180 C 
HETATM    2  C   UNK N   1      36.515  12.471  12.517  0.00  0.00     0.182 C 
HETATM    3  C   UNK N   1      36.678  11.608  13.767  0.00  0.00     0.198 C 
HETATM    4  C   UNK N   1      35.270  11.628  14.341  0.00  0.00     0.262 C 
HETATM    5  O   UNK N   1      34.784  12.929  14.086  0.00  0.00    -0.353 OA
ENDROOT
BRANCH   4   6
HETATM    6  N   UNK N   1      35.222  11.315  15.776  0.00  0.00    -0.297 N 
HETATM    7  C   UNK N   1      35.192  10.077  16.336  0.00  0.00     0.188 A 
HETATM    8  N   UNK N   1      35.216  10.144  17.698  0.00  0.00    -0.346 N 
HETATM    9  C   UNK N   1      35.261  11.461  17.964  0.00  0.00     0.122 A 
ATOM     10  HN  UNK N   1      35.204   9.371  18.362  1.00  0.00     0.167 HD
HETATM   11  C   UNK N   1      35.330  12.120  19.181  0.00  0.00     0.131 A 
HETATM   12  C   UNK N   1      35.254  12.164  16.813  0.00  0.00     0.142 A 
HETATM   13  N   UNK N   1      35.372  13.486  19.167  0.00  0.00    -0.337 N 
HETATM   14  C   UNK N   1      35.349  14.182  17.981  0.00  0.00     0.183 A 
ATOM     15  HN  UNK N   1      35.420  13.996  20.048  1.00  0.00     0.168 HD
HETATM   16  N   UNK N   1      35.298  13.517  16.784  0.00  0.00    -0.336 N 
ATOM     17  HN  UNK N   1      35.294  14.025  15.899  1.00  0.00     0.168 HD
BRANCH  11  18
HETATM   18  N   UNK N   1      35.376  11.410  20.398  0.00  0.00    -0.383 N 
HETATM   19  H   UNK N   1      35.439  10.428  20.414  0.00  0.00     0.157 HD
HETATM   20  H   UNK N   1      35.345  11.906  21.247  0.00  0.00     0.157 HD
ENDBRANCH  11  18
ENDBRANCH   4   6
BRANCH   3  21
HETATM   21  O   UNK N   1      37.537  12.246  14.672  0.00  0.00    -0.388 OA
HETATM   22  H   UNK N   1      38.195  12.373  15.372  0.00  0.00     0.210 HD
ENDBRANCH   3  21
BRANCH   2  23
HETATM   23  O   UNK N   1      37.583  13.371  12.413  0.00  0.00    -0.390 OA
HETATM   24  H   UNK N   1      37.976  14.253  12.330  0.00  0.00     0.210 HD
ENDBRANCH   2  23
BRANCH   1  25
HETATM   25  C   UNK N   1      35.034  14.652  12.396  0.00  0.00     0.215 C 
BRANCH  25  26
HETATM   26  O   UNK N   1      34.416  14.884  11.158  0.00  0.00    -0.294 OA
BRANCH  26  27
HETATM   27  P   UNK N   1      35.482  15.788  10.108  0.00  0.00     0.393 P 
HETATM   28  O   UNK N   1      35.734  15.001   8.793  0.00  0.00    -0.631 OA
BRANCH  27  29
HETATM   29  O   UNK N   1      37.028  16.028  10.860  0.00  0.00    -0.307 OA
HETATM   30  H   UNK N   1      37.813  16.295  10.358  0.00  0.00     0.222 HD
ENDBRANCH  27  29
BRANCH  27  31
HETATM   31  O   UNK N   1      34.772  17.313   9.658  0.00  0.00    -0.297 OA
BRANCH  31  32
HETATM   32  C   UNK N   1      34.047  17.052   8.490  0.00  0.00     0.180 C 
BRANCH  32  33
HETATM   33  C   UNK N   1      33.071  18.182   8.207  0.00  0.00     0.022 C 
HETATM   34  C   UNK N   1      31.643  17.674   8.225  0.00  0.00     0.007 C 
ENDBRANCH  32  33
ENDBRANCH  31  32
ENDBRANCH  27  31
ENDBRANCH  26  27
ENDBRANCH  25  26
ENDBRANCH   1  25
TORSDOF 11
ENDMDL
MODEL 3
REMARK VINA RESULT:      -6.4      7.696     10.418
REMARK  11 active torsions:
REMARK  status: ('A' for Active; 'I' for Inactive)
REMARK    1  A    between atoms: C_3  and  C_2 
REMARK    2  A    between atoms: O_26  and  C_3 
REMARK    3  A    between atoms: C_7  and  C_4 
REMARK    4  A    between atoms: O_27  and  C_4 
REMARK    5  A    between atoms: C_9  and  O_22 
REMARK    6  A    between atoms: C_10  and  O_23 
REMARK    7  A    between atoms: N_14  and  C_11 
REMARK    8  A    between atoms: C_13  and  N_21 
REMARK    9  A    between atoms: P_29  and  O_24 
REMARK   10  A    between atoms: P_29  and  O_26 
REMARK   11  A    between atoms: P_29  and  O_27 
ROOT
HETATM    1  C   UNK N   1      35.072  15.027  10.648  0.00  0.00     0.180 C 
HETATM    2  C   UNK N   1      36.444  14.462  10.210  0.00  0.00     0.182 C 
HETATM    3  C   UNK N   1      36.536  13.145  10.979  0.00  0.00     0.198 C 
HETATM    4  C   UNK N   1      35.102  12.963  11.450  0.00  0.00     0.262 C 
HETATM    5  O   UNK N   1      34.642  14.263  11.752  0.00  0.00    -0.353 OA
ENDROOT
BRANCH   4   6
HETATM    6  N   UNK N   1      34.980  12.072  12.612  0.00  0.00    -0.297 N 
HETATM    7  C   UNK N   1      34.660  10.751  12.592  0.00  0.00     0.188 A 
HETATM    8  N   UNK N   1      34.698  10.209  13.843  0.00  0.00    -0.346 N 
HETATM    9  C   UNK N   1      35.050  11.234  14.638  0.00  0.00     0.122 A 
ATOM     10  HN  UNK N   1      34.504   9.245  14.114  1.00  0.00     0.167 HD
HETATM   11  C   UNK N   1      35.269  11.264  16.006  0.00  0.00     0.131 A 
HETATM   12  C   UNK N   1      35.208  12.354  13.902  0.00  0.00     0.142 A 
HETATM   13  N   UNK N   1      35.630  12.456  16.569  0.00  0.00    -0.337 N 
HETATM   14  C   UNK N   1      35.772  13.587  15.801  0.00  0.00     0.183 A 
ATOM     15  HN  UNK N   1      35.795  12.506  17.575  1.00  0.00     0.168 HD
HETATM   16  N   UNK N   1      35.569  13.540  14.447  0.00  0.00    -0.336 N 
ATOM     17  HN  UNK N   1      35.685  14.371  13.868  1.00  0.00     0.168 HD
BRANCH  11  18
HETATM   18  N   UNK N   1      35.146  10.102  16.794  0.00  0.00    -0.383 N 
HETATM   19  H   UNK N   1      35.197  10.144  17.777  0.00  0.00     0.157 HD
HETATM   20  H   UNK N   1      35.006   9.233  16.354  0.00  0.00     0.157 HD
ENDBRANCH  11  18
ENDBRANCH   4   6
BRANCH   3  21
HETATM   21  O   UNK N   1      37.356  13.313  12.103  0.00  0.00    -0.388 OA
HETATM   22  H   UNK N   1      37.631  13.502  13.014  0.00  0.00     0.210 HD
ENDBRANCH   3  21
BRANCH   2  23
HETATM   23  O   UNK N   1      37.525  15.288  10.541  0.00  0.00    -0.390 OA
HETATM   24  H   UNK N   1      38.287  15.555  11.076  0.00  0.00     0.210 HD
ENDBRANCH   2  23
BRANCH   1  25
HETATM   25  C   UNK N   1      34.994  16.531  10.967  0.00  0.00     0.215 C 
BRANCH  25  26
HETATM   26  O   UNK N   1      35.640  17.329  10.011  0.00  0.00    -0.294 OA
BRANCH  26  27
HETATM   27  P   UNK N   1      34.563  17.668   8.676  0.00  0.00     0.393 P 
HETATM   28  O   UNK N   1      34.706  19.150   8.234  0.00  0.00    -0.631 OA
BRANCH  27  29
HETATM   29  O   UNK N   1      32.908  17.437   9.147  0.00  0.00    -0.307 OA
HETATM   30  H   UNK N   1      32.283  16.924   8.612  0.00  0.00     0.222 HD
ENDBRANCH  27  29
BRANCH  27  31
HETATM   31  O   UNK N   1      34.953  16.687   7.292  0.00  0.00    -0.297 OA
BRANCH  31  32
HETATM   32  C   UNK N   1      33.803  15.933   7.038  0.00  0.00     0.180 C 
BRANCH  32  33
HETATM   33  C   UNK N   1      33.441  15.995   5.563  0.00  0.00     0.022 C 
HETATM   34  C   UNK N   1      33.280  17.434   5.112  0.00  0.00     0.007 C 
ENDBRANCH  32  33
ENDBRANCH  31  32
ENDBRANCH  27  31
ENDBRANCH  26  27
ENDBRANCH  25  26
ENDBRANCH   1  25
TORSDOF 11
ENDMDL
MODEL 4
REMARK VINA RESULT:      -6.3      4.406      6.224
REMARK  11 active torsions:
REMARK  status: ('A' for Active; 'I' for Inactive)
REMARK    1  A    between atoms: C_3  and  C_2 
REMARK    2  A    between atoms: O_26  and  C_3 
REMARK    3  A    between atoms: C_7  and  C_4 
REMARK    4  A    between atoms: O_27  and  C_4 
REMARK    5  A    between atoms: C_9  and  O_22 
REMARK    6  A    between atoms: C_10  and  O_23 
REMARK    7  A    between atoms: N_14  and  C_11 
REMARK    8  A    between atoms: C_13  and  N_21 
REMARK    9  A    between atoms: P_29  and  O_24 
REMARK   10  A    between atoms: P_29  and  O_26 
REMARK   11  A    between atoms: P_29  and  O_27 
ROOT
HETATM    1  C   UNK N   1      34.668  16.609   8.862  0.00  0.00     0.180 C 
HETATM    2  C   UNK N   1      34.665  15.221   8.178  0.00  0.00     0.182 C 
HETATM    3  C   UNK N   1      33.430  15.281   7.281  0.00  0.00     0.198 C 
HETATM    4  C   UNK N   1      33.114  16.769   7.292  0.00  0.00     0.262 C 
HETATM    5  O   UNK N   1      33.415  17.202   8.601  0.00  0.00    -0.353 OA
ENDROOT
BRANCH   4   6
HETATM    6  N   UNK N   1      31.719  17.069   6.941  0.00  0.00    -0.297 N 
HETATM    7  C   UNK N   1      31.206  17.192   5.688  0.00  0.00     0.188 A 
HETATM    8  N   UNK N   1      29.860  17.411   5.719  0.00  0.00    -0.346 N 
HETATM    9  C   UNK N   1      29.555  17.419   7.028  0.00  0.00     0.122 A 
ATOM     10  HN  UNK N   1      29.229  17.538   4.928  1.00  0.00     0.167 HD
HETATM   11  C   UNK N   1      28.329  17.571   7.654  0.00  0.00     0.131 A 
HETATM   12  C   UNK N   1      30.671  17.226   7.761  0.00  0.00     0.142 A 
HETATM   13  N   UNK N   1      28.300  17.533   9.020  0.00  0.00    -0.337 N 
HETATM   14  C   UNK N   1      29.452  17.348   9.748  0.00  0.00     0.183 A 
ATOM     15  HN  UNK N   1      27.410  17.644   9.507  1.00  0.00     0.168 HD
HETATM   16  N   UNK N   1      30.656  17.183   9.115  0.00  0.00    -0.336 N 
ATOM     17  HN  UNK N   1      31.513  17.032   9.646  1.00  0.00     0.168 HD
BRANCH  11  18
HETATM   18  N   UNK N   1      27.142  17.739   6.913  0.00  0.00    -0.383 N 
HETATM   19  H   UNK N   1      27.082  17.451   5.973  0.00  0.00     0.157 HD
HETATM   20  H   UNK N   1      26.359  18.152   7.342  0.00  0.00     0.157 HD
ENDBRANCH  11  18
ENDBRANCH   4   6
BRANCH   3  21
HETATM   21  O   UNK N   1      32.371  14.596   7.890  0.00  0.00    -0.388 OA
HETATM   22  H   UNK N   1      31.532  14.432   8.349  0.00  0.00     0.210 HD
ENDBRANCH   3  21
BRANCH   2  23
HETATM   23  O   UNK N   1      34.555  14.152   9.075  0.00  0.00    -0.390 OA
HETATM   24  H   UNK N   1      34.395  13.756   9.945  0.00  0.00     0.210 HD
ENDBRANCH   2  23
BRANCH   1  25
HETATM   25  C   UNK N   1      34.987  16.657  10.367  0.00  0.00     0.215 C 
BRANCH  25  26
HETATM   26  O   UNK N   1      36.196  16.024  10.692  0.00  0.00    -0.294 OA
BRANCH  26  27
HETATM   27  P   UNK N   1      35.913  14.723  11.826  0.00  0.00     0.393 P 
HETATM   28  O   UNK N   1      36.690  13.452  11.388  0.00  0.00    -0.631 OA
BRANCH  27  29
HETATM   29  O   UNK N   1      34.230  14.298  11.867  0.00  0.00    -0.307 OA
HETATM   30  H   UNK N   1      33.723  14.105  11.063  0.00  0.00     0.222 HD
ENDBRANCH  27  29
BRANCH  27  31
HETATM   31  O   UNK N   1      36.482  15.143  13.417  0.00  0.00    -0.297 OA
BRANCH  31  32
HETATM   32  C   UNK N   1      36.135  14.061  14.231  0.00  0.00     0.180 C 
BRANCH  32  33
HETATM   33  C   UNK N   1      36.975  14.058  15.497  0.00  0.00     0.022 C 
HETATM   34  C   UNK N   1      37.335  15.473  15.905  0.00  0.00     0.007 C 
ENDBRANCH  32  33
ENDBRANCH  31  32
ENDBRANCH  27  31
ENDBRANCH  26  27
ENDBRANCH  25  26
ENDBRANCH   1  25
TORSDOF 11
ENDMDL
MODEL 5
REMARK VINA RESULT:      -6.2      7.328      9.611
REMARK  11 active torsions:
REMARK  status: ('A' for Active; 'I' for Inactive)
REMARK    1  A    between atoms: C_3  and  C_2 
REMARK    2  A    between atoms: O_26  and  C_3 
REMARK    3  A    between atoms: C_7  and  C_4 
REMARK    4  A    between atoms: O_27  and  C_4 
REMARK    5  A    between atoms: C_9  and  O_22 
REMARK    6  A    between atoms: C_10  and  O_23 
REMARK    7  A    between atoms: N_14  and  C_11 
REMARK    8  A    between atoms: C_13  and  N_21 
REMARK    9  A    between atoms: P_29  and  O_24 
REMARK   10  A    between atoms: P_29  and  O_26 
REMARK   11  A    between atoms: P_29  and  O_27 
ROOT
HETATM    1  C   UNK N   1      35.749  10.969  10.268  0.00  0.00     0.180 C 
HETATM    2  C   UNK N   1      34.309  10.597   9.842  0.00  0.00     0.182 C 
HETATM    3  C   UNK N   1      33.887  11.785   8.980  0.00  0.00     0.198 C 
HETATM    4  C   UNK N   1      35.218  12.476   8.733  0.00  0.00     0.262 C 
HETATM    5  O   UNK N   1      35.942  12.327   9.936  0.00  0.00    -0.353 OA
ENDROOT
BRANCH   4   6
HETATM    6  N   UNK N   1      35.080  13.893   8.369  0.00  0.00    -0.297 N 
HETATM    7  C   UNK N   1      34.831  14.391   7.128  0.00  0.00     0.188 A 
HETATM    8  N   UNK N   1      34.698  15.748   7.153  0.00  0.00    -0.346 N 
HETATM    9  C   UNK N   1      34.874  16.075   8.445  0.00  0.00     0.122 A 
ATOM     10  HN  UNK N   1      34.509  16.372   6.369  1.00  0.00     0.167 HD
HETATM   11  C   UNK N   1      34.820  17.313   9.064  0.00  0.00     0.131 A 
HETATM   12  C   UNK N   1      35.113  14.964   9.172  0.00  0.00     0.142 A 
HETATM   13  N   UNK N   1      35.033  17.363  10.413  0.00  0.00    -0.337 N 
HETATM   14  C   UNK N   1      35.289  16.220  11.132  0.00  0.00     0.183 A 
ATOM     15  HN  UNK N   1      35.001  18.263  10.893  1.00  0.00     0.168 HD
HETATM   16  N   UNK N   1      35.322  15.000  10.510  0.00  0.00    -0.336 N 
ATOM     17  HN  UNK N   1      35.499  14.144  11.037  1.00  0.00     0.168 HD
BRANCH  11  18
HETATM   18  N   UNK N   1      34.536  18.486   8.335  0.00  0.00    -0.383 N 
HETATM   19  H   UNK N   1      33.719  18.564   7.791  0.00  0.00     0.157 HD
HETATM   20  H   UNK N   1      35.166  19.241   8.370  0.00  0.00     0.157 HD
ENDBRANCH  11  18
ENDBRANCH   4   6
BRANCH   3  21
HETATM   21  O   UNK N   1      33.071  12.644   9.727  0.00  0.00    -0.388 OA
HETATM   22  H   UNK N   1      32.473  13.376   9.947  0.00  0.00     0.210 HD
ENDBRANCH   3  21
BRANCH   2  23
HETATM   23  O   UNK N   1      33.426  10.447  10.918  0.00  0.00    -0.390 OA
HETATM   24  H   UNK N   1      33.202  10.341  11.856  0.00  0.00     0.210 HD
ENDBRANCH   2  23
BRANCH   1  25
HETATM   25  C   UNK N   1      36.147  10.708  11.732  0.00  0.00     0.215 C 
BRANCH  25  26
HETATM   26  O   UNK N   1      35.295  11.336  12.652  0.00  0.00    -0.294 OA
BRANCH  26  27
HETATM   27  P   UNK N   1      36.098  12.704  13.387  0.00  0.00     0.393 P 
HETATM   28  O   UNK N   1      35.090  13.865  13.604  0.00  0.00    -0.631 OA
BRANCH  27  29
HETATM   29  O   UNK N   1      37.352  13.310  12.351  0.00  0.00    -0.307 OA
HETATM   30  H   UNK N   1      37.855  12.735  11.753  0.00  0.00     0.222 HD
ENDBRANCH  27  29
BRANCH  27  31
HETATM   31  O   UNK N   1      36.738  12.289  14.952  0.00  0.00    -0.297 OA
BRANCH  31  32
HETATM   32  C   UNK N   1      35.755  11.497  15.554  0.00  0.00     0.180 C 
BRANCH  32  33
HETATM   33  C   UNK N   1      35.586  11.880  17.015  0.00  0.00     0.022 C 
HETATM   34  C   UNK N   1      34.912  13.232  17.140  0.00  0.00     0.007 C 
ENDBRANCH  32  33
ENDBRANCH  31  32
ENDBRANCH  27  31
ENDBRANCH  26  27
ENDBRANCH  25  26
ENDBRANCH   1  25
TORSDOF 11
ENDMDL
MODEL 6
REMARK VINA RESULT:      -6.2      4.955      8.283
REMARK  11 active torsions:
REMARK  status: ('A' for Active; 'I' for Inactive)
REMARK    1  A    between atoms: C_3  and  C_2 
REMARK    2  A    between atoms: O_26  and  C_3 
REMARK    3  A    between atoms: C_7  and  C_4 
REMARK    4  A    between atoms: O_27  and  C_4 
REMARK    5  A    between atoms: C_9  and  O_22 
REMARK    6  A    between atoms: C_10  and  O_23 
REMARK    7  A    between atoms: N_14  and  C_11 
REMARK    8  A    between atoms: C_13  and  N_21 
REMARK    9  A    between atoms: P_29  and  O_24 
REMARK   10  A    between atoms: P_29  and  O_26 
REMARK   11  A    between atoms: P_29  and  O_27 
ROOT
HETATM    1  C   UNK N   1      31.854  15.300   5.931  0.00  0.00     0.180 C 
HETATM    2  C   UNK N   1      32.711  16.128   4.945  0.00  0.00     0.182 C 
HETATM    3  C   UNK N   1      34.140  15.739   5.319  0.00  0.00     0.198 C 
HETATM    4  C   UNK N   1      33.908  14.512   6.186  0.00  0.00     0.262 C 
HETATM    5  O   UNK N   1      32.728  14.788   6.912  0.00  0.00    -0.353 OA
ENDROOT
BRANCH   4   6
HETATM    6  N   UNK N   1      35.029  14.216   7.089  0.00  0.00    -0.297 N 
HETATM    7  C   UNK N   1      36.077  13.387   6.836  0.00  0.00     0.188 A 
HETATM    8  N   UNK N   1      36.975  13.391   7.863  0.00  0.00    -0.346 N 
HETATM    9  C   UNK N   1      36.451  14.246   8.758  0.00  0.00     0.122 A 
ATOM     10  HN  UNK N   1      37.845  12.865   7.934  1.00  0.00     0.167 HD
HETATM   11  C   UNK N   1      36.946  14.664   9.983  0.00  0.00     0.131 A 
HETATM   12  C   UNK N   1      35.280  14.733   8.299  0.00  0.00     0.142 A 
HETATM   13  N   UNK N   1      36.203  15.559  10.701  0.00  0.00    -0.337 N 
HETATM   14  C   UNK N   1      35.005  16.031  10.219  0.00  0.00     0.183 A 
ATOM     15  HN  UNK N   1      36.544  15.882  11.607  1.00  0.00     0.168 HD
HETATM   16  N   UNK N   1      34.536  15.622   8.998  0.00  0.00    -0.336 N 
ATOM     17  HN  UNK N   1      33.654  15.978   8.628  1.00  0.00     0.168 HD
BRANCH  11  18
HETATM   18  N   UNK N   1      38.184  14.200  10.471  0.00  0.00    -0.383 N 
HETATM   19  H   UNK N   1      38.858  13.812   9.867  0.00  0.00     0.157 HD
HETATM   20  H   UNK N   1      38.379  14.265  11.434  0.00  0.00     0.157 HD
ENDBRANCH  11  18
ENDBRANCH   4   6
BRANCH   3  21
HETATM   21  O   UNK N   1      34.709  16.744   6.113  0.00  0.00    -0.388 OA
HETATM   22  H   UNK N   1      34.785  17.484   6.735  0.00  0.00     0.210 HD
ENDBRANCH   3  21
BRANCH   2  23
HETATM   23  O   UNK N   1      32.540  17.512   5.075  0.00  0.00    -0.390 OA
HETATM   24  H   UNK N   1      32.413  18.411   4.736  0.00  0.00     0.210 HD
ENDBRANCH   2  23
BRANCH   1  25
HETATM   25  C   UNK N   1      30.653  16.003   6.591  0.00  0.00     0.215 C 
BRANCH  25  26
HETATM   26  O   UNK N   1      30.846  17.383   6.752  0.00  0.00    -0.294 OA
BRANCH  26  27
HETATM   27  P   UNK N   1      31.531  17.719   8.326  0.00  0.00     0.393 P 
HETATM   28  O   UNK N   1      33.013  18.159   8.183  0.00  0.00    -0.631 OA
BRANCH  27  29
HETATM   29  O   UNK N   1      31.518  16.295   9.319  0.00  0.00    -0.307 OA
HETATM   30  H   UNK N   1      32.298  15.728   9.423  0.00  0.00     0.222 HD
ENDBRANCH  27  29
BRANCH  27  31
HETATM   31  O   UNK N   1      30.687  19.025   9.110  0.00  0.00    -0.297 OA
BRANCH  31  32
HETATM   32  C   UNK N   1      29.636  18.420   9.806  0.00  0.00     0.180 C 
BRANCH  32  33
HETATM   33  C   UNK N   1      28.360  18.459   8.981  0.00  0.00     0.022 C 
HETATM   34  C   UNK N   1      27.730  17.082   8.902  0.00  0.00     0.007 C 
ENDBRANCH  32  33
ENDBRANCH  31  32
ENDBRANCH  27  31
ENDBRANCH  26  27
ENDBRANCH  25  26
ENDBRANCH   1  25
TORSDOF 11
ENDMDL
MODEL 7
REMARK VINA RESULT:      -6.1      5.140      7.446
REMARK  11 active torsions:
REMARK  status: ('A' for Active; 'I' for Inactive)
REMARK    1  A    between atoms: C_3  and  C_2 
REMARK    2  A    between atoms: O_26  and  C_3 
REMARK    3  A    between atoms: C_7  and  C_4 
REMARK    4  A    between atoms: O_27  and  C_4 
REMARK    5  A    between atoms: C_9  and  O_22 
REMARK    6  A    between atoms: C_10  and  O_23 
REMARK    7  A    between atoms: N_14  and  C_11 
REMARK    8  A    between atoms: C_13  and  N_21 
REMARK    9  A    between atoms: P_29  and  O_24 
REMARK   10  A    between atoms: P_29  and  O_26 
REMARK   11  A    between atoms: P_29  and  O_27 
ROOT
HETATM    1  C   UNK N   1      32.742  16.103   8.456  0.00  0.00     0.180 C 
HETATM    2  C   UNK N   1      33.092  17.598   8.267  0.00  0.00     0.182 C 
HETATM    3  C   UNK N   1      33.155  17.749   6.749  0.00  0.00     0.198 C 
HETATM    4  C   UNK N   1      32.495  16.460   6.284  0.00  0.00     0.262 C 
HETATM    5  O   UNK N   1      32.915  15.476   7.204  0.00  0.00    -0.353 OA
ENDROOT
BRANCH   4   6
HETATM    6  N   UNK N   1      32.852  16.087   4.908  0.00  0.00    -0.297 N 
HETATM    7  C   UNK N   1      32.519  16.758   3.773  0.00  0.00     0.188 A 
HETATM    8  N   UNK N   1      33.067  16.174   2.669  0.00  0.00    -0.346 N 
HETATM    9  C   UNK N   1      33.749  15.122   3.154  0.00  0.00     0.122 A 
ATOM     10  HN  UNK N   1      32.980  16.469   1.697  1.00  0.00     0.167 HD
HETATM   11  C   UNK N   1      34.527  14.185   2.493  0.00  0.00     0.131 A 
HETATM   12  C   UNK N   1      33.612  15.064   4.495  0.00  0.00     0.142 A 
HETATM   13  N   UNK N   1      35.124  13.208   3.240  0.00  0.00    -0.337 N 
HETATM   14  C   UNK N   1      34.958  13.160   4.604  0.00  0.00     0.183 A 
ATOM     15  HN  UNK N   1      35.700  12.505   2.778  1.00  0.00     0.168 HD
HETATM   16  N   UNK N   1      34.200  14.103   5.247  0.00  0.00    -0.336 N 
ATOM     17  HN  UNK N   1      34.083  14.083   6.260  1.00  0.00     0.168 HD
BRANCH  11  18
HETATM   18  N   UNK N   1      34.718  14.243   1.098  0.00  0.00    -0.383 N 
HETATM   19  H   UNK N   1      35.017  15.071   0.657  0.00  0.00     0.157 HD
HETATM   20  H   UNK N   1      34.549  13.441   0.554  0.00  0.00     0.157 HD
ENDBRANCH  11  18
ENDBRANCH   4   6
BRANCH   3  21
HETATM   21  O   UNK N   1      34.491  17.742   6.329  0.00  0.00    -0.388 OA
HETATM   22  H   UNK N   1      35.460  17.763   6.364  0.00  0.00     0.210 HD
ENDBRANCH   3  21
BRANCH   2  23
HETATM   23  O   UNK N   1      34.317  17.965   8.837  0.00  0.00    -0.390 OA
HETATM   24  H   UNK N   1      35.271  17.879   8.985  0.00  0.00     0.210 HD
ENDBRANCH   2  23
BRANCH   1  25
HETATM   25  C   UNK N   1      33.492  15.332   9.557  0.00  0.00     0.215 C 
BRANCH  25  26
HETATM   26  O   UNK N   1      34.876  15.265   9.334  0.00  0.00    -0.294 OA
BRANCH  26  27
HETATM   27  P   UNK N   1      35.744  15.598  10.815  0.00  0.00     0.393 P 
HETATM   28  O   UNK N   1      35.345  16.993  11.369  0.00  0.00    -0.631 OA
BRANCH  27  29
HETATM   29  O   UNK N   1      37.455  15.637  10.530  0.00  0.00    -0.307 OA
HETATM   30  H   UNK N   1      38.056  14.961  10.879  0.00  0.00     0.222 HD
ENDBRANCH  27  29
BRANCH  27  31
HETATM   31  O   UNK N   1      35.351  14.432  12.047  0.00  0.00    -0.297 OA
BRANCH  31  32
HETATM   32  C   UNK N   1      36.121  14.794  13.157  0.00  0.00     0.180 C 
BRANCH  32  33
HETATM   33  C   UNK N   1      36.339  13.595  14.065  0.00  0.00     0.022 C 
HETATM   34  C   UNK N   1      36.895  14.033  15.406  0.00  0.00     0.007 C 
ENDBRANCH  32  33
ENDBRANCH  31  32
ENDBRANCH  27  31
ENDBRANCH  26  27
ENDBRANCH  25  26
ENDBRANCH   1  25
TORSDOF 11
ENDMDL
MODEL 8
REMARK VINA RESULT:      -5.9      7.938     10.345
REMARK  11 active torsions:
REMARK  status: ('A' for Active; 'I' for Inactive)
REMARK    1  A    between atoms: C_3  and  C_2 
REMARK    2  A    between atoms: O_26  and  C_3 
REMARK    3  A    between atoms: C_7  and  C_4 
REMARK    4  A    between atoms: O_27  and  C_4 
REMARK    5  A    between atoms: C_9  and  O_22 
REMARK    6  A    between atoms: C_10  and  O_23 
REMARK    7  A    between atoms: N_14  and  C_11 
REMARK    8  A    between atoms: C_13  and  N_21 
REMARK    9  A    between atoms: P_29  and  O_24 
REMARK   10  A    between atoms: P_29  and  O_26 
REMARK   11  A    between atoms: P_29  and  O_27 
ROOT
HETATM    1  C   UNK N   1      35.232  12.762  13.391  0.00  0.00     0.180 C 
HETATM    2  C   UNK N   1      36.618  12.535  12.742  0.00  0.00     0.182 C 
HETATM    3  C   UNK N   1      36.720  13.682  11.738  0.00  0.00     0.198 C 
HETATM    4  C   UNK N   1      35.586  14.588  12.190  0.00  0.00     0.262 C 
HETATM    5  O   UNK N   1      34.556  13.716  12.603  0.00  0.00    -0.353 OA
ENDROOT
BRANCH   4   6
HETATM    6  N   UNK N   1      35.118  15.502  11.138  0.00  0.00    -0.297 N 
HETATM    7  C   UNK N   1      35.586  16.753  10.882  0.00  0.00     0.188 A 
HETATM    8  N   UNK N   1      34.975  17.302   9.794  0.00  0.00    -0.346 N 
HETATM    9  C   UNK N   1      34.114  16.354   9.384  0.00  0.00     0.122 A 
ATOM     10  HN  UNK N   1      35.136  18.221   9.384  1.00  0.00     0.167 HD
HETATM   11  C   UNK N   1      33.246  16.349   8.304  0.00  0.00     0.131 A 
HETATM   12  C   UNK N   1      34.191  15.280  10.196  0.00  0.00     0.142 A 
HETATM   13  N   UNK N   1      32.475  15.237   8.109  0.00  0.00    -0.337 N 
HETATM   14  C   UNK N   1      32.561  14.159   8.958  0.00  0.00     0.183 A 
ATOM     15  HN  UNK N   1      31.826  15.208   7.323  1.00  0.00     0.168 HD
HETATM   16  N   UNK N   1      33.436  14.171  10.013  0.00  0.00    -0.336 N 
ATOM     17  HN  UNK N   1      33.515  13.370  10.640  1.00  0.00     0.168 HD
BRANCH  11  18
HETATM   18  N   UNK N   1      33.170  17.443   7.418  0.00  0.00    -0.383 N 
HETATM   19  H   UNK N   1      33.840  18.164   7.440  0.00  0.00     0.157 HD
HETATM   20  H   UNK N   1      32.435  17.485   6.766  0.00  0.00     0.157 HD
ENDBRANCH  11  18
ENDBRANCH   4   6
BRANCH   3  21
HETATM   21  O   UNK N   1      36.428  13.210  10.452  0.00  0.00    -0.388 OA
HETATM   22  H   UNK N   1      36.404  12.630   9.675  0.00  0.00     0.210 HD
ENDBRANCH   3  21
BRANCH   2  23
HETATM   23  O   UNK N   1      36.736  11.306  12.081  0.00  0.00    -0.390 OA
HETATM   24  H   UNK N   1      37.201  10.643  11.549  0.00  0.00     0.210 HD
ENDBRANCH   2  23
BRANCH   1  25
HETATM   25  C   UNK N   1      34.346  11.524  13.623  0.00  0.00     0.215 C 
BRANCH  25  26
HETATM   26  O   UNK N   1      33.895  11.411  14.946  0.00  0.00    -0.294 OA
BRANCH  26  27
HETATM   27  P   UNK N   1      35.172  10.797  15.971  0.00  0.00     0.393 P 
HETATM   28  O   UNK N   1      36.231  10.047  15.116  0.00  0.00    -0.631 OA
BRANCH  27  29
HETATM   29  O   UNK N   1      34.545   9.654  17.117  0.00  0.00    -0.307 OA
HETATM   30  H   UNK N   1      35.121   9.124  17.689  0.00  0.00     0.222 HD
ENDBRANCH  27  29
BRANCH  27  31
HETATM   31  O   UNK N   1      36.002  12.094  16.783  0.00  0.00    -0.297 OA
BRANCH  31  32
HETATM   32  C   UNK N   1      35.036  13.086  16.978  0.00  0.00     0.180 C 
BRANCH  32  33
HETATM   33  C   UNK N   1      35.204  13.731  18.343  0.00  0.00     0.022 C 
HETATM   34  C   UNK N   1      35.210  12.680  19.436  0.00  0.00     0.007 C 
ENDBRANCH  32  33
ENDBRANCH  31  32
ENDBRANCH  27  31
ENDBRANCH  26  27
ENDBRANCH  25  26
ENDBRANCH   1  25
TORSDOF 11
ENDMDL
MODEL 9
REMARK VINA RESULT:      -5.9     12.299     14.779
REMARK  11 active torsions:
REMARK  status: ('A' for Active; 'I' for Inactive)
REMARK    1  A    between atoms: C_3  and  C_2 
REMARK    2  A    between atoms: O_26  and  C_3 
REMARK    3  A    between atoms: C_7  and  C_4 
REMARK    4  A    between atoms: O_27  and  C_4 
REMARK    5  A    between atoms: C_9  and  O_22 
REMARK    6  A    between atoms: C_10  and  O_23 
REMARK    7  A    between atoms: N_14  and  C_11 
REMARK    8  A    between atoms: C_13  and  N_21 
REMARK    9  A    between atoms: P_29  and  O_24 
REMARK   10  A    between atoms: P_29  and  O_26 
REMARK   11  A    between atoms: P_29  and  O_27 
ROOT
HETATM    1  C   UNK N   1      26.322  24.044  -6.529  0.00  0.00     0.180 C 
HETATM    2  C   UNK N   1      27.262  24.851  -7.456  0.00  0.00     0.182 C 
HETATM    3  C   UNK N   1      28.599  24.129  -7.304  0.00  0.00     0.198 C 
HETATM    4  C   UNK N   1      28.176  22.836  -6.625  0.00  0.00     0.262 C 
HETATM    5  O   UNK N   1      27.136  23.203  -5.743  0.00  0.00    -0.353 OA
ENDROOT
BRANCH   4   6
HETATM    6  N   UNK N   1      29.271  22.170  -5.907  0.00  0.00    -0.297 N 
HETATM    7  C   UNK N   1      30.105  21.216  -6.402  0.00  0.00     0.188 A 
HETATM    8  N   UNK N   1      31.052  20.859  -5.489  0.00  0.00    -0.346 N 
HETATM    9  C   UNK N   1      30.780  21.618  -4.413  0.00  0.00     0.122 A 
ATOM     10  HN  UNK N   1      31.798  20.172  -5.597  1.00  0.00     0.167 HD
HETATM   11  C   UNK N   1      31.434  21.700  -3.194  0.00  0.00     0.131 A 
HETATM   12  C   UNK N   1      29.706  22.396  -4.660  0.00  0.00     0.142 A 
HETATM   13  N   UNK N   1      30.944  22.574  -2.264  0.00  0.00    -0.337 N 
HETATM   14  C   UNK N   1      29.839  23.347  -2.532  0.00  0.00     0.183 A 
ATOM     15  HN  UNK N   1      31.405  22.652  -1.358  1.00  0.00     0.168 HD
HETATM   16  N   UNK N   1      29.213  23.268  -3.748  0.00  0.00    -0.336 N 
ATOM     17  HN  UNK N   1      28.400  23.847  -3.961  1.00  0.00     0.168 HD
BRANCH  11  18
HETATM   18  N   UNK N   1      32.580  20.926  -2.923  0.00  0.00    -0.383 N 
HETATM   19  H   UNK N   1      33.236  20.721  -3.627  0.00  0.00     0.157 HD
HETATM   20  H   UNK N   1      32.726  20.583  -2.012  0.00  0.00     0.157 HD
ENDBRANCH  11  18
ENDBRANCH   4   6
BRANCH   3  21
HETATM   21  O   UNK N   1      29.424  24.844  -6.425  0.00  0.00    -0.388 OA
HETATM   22  H   UNK N   1      29.715  25.337  -5.642  0.00  0.00     0.210 HD
ENDBRANCH   3  21
BRANCH   2  23
HETATM   23  O   UNK N   1      27.397  26.195  -7.088  0.00  0.00    -0.390 OA
HETATM   24  H   UNK N   1      27.711  26.918  -6.524  0.00  0.00     0.210 HD
ENDBRANCH   2  23
BRANCH   1  25
HETATM   25  C   UNK N   1      25.347  24.839  -5.641  0.00  0.00     0.215 C 
BRANCH  25  26
HETATM   26  O   UNK N   1      25.841  26.100  -5.277  0.00  0.00    -0.294 OA
BRANCH  26  27
HETATM   27  P   UNK N   1      26.679  26.004  -3.746  0.00  0.00     0.393 P 
HETATM   28  O   UNK N   1      28.210  26.157  -3.961  0.00  0.00    -0.631 OA
BRANCH  27  29
HETATM   29  O   UNK N   1      26.425  24.457  -3.001  0.00  0.00    -0.307 OA
HETATM   30  H   UNK N   1      25.814  24.333  -2.258  0.00  0.00     0.222 HD
ENDBRANCH  27  29
BRANCH  27  31
HETATM   31  O   UNK N   1      26.186  27.290  -2.680  0.00  0.00    -0.297 OA
BRANCH  31  32
HETATM   32  C   UNK N   1      26.981  28.386  -3.032  0.00  0.00     0.180 C 
BRANCH  32  33
HETATM   33  C   UNK N   1      26.205  29.340  -3.924  0.00  0.00     0.022 C 
HETATM   34  C   UNK N   1      26.526  30.781  -3.575  0.00  0.00     0.007 C 
ENDBRANCH  32  33
ENDBRANCH  31  32
ENDBRANCH  27  31
ENDBRANCH  26  27
ENDBRANCH  25  26
ENDBRANCH   1  25
TORSDOF 11
ENDMDL
