REMARK  8 active torsions:
REMARK  status: ('A' for Active; 'I' for Inactive)
REMARK    1  A    between atoms: C_2  and  C_3 
REMARK    2  A    between atoms: C_3  and  C_4 
REMARK    3  A    between atoms: C_4  and  C_5 
REMARK    4  A    between atoms: C_5  and  C_6 
REMARK    5  A    between atoms: C_6  and  C_7 
REMARK    6  A    between atoms: C_7  and  C_8 
REMARK    7  A    between atoms: C_8  and  C_9 
REMARK    8  A    between atoms: C_9  and  O_10 
ROOT
HETATM    1  C   UNK N   1       6.170   2.799  -0.000  0.00  0.00     0.000 C 
ENDROOT
BRANCH   1   2
HETATM    2  C   UNK N   1       4.946   1.918  -0.000  0.00  0.00     0.000 C 
BRANCH   2   3
HETATM    3  C   UNK N   1       3.710   2.785  -0.000  0.00  0.00     0.000 C 
BRANCH   3   4
HETATM    4  C   UNK N   1       2.496   1.887   0.000  0.00  0.00    -0.000 C 
BRANCH   4   5
HETATM    5  C   UNK N   1       1.241   2.728  -0.000  0.00  0.00    -0.005 C 
HETATM    6  C   UNK N   1       0.038   1.811  -0.000  0.00  0.00     0.005 C 
ENDBRANCH   4   5
ENDBRANCH   3   4
ENDBRANCH   2   3
ENDBRANCH   1   2
BRANCH   1   7
HETATM    7  C   UNK N   1       7.405   1.929   0.000  0.00  0.00     0.002 C 
BRANCH   7   8
HETATM    8  C   UNK N   1       8.623   2.821   0.000  0.00  0.00     0.026 C 
BRANCH   8   9
HETATM    9  C   UNK N   1       9.873   1.972  -0.000  0.00  0.00     0.164 C 
BRANCH   9  10
HETATM   10  O   UNK N   1      10.989   2.803  -0.000  0.00  0.00    -0.401 OA
HETATM   11  H   UNK N   1      11.879   2.418   0.000  0.00  0.00     0.209 HD
ENDBRANCH   9  10
ENDBRANCH   8   9
ENDBRANCH   7   8
ENDBRANCH   1   7
TORSDOF 8
