MODEL 1
REMARK VINA RESULT:      -4.7      0.000      0.000
REMARK  2 active torsions:
REMARK  status: ('A' for Active; 'I' for Inactive)
REMARK    1  A    between atoms: C_4  and  N_5 
REMARK    2  A    between atoms: C_6  and  N_7 
ROOT
HETATM    1  C   UNK N   1      35.838  11.973  14.960  0.00  0.00     0.049 C 
HETATM    2  C   UNK N   1      35.612  12.241  16.410  0.00  0.00    -0.054 A 
HETATM    3  C   UNK N   1      35.532  13.567  16.843  0.00  0.00     0.038 A 
HETATM    4  C   UNK N   1      35.321  13.858  18.194  0.00  0.00     0.052 A 
HETATM    5  C   UNK N   1      35.189  12.813  19.120  0.00  0.00     0.052 A 
HETATM    6  C   UNK N   1      35.268  11.487  18.691  0.00  0.00     0.038 A 
HETATM    7  C   UNK N   1      35.478  11.192  17.342  0.00  0.00    -0.054 A 
HETATM    8  C   UNK N   1      35.556   9.763  16.925  0.00  0.00     0.049 C 
ENDROOT
BRANCH   4   9
HETATM    9  N   UNK N   1      35.244  15.202  18.611  0.00  0.00    -0.397 N 
HETATM   10  H   UNK N   1      34.984  15.416  19.537  0.00  0.00     0.156 HD
HETATM   11  H   UNK N   1      35.449  15.927  17.978  0.00  0.00     0.156 HD
ENDBRANCH   4   9
BRANCH   5  12
HETATM   12  N   UNK N   1      34.975  13.089  20.487  0.00  0.00    -0.397 N 
HETATM   13  H   UNK N   1      34.510  13.914  20.756  0.00  0.00     0.156 HD
HETATM   14  H   UNK N   1      35.292  12.457  21.172  0.00  0.00     0.156 HD
ENDBRANCH   5  12
TORSDOF 2
ENDMDL
MODEL 2
REMARK VINA RESULT:      -4.6      0.298      2.407
REMARK  2 active torsions:
REMARK  status: ('A' for Active; 'I' for Inactive)
REMARK    1  A    between atoms: C_4  and  N_5 
REMARK    2  A    between atoms: C_6  and  N_7 
ROOT
HETATM    1  C   UNK N   1      35.303   9.694  16.693  0.00  0.00     0.049 C 
HETATM    2  C   UNK N   1      35.294  11.106  17.172  0.00  0.00    -0.054 A 
HETATM    3  C   UNK N   1      35.272  11.348  18.548  0.00  0.00     0.038 A 
HETATM    4  C   UNK N   1      35.263  12.658  19.036  0.00  0.00     0.052 A 
HETATM    5  C   UNK N   1      35.277  13.737  18.139  0.00  0.00     0.052 A 
HETATM    6  C   UNK N   1      35.299  13.499  16.764  0.00  0.00     0.038 A 
HETATM    7  C   UNK N   1      35.308  12.191  16.272  0.00  0.00    -0.054 A 
HETATM    8  C   UNK N   1      35.332  11.981  14.797  0.00  0.00     0.049 C 
ENDROOT
BRANCH   4   9
HETATM    9  N   UNK N   1      35.241  12.881  20.427  0.00  0.00    -0.397 N 
HETATM   10  H   UNK N   1      36.076  12.834  20.947  0.00  0.00     0.156 HD
HETATM   11  H   UNK N   1      34.391  13.084  20.880  0.00  0.00     0.156 HD
ENDBRANCH   4   9
BRANCH   5  12
HETATM   12  N   UNK N   1      35.269  15.065  18.615  0.00  0.00    -0.397 N 
HETATM   13  H   UNK N   1      34.649  15.327  19.333  0.00  0.00     0.156 HD
HETATM   14  H   UNK N   1      35.883  15.730  18.227  0.00  0.00     0.156 HD
ENDBRANCH   5  12
TORSDOF 2
ENDMDL
MODEL 3
REMARK VINA RESULT:      -4.6     18.033     19.289
REMARK  2 active torsions:
REMARK  status: ('A' for Active; 'I' for Inactive)
REMARK    1  A    between atoms: C_4  and  N_5 
REMARK    2  A    between atoms: C_6  and  N_7 
ROOT
HETATM    1  C   UNK N   1      40.566  21.828   1.727  0.00  0.00     0.049 C 
HETATM    2  C   UNK N   1      41.909  21.887   2.373  0.00  0.00    -0.054 A 
HETATM    3  C   UNK N   1      42.590  23.107   2.394  0.00  0.00     0.038 A 
HETATM    4  C   UNK N   1      43.850  23.203   2.990  0.00  0.00     0.052 A 
HETATM    5  C   UNK N   1      44.436  22.067   3.570  0.00  0.00     0.052 A 
HETATM    6  C   UNK N   1      43.758  20.847   3.551  0.00  0.00     0.038 A 
HETATM    7  C   UNK N   1      42.498  20.748   2.956  0.00  0.00    -0.054 A 
HETATM    8  C   UNK N   1      41.809  19.426   2.957  0.00  0.00     0.049 C 
ENDROOT
BRANCH   4   9
HETATM    9  N   UNK N   1      44.521  24.442   3.002  0.00  0.00    -0.397 N 
HETATM   10  H   UNK N   1      45.223  24.616   3.671  0.00  0.00     0.156 HD
HETATM   11  H   UNK N   1      44.290  25.134   2.341  0.00  0.00     0.156 HD
ENDBRANCH   4   9
BRANCH   5  12
HETATM   12  N   UNK N   1      45.708  22.147   4.176  0.00  0.00    -0.397 N 
HETATM   13  H   UNK N   1      45.784  22.320   5.142  0.00  0.00     0.156 HD
HETATM   14  H   UNK N   1      46.520  22.029   3.631  0.00  0.00     0.156 HD
ENDBRANCH   5  12
TORSDOF 2
ENDMDL
MODEL 4
REMARK VINA RESULT:      -4.5     18.354     18.926
REMARK  2 active torsions:
REMARK  status: ('A' for Active; 'I' for Inactive)
REMARK    1  A    between atoms: C_4  and  N_5 
REMARK    2  A    between atoms: C_6  and  N_7 
ROOT
HETATM    1  C   UNK N   1      43.197  18.369   2.647  0.00  0.00     0.049 C 
HETATM    2  C   UNK N   1      43.280  19.835   2.910  0.00  0.00    -0.054 A 
HETATM    3  C   UNK N   1      44.466  20.356   3.433  0.00  0.00     0.038 A 
HETATM    4  C   UNK N   1      44.583  21.724   3.693  0.00  0.00     0.052 A 
HETATM    5  C   UNK N   1      43.502  22.580   3.429  0.00  0.00     0.052 A 
HETATM    6  C   UNK N   1      42.315  22.062   2.907  0.00  0.00     0.038 A 
HETATM    7  C   UNK N   1      42.195  20.695   2.645  0.00  0.00    -0.054 A 
HETATM    8  C   UNK N   1      40.911  20.183   2.088  0.00  0.00     0.049 C 
ENDROOT
BRANCH   4   9
HETATM    9  N   UNK N   1      45.787  22.232   4.220  0.00  0.00    -0.397 N 
HETATM   10  H   UNK N   1      46.329  21.679   4.831  0.00  0.00     0.156 HD
HETATM   11  H   UNK N   1      46.088  23.137   3.978  0.00  0.00     0.156 HD
ENDBRANCH   4   9
BRANCH   5  12
HETATM   12  N   UNK N   1      43.603  23.963   3.686  0.00  0.00    -0.397 N 
HETATM   13  H   UNK N   1      44.404  24.325   4.130  0.00  0.00     0.156 HD
HETATM   14  H   UNK N   1      42.872  24.568   3.421  0.00  0.00     0.156 HD
ENDBRANCH   5  12
TORSDOF 2
ENDMDL
MODEL 5
REMARK VINA RESULT:      -4.5     14.436     15.035
REMARK  2 active torsions:
REMARK  status: ('A' for Active; 'I' for Inactive)
REMARK    1  A    between atoms: C_4  and  N_5 
REMARK    2  A    between atoms: C_6  and  N_7 
ROOT
HETATM    1  C   UNK N   1      22.183  13.772   7.689  0.00  0.00     0.049 C 
HETATM    2  C   UNK N   1      22.394  13.172   9.038  0.00  0.00    -0.054 A 
HETATM    3  C   UNK N   1      21.275  12.834   9.804  0.00  0.00     0.038 A 
HETATM    4  C   UNK N   1      21.432  12.269  11.073  0.00  0.00     0.052 A 
HETATM    5  C   UNK N   1      22.720  12.040  11.581  0.00  0.00     0.052 A 
HETATM    6  C   UNK N   1      23.839  12.377  10.818  0.00  0.00     0.038 A 
HETATM    7  C   UNK N   1      23.687  12.942   9.549  0.00  0.00    -0.054 A 
HETATM    8  C   UNK N   1      24.908  13.286   8.767  0.00  0.00     0.049 C 
ENDROOT
BRANCH   4   9
HETATM    9  N   UNK N   1      20.292  11.935  11.831  0.00  0.00    -0.397 N 
HETATM   10  H   UNK N   1      19.395  12.190  11.511  0.00  0.00     0.156 HD
HETATM   11  H   UNK N   1      20.390  11.447  12.679  0.00  0.00     0.156 HD
ENDBRANCH   4   9
BRANCH   5  12
HETATM   12  N   UNK N   1      22.896  11.471  12.860  0.00  0.00    -0.397 N 
HETATM   13  H   UNK N   1      22.275  11.697  13.589  0.00  0.00     0.156 HD
HETATM   14  H   UNK N   1      23.640  10.848  13.023  0.00  0.00     0.156 HD
ENDBRANCH   5  12
TORSDOF 2
ENDMDL
MODEL 6
REMARK VINA RESULT:      -4.5      2.767      3.969
REMARK  2 active torsions:
REMARK  status: ('A' for Active; 'I' for Inactive)
REMARK    1  A    between atoms: C_4  and  N_5 
REMARK    2  A    between atoms: C_6  and  N_7 
ROOT
HETATM    1  C   UNK N   1      33.901  10.986  14.579  0.00  0.00     0.049 C 
HETATM    2  C   UNK N   1      34.835  12.136  14.747  0.00  0.00    -0.054 A 
HETATM    3  C   UNK N   1      35.153  12.911  13.629  0.00  0.00     0.038 A 
HETATM    4  C   UNK N   1      36.025  13.997  13.746  0.00  0.00     0.052 A 
HETATM    5  C   UNK N   1      36.585  14.311  14.994  0.00  0.00     0.052 A 
HETATM    6  C   UNK N   1      36.270  13.539  16.113  0.00  0.00     0.038 A 
HETATM    7  C   UNK N   1      35.398  12.453  16.000  0.00  0.00    -0.054 A 
HETATM    8  C   UNK N   1      35.088  11.654  17.219  0.00  0.00     0.049 C 
ENDROOT
BRANCH   4   9
HETATM    9  N   UNK N   1      36.334  14.767  12.607  0.00  0.00    -0.397 N 
HETATM   10  H   UNK N   1      35.753  15.521  12.350  0.00  0.00     0.156 HD
HETATM   11  H   UNK N   1      37.128  14.553  12.068  0.00  0.00     0.156 HD
ENDBRANCH   4   9
BRANCH   5  12
HETATM   12  N   UNK N   1      37.467  15.404  15.129  0.00  0.00    -0.397 N 
HETATM   13  H   UNK N   1      37.568  16.050  14.394  0.00  0.00     0.156 HD
HETATM   14  H   UNK N   1      37.982  15.521  15.961  0.00  0.00     0.156 HD
ENDBRANCH   5  12
TORSDOF 2
ENDMDL
MODEL 7
REMARK VINA RESULT:      -4.5      2.778      4.260
REMARK  2 active torsions:
REMARK  status: ('A' for Active; 'I' for Inactive)
REMARK    1  A    between atoms: C_4  and  N_5 
REMARK    2  A    between atoms: C_6  and  N_7 
ROOT
HETATM    1  C   UNK N   1      35.084  11.565  17.128  0.00  0.00     0.049 C 
HETATM    2  C   UNK N   1      35.394  12.392  15.927  0.00  0.00    -0.054 A 
HETATM    3  C   UNK N   1      36.261  13.479  16.065  0.00  0.00     0.038 A 
HETATM    4  C   UNK N   1      36.575  14.278  14.962  0.00  0.00     0.052 A 
HETATM    5  C   UNK N   1      36.017  13.988  13.708  0.00  0.00     0.052 A 
HETATM    6  C   UNK N   1      35.150  12.902  13.566  0.00  0.00     0.038 A 
HETATM    7  C   UNK N   1      34.834  12.102  14.666  0.00  0.00    -0.054 A 
HETATM    8  C   UNK N   1      33.904  10.953  14.472  0.00  0.00     0.049 C 
ENDROOT
BRANCH   4   9
HETATM    9  N   UNK N   1      37.452  15.370  15.122  0.00  0.00    -0.397 N 
HETATM   10  H   UNK N   1      37.139  16.192  15.568  0.00  0.00     0.156 HD
HETATM   11  H   UNK N   1      38.376  15.312  14.789  0.00  0.00     0.156 HD
ENDBRANCH   4   9
BRANCH   5  12
HETATM   12  N   UNK N   1      36.324  14.784  12.585  0.00  0.00    -0.397 N 
HETATM   13  H   UNK N   1      36.090  15.740  12.580  0.00  0.00     0.156 HD
HETATM   14  H   UNK N   1      36.772  14.383  11.805  0.00  0.00     0.156 HD
ENDBRANCH   5  12
TORSDOF 2
ENDMDL
MODEL 8
REMARK VINA RESULT:      -4.4     14.580     15.301
REMARK  2 active torsions:
REMARK  status: ('A' for Active; 'I' for Inactive)
REMARK    1  A    between atoms: C_4  and  N_5 
REMARK    2  A    between atoms: C_6  and  N_7 
ROOT
HETATM    1  C   UNK N   1      23.107  11.819  12.717  0.00  0.00     0.049 C 
HETATM    2  C   UNK N   1      22.887  12.248  11.306  0.00  0.00    -0.054 A 
HETATM    3  C   UNK N   1      24.000  12.505  10.502  0.00  0.00     0.038 A 
HETATM    4  C   UNK N   1      23.835  12.910   9.174  0.00  0.00     0.052 A 
HETATM    5  C   UNK N   1      22.543  13.059   8.646  0.00  0.00     0.052 A 
HETATM    6  C   UNK N   1      21.429  12.802   9.447  0.00  0.00     0.038 A 
HETATM    7  C   UNK N   1      21.591  12.398  10.774  0.00  0.00    -0.054 A 
HETATM    8  C   UNK N   1      20.375  12.134  11.595  0.00  0.00     0.049 C 
ENDROOT
BRANCH   4   9
HETATM    9  N   UNK N   1      24.970  13.165   8.379  0.00  0.00    -0.397 N 
HETATM   10  H   UNK N   1      24.943  12.986   7.410  0.00  0.00     0.156 HD
HETATM   11  H   UNK N   1      25.789  13.522   8.790  0.00  0.00     0.156 HD
ENDBRANCH   4   9
BRANCH   5  12
HETATM   12  N   UNK N   1      22.359  13.466   7.308  0.00  0.00    -0.397 N 
HETATM   13  H   UNK N   1      23.139  13.654   6.738  0.00  0.00     0.156 HD
HETATM   14  H   UNK N   1      21.449  13.563   6.944  0.00  0.00     0.156 HD
ENDBRANCH   5  12
TORSDOF 2
ENDMDL
MODEL 9
REMARK VINA RESULT:      -4.3     11.697     12.869
REMARK  2 active torsions:
REMARK  status: ('A' for Active; 'I' for Inactive)
REMARK    1  A    between atoms: C_4  and  N_5 
REMARK    2  A    between atoms: C_6  and  N_7 
ROOT
HETATM    1  C   UNK N   1      31.813  16.206   5.983  0.00  0.00     0.049 C 
HETATM    2  C   UNK N   1      30.743  16.814   6.826  0.00  0.00    -0.054 A 
HETATM    3  C   UNK N   1      29.408  16.603   6.471  0.00  0.00     0.038 A 
HETATM    4  C   UNK N   1      28.377  17.157   7.236  0.00  0.00     0.052 A 
HETATM    5  C   UNK N   1      28.685  17.928   8.367  0.00  0.00     0.052 A 
HETATM    6  C   UNK N   1      30.018  18.141   8.724  0.00  0.00     0.038 A 
HETATM    7  C   UNK N   1      31.050  17.589   7.962  0.00  0.00    -0.054 A 
HETATM    8  C   UNK N   1      32.460  17.840   8.378  0.00  0.00     0.049 C 
ENDROOT
BRANCH   4   9
HETATM    9  N   UNK N   1      27.037  16.933   6.862  0.00  0.00    -0.397 N 
HETATM   10  H   UNK N   1      26.704  17.269   5.998  0.00  0.00     0.156 HD
HETATM   11  H   UNK N   1      26.434  16.441   7.464  0.00  0.00     0.156 HD
ENDBRANCH   4   9
BRANCH   5  12
HETATM   12  N   UNK N   1      27.657  18.494   9.150  0.00  0.00    -0.397 N 
HETATM   13  H   UNK N   1      26.766  18.075   9.171  0.00  0.00     0.156 HD
HETATM   14  H   UNK N   1      27.830  19.308   9.676  0.00  0.00     0.156 HD
ENDBRANCH   5  12
TORSDOF 2
ENDMDL
