MODEL 1
REMARK VINA RESULT:      -8.4      0.000      0.000
REMARK  8 active torsions:
REMARK  status: ('A' for Active; 'I' for Inactive)
REMARK    1  A    between atoms: C_2  and  C_19 
REMARK    2  A    between atoms: C_8  and  N_13 
REMARK    3  A    between atoms: C_9  and  C_10 
REMARK    4  A    between atoms: C_10  and  O_12 
REMARK       I    between atoms: N_13  and  C_14 
REMARK    5  A    between atoms: C_14  and  C_15 
REMARK    6  A    between atoms: C_15  and  O_17 
REMARK    7  A    between atoms: C_19  and  O_20 
REMARK    8  A    between atoms: O_20  and  C_21 
ROOT
HETATM    1  O   UNK N   1      32.303  16.064   4.544  0.00  0.00    -0.378 OA
HETATM    2  C   UNK N   1      31.814  15.283   5.640  0.00  0.00     0.186 C 
HETATM    3  C   UNK N   1      32.327  15.727   6.955  0.00  0.00     0.023 A 
HETATM    4  C   UNK N   1      33.207  16.778   7.150  0.00  0.00    -0.021 A 
HETATM    5  C   UNK N   1      33.610  17.607   5.976  0.00  0.00     0.067 C 
HETATM    6  C   UNK N   1      32.538  17.429   4.881  0.00  0.00     0.173 C 
HETATM    7  S   UNK N   1      32.108  14.961   8.373  0.00  0.00    -0.072 SA
HETATM    8  C   UNK N   1      33.126  15.857   9.315  0.00  0.00     0.095 A 
HETATM    9  C   UNK N   1      33.701  16.855   8.497  0.00  0.00     0.079 A 
ENDROOT
BRANCH   2  10
HETATM   10  C   UNK N   1      30.293  15.096   5.687  0.00  0.00     0.214 C 
BRANCH  10  11
HETATM   11  O   UNK N   1      29.656  16.219   5.235  0.00  0.00    -0.332 OA
BRANCH  11  12
HETATM   12  C   UNK N   1      29.010  16.995   6.124  0.00  0.00     0.164 A 
HETATM   13  C   UNK N   1      28.496  18.293   5.852  0.00  0.00     0.039 A 
HETATM   14  C   UNK N   1      28.073  18.864   7.016  0.00  0.00     0.094 A 
HETATM   15  C   UNK N   1      28.379  18.941   4.618  0.00  0.00     0.017 A 
HETATM   16  S   UNK N   1      28.271  17.825   8.524  0.00  0.00     0.265 S 
HETATM   17  C   UNK N   1      27.475  20.136   6.991  0.00  0.00     0.026 A 
HETATM   18  N   UNK N   1      28.916  16.650   7.346  0.00  0.00    -0.259 N 
HETATM   19  O   UNK N   1      29.369  18.904   8.442  0.00  0.00    -0.200 OA
HETATM   20  O   UNK N   1      29.469  17.280   9.318  0.00  0.00    -0.200 OA
ATOM     21  HN  UNK N   1      29.203  15.718   7.646  1.00  0.00     0.181 HD
HETATM   22  C   UNK N   1      27.351  20.815   5.768  0.00  0.00     0.002 A 
HETATM   23  C   UNK N   1      27.805  20.218   4.581  0.00  0.00     0.001 A 
ENDBRANCH  11  12
ENDBRANCH  10  11
ENDBRANCH   2  10
BRANCH   9  24
HETATM   24  C   UNK N   1      34.756  17.794   8.953  0.00  0.00     0.179 C 
HETATM   25  O   UNK N   1      35.484  17.496   9.887  0.00  0.00    -0.646 OA
BRANCH  24  26
HETATM   26  O   UNK N   1      34.941  18.971   8.324  0.00  0.00    -0.773 OA
HETATM   27  H   UNK N   1      35.552  19.060   7.620  0.00  0.00     0.167 HD
ENDBRANCH  24  26
ENDBRANCH   9  24
BRANCH   8  28
HETATM   28  N   UNK N   1      33.576  15.459  10.599  0.00  0.00    -0.311 N 
HETATM   29  C   UNK N   1      34.560  14.529  10.772  0.00  0.00     0.320 C 
HETATM   30  O   UNK N   1      34.862  13.753   9.881  0.00  0.00    -0.261 OA
HETATM   31  H   UNK N   1      33.165  15.870  11.394  0.00  0.00     0.170 HD
BRANCH  29  32
HETATM   32  C   UNK N   1      35.361  14.559  11.999  0.00  0.00     0.237 C 
HETATM   33  O   UNK N   1      35.028  13.905  12.970  0.00  0.00    -0.643 OA
BRANCH  32  34
HETATM   34  O   UNK N   1      36.400  15.415  12.093  0.00  0.00    -0.769 OA
HETATM   35  H   UNK N   1      37.141  15.203  12.624  0.00  0.00     0.168 HD
ENDBRANCH  32  34
ENDBRANCH  29  32
ENDBRANCH   8  28
TORSDOF 8
ENDMDL
MODEL 2
REMARK VINA RESULT:      -8.1      2.688      4.362
REMARK  8 active torsions:
REMARK  status: ('A' for Active; 'I' for Inactive)
REMARK    1  A    between atoms: C_2  and  C_19 
REMARK    2  A    between atoms: C_8  and  N_13 
REMARK    3  A    between atoms: C_9  and  C_10 
REMARK    4  A    between atoms: C_10  and  O_12 
REMARK       I    between atoms: N_13  and  C_14 
REMARK    5  A    between atoms: C_14  and  C_15 
REMARK    6  A    between atoms: C_15  and  O_17 
REMARK    7  A    between atoms: C_19  and  O_20 
REMARK    8  A    between atoms: O_20  and  C_21 
ROOT
HETATM    1  O   UNK N   1      34.464  15.091   7.087  0.00  0.00    -0.378 OA
HETATM    2  C   UNK N   1      34.316  15.927   8.241  0.00  0.00     0.186 C 
HETATM    3  C   UNK N   1      35.235  15.575   9.346  0.00  0.00     0.023 A 
HETATM    4  C   UNK N   1      36.150  14.535   9.316  0.00  0.00    -0.021 A 
HETATM    5  C   UNK N   1      36.315  13.757   8.053  0.00  0.00     0.067 C 
HETATM    6  C   UNK N   1      35.798  14.628   6.890  0.00  0.00     0.173 C 
HETATM    7  S   UNK N   1      35.211  16.206  10.844  0.00  0.00    -0.072 SA
HETATM    8  C   UNK N   1      36.305  15.204  11.569  0.00  0.00     0.095 A 
HETATM    9  C   UNK N   1      36.759  14.287  10.594  0.00  0.00     0.079 A 
ENDROOT
BRANCH   2  10
HETATM   10  C   UNK N   1      34.351  17.435   7.967  0.00  0.00     0.214 C 
BRANCH  10  11
HETATM   11  O   UNK N   1      33.151  18.011   8.283  0.00  0.00    -0.332 OA
BRANCH  11  12
HETATM   12  C   UNK N   1      32.078  17.719   7.526  0.00  0.00     0.164 A 
HETATM   13  C   UNK N   1      30.734  17.691   7.992  0.00  0.00     0.039 A 
HETATM   14  C   UNK N   1      29.929  17.181   7.016  0.00  0.00     0.094 A 
HETATM   15  C   UNK N   1      30.231  18.126   9.223  0.00  0.00     0.017 A 
HETATM   16  S   UNK N   1      30.781  16.713   5.452  0.00  0.00     0.265 S 
HETATM   17  C   UNK N   1      28.541  17.103   7.229  0.00  0.00     0.026 A 
HETATM   18  N   UNK N   1      32.214  17.321   6.324  0.00  0.00    -0.259 N 
HETATM   19  O   UNK N   1      30.464  15.470   6.307  0.00  0.00    -0.200 OA
HETATM   20  O   UNK N   1      31.810  15.644   5.053  0.00  0.00    -0.200 OA
ATOM     21  HN  UNK N   1      33.127  17.349   5.868  1.00  0.00     0.181 HD
HETATM   22  C   UNK N   1      28.008  17.525   8.458  0.00  0.00     0.002 A 
HETATM   23  C   UNK N   1      28.853  18.035   9.456  0.00  0.00     0.001 A 
ENDBRANCH  11  12
ENDBRANCH  10  11
ENDBRANCH   2  10
BRANCH   9  24
HETATM   24  C   UNK N   1      37.671  13.152  10.883  0.00  0.00     0.179 C 
HETATM   25  O   UNK N   1      37.216  12.050  11.146  0.00  0.00    -0.646 OA
BRANCH  24  26
HETATM   26  O   UNK N   1      39.006  13.318  10.830  0.00  0.00    -0.773 OA
HETATM   27  H   UNK N   1      39.590  12.736  11.276  0.00  0.00     0.167 HD
ENDBRANCH  24  26
ENDBRANCH   9  24
BRANCH   8  28
HETATM   28  N   UNK N   1      36.470  15.089  12.972  0.00  0.00    -0.311 N 
HETATM   29  C   UNK N   1      35.843  14.122  13.704  0.00  0.00     0.320 C 
HETATM   30  O   UNK N   1      34.866  13.534  13.273  0.00  0.00    -0.261 OA
HETATM   31  H   UNK N   1      37.058  15.729  13.434  0.00  0.00     0.170 HD
BRANCH  29  32
HETATM   32  C   UNK N   1      36.440  13.687  14.970  0.00  0.00     0.237 C 
HETATM   33  O   UNK N   1      35.838  12.933  15.710  0.00  0.00    -0.643 OA
BRANCH  32  34
HETATM   34  O   UNK N   1      37.609  14.230  15.372  0.00  0.00    -0.769 OA
HETATM   35  H   UNK N   1      37.811  15.122  15.170  0.00  0.00     0.168 HD
ENDBRANCH  32  34
ENDBRANCH  29  32
ENDBRANCH   8  28
TORSDOF 8
ENDMDL
MODEL 3
REMARK VINA RESULT:      -7.8      2.578      3.881
REMARK  8 active torsions:
REMARK  status: ('A' for Active; 'I' for Inactive)
REMARK    1  A    between atoms: C_2  and  C_19 
REMARK    2  A    between atoms: C_8  and  N_13 
REMARK    3  A    between atoms: C_9  and  C_10 
REMARK    4  A    between atoms: C_10  and  O_12 
REMARK       I    between atoms: N_13  and  C_14 
REMARK    5  A    between atoms: C_14  and  C_15 
REMARK    6  A    between atoms: C_15  and  O_17 
REMARK    7  A    between atoms: C_19  and  O_20 
REMARK    8  A    between atoms: O_20  and  C_21 
ROOT
HETATM    1  O   UNK N   1      33.979  15.326   7.184  0.00  0.00    -0.378 OA
HETATM    2  C   UNK N   1      33.870  16.022   8.431  0.00  0.00     0.186 C 
HETATM    3  C   UNK N   1      34.884  15.609   9.426  0.00  0.00     0.023 A 
HETATM    4  C   UNK N   1      35.849  14.638   9.220  0.00  0.00    -0.021 A 
HETATM    5  C   UNK N   1      35.965  14.012   7.870  0.00  0.00     0.067 C 
HETATM    6  C   UNK N   1      35.318  14.970   6.848  0.00  0.00     0.173 C 
HETATM    7  S   UNK N   1      34.935  16.073  10.984  0.00  0.00    -0.072 SA
HETATM    8  C   UNK N   1      36.131  15.067  11.518  0.00  0.00     0.095 A 
HETATM    9  C   UNK N   1      36.562  14.291  10.419  0.00  0.00     0.079 A 
ENDROOT
BRANCH   2  10
HETATM   10  C   UNK N   1      33.804  17.549   8.326  0.00  0.00     0.214 C 
BRANCH  10  11
HETATM   11  O   UNK N   1      32.779  17.932   7.504  0.00  0.00    -0.332 OA
BRANCH  11  12
HETATM   12  C   UNK N   1      31.517  17.654   7.877  0.00  0.00     0.164 A 
HETATM   13  C   UNK N   1      30.488  17.208   7.003  0.00  0.00     0.039 A 
HETATM   14  C   UNK N   1      29.299  17.203   7.671  0.00  0.00     0.094 A 
HETATM   15  C   UNK N   1      30.597  16.793   5.672  0.00  0.00     0.017 A 
HETATM   16  S   UNK N   1      29.378  17.739   9.431  0.00  0.00     0.265 S 
HETATM   17  C   UNK N   1      28.137  16.747   7.022  0.00  0.00     0.026 A 
HETATM   18  N   UNK N   1      31.117  17.893   9.063  0.00  0.00    -0.259 N 
HETATM   19  O   UNK N   1      28.821  18.860   8.532  0.00  0.00    -0.200 OA
HETATM   20  O   UNK N   1      29.688  19.060  10.152  0.00  0.00    -0.200 OA
ATOM     21  HN  UNK N   1      31.780  18.167   9.789  1.00  0.00     0.181 HD
HETATM   22  C   UNK N   1      28.214  16.331   5.683  0.00  0.00     0.002 A 
HETATM   23  C   UNK N   1      29.444  16.356   5.007  0.00  0.00     0.001 A 
ENDBRANCH  11  12
ENDBRANCH  10  11
ENDBRANCH   2  10
BRANCH   9  24
HETATM   24  C   UNK N   1      37.552  13.190  10.519  0.00  0.00     0.179 C 
HETATM   25  O   UNK N   1      37.242  12.053  10.198  0.00  0.00    -0.646 OA
BRANCH  24  26
HETATM   26  O   UNK N   1      38.808  13.436  10.936  0.00  0.00    -0.773 OA
HETATM   27  H   UNK N   1      39.408  13.935  10.417  0.00  0.00     0.167 HD
ENDBRANCH  24  26
ENDBRANCH   9  24
BRANCH   8  28
HETATM   28  N   UNK N   1      36.402  14.812  12.886  0.00  0.00    -0.311 N 
HETATM   29  C   UNK N   1      35.725  13.866  13.601  0.00  0.00     0.320 C 
HETATM   30  O   UNK N   1      34.648  13.437  13.224  0.00  0.00    -0.261 OA
HETATM   31  H   UNK N   1      37.104  15.335  13.335  0.00  0.00     0.170 HD
BRANCH  29  32
HETATM   32  C   UNK N   1      36.372  13.256  14.765  0.00  0.00     0.237 C 
HETATM   33  O   UNK N   1      35.793  13.198  15.834  0.00  0.00    -0.643 OA
BRANCH  32  34
HETATM   34  O   UNK N   1      37.664  12.872  14.682  0.00  0.00    -0.769 OA
HETATM   35  H   UNK N   1      38.311  13.265  15.234  0.00  0.00     0.168 HD
ENDBRANCH  32  34
ENDBRANCH  29  32
ENDBRANCH   8  28
TORSDOF 8
ENDMDL
MODEL 4
REMARK VINA RESULT:      -7.8      6.003     10.685
REMARK  8 active torsions:
REMARK  status: ('A' for Active; 'I' for Inactive)
REMARK    1  A    between atoms: C_2  and  C_19 
REMARK    2  A    between atoms: C_8  and  N_13 
REMARK    3  A    between atoms: C_9  and  C_10 
REMARK    4  A    between atoms: C_10  and  O_12 
REMARK       I    between atoms: N_13  and  C_14 
REMARK    5  A    between atoms: C_14  and  C_15 
REMARK    6  A    between atoms: C_15  and  O_17 
REMARK    7  A    between atoms: C_19  and  O_20 
REMARK    8  A    between atoms: O_20  and  C_21 
ROOT
HETATM    1  O   UNK N   1      26.228  19.883   4.256  0.00  0.00    -0.378 OA
HETATM    2  C   UNK N   1      25.651  18.711   4.843  0.00  0.00     0.186 C 
HETATM    3  C   UNK N   1      24.221  18.529   4.510  0.00  0.00     0.023 A 
HETATM    4  C   UNK N   1      23.472  19.392   3.727  0.00  0.00    -0.021 A 
HETATM    5  C   UNK N   1      24.154  20.548   3.075  0.00  0.00     0.067 C 
HETATM    6  C   UNK N   1      25.660  20.224   2.994  0.00  0.00     0.173 C 
HETATM    7  S   UNK N   1      23.230  17.406   5.144  0.00  0.00    -0.072 SA
HETATM    8  C   UNK N   1      21.796  17.942   4.524  0.00  0.00     0.095 A 
HETATM    9  C   UNK N   1      22.068  19.087   3.742  0.00  0.00     0.079 A 
ENDROOT
BRANCH   2  10
HETATM   10  C   UNK N   1      26.430  17.411   4.614  0.00  0.00     0.214 C 
BRANCH  10  11
HETATM   11  O   UNK N   1      26.751  16.825   5.808  0.00  0.00    -0.332 OA
BRANCH  11  12
HETATM   12  C   UNK N   1      28.050  16.640   6.107  0.00  0.00     0.164 A 
HETATM   13  C   UNK N   1      28.748  17.300   7.155  0.00  0.00     0.039 A 
HETATM   14  C   UNK N   1      30.079  17.020   7.056  0.00  0.00     0.094 A 
HETATM   15  C   UNK N   1      28.228  18.099   8.178  0.00  0.00     0.017 A 
HETATM   16  S   UNK N   1      30.553  15.908   5.666  0.00  0.00     0.265 S 
HETATM   17  C   UNK N   1      30.970  17.523   8.021  0.00  0.00     0.026 A 
HETATM   18  N   UNK N   1      28.794  15.918   5.366  0.00  0.00    -0.259 N 
HETATM   19  O   UNK N   1      30.881  17.379   5.341  0.00  0.00    -0.200 OA
HETATM   20  O   UNK N   1      30.543  16.021   4.134  0.00  0.00    -0.200 OA
ATOM     21  HN  UNK N   1      28.392  15.356   4.616  1.00  0.00     0.181 HD
HETATM   22  C   UNK N   1      30.478  18.335   9.056  0.00  0.00     0.002 A 
HETATM   23  C   UNK N   1      29.107  18.624   9.134  0.00  0.00     0.001 A 
ENDBRANCH  11  12
ENDBRANCH  10  11
ENDBRANCH   2  10
BRANCH   9  24
HETATM   24  C   UNK N   1      21.020  19.924   3.106  0.00  0.00     0.179 C 
HETATM   25  O   UNK N   1      20.287  20.619   3.792  0.00  0.00    -0.646 OA
BRANCH  24  26
HETATM   26  O   UNK N   1      20.886  19.949   1.766  0.00  0.00    -0.773 OA
HETATM   27  H   UNK N   1      20.047  20.037   1.359  0.00  0.00     0.167 HD
ENDBRANCH  24  26
ENDBRANCH   9  24
BRANCH   8  28
HETATM   28  N   UNK N   1      20.524  17.522   4.986  0.00  0.00    -0.311 N 
HETATM   29  C   UNK N   1      19.916  16.389   4.527  0.00  0.00     0.320 C 
HETATM   30  O   UNK N   1      20.255  15.870   3.476  0.00  0.00    -0.261 OA
HETATM   31  H   UNK N   1      20.062  18.067   5.664  0.00  0.00     0.170 HD
BRANCH  29  32
HETATM   32  C   UNK N   1      18.939  15.708   5.380  0.00  0.00     0.237 C 
HETATM   33  O   UNK N   1      18.808  16.030   6.547  0.00  0.00    -0.643 OA
BRANCH  32  34
HETATM   34  O   UNK N   1      18.275  14.634   4.903  0.00  0.00    -0.769 OA
HETATM   35  H   UNK N   1      18.267  14.453   3.984  0.00  0.00     0.168 HD
ENDBRANCH  32  34
ENDBRANCH  29  32
ENDBRANCH   8  28
TORSDOF 8
ENDMDL
MODEL 5
REMARK VINA RESULT:      -7.7      7.125     10.818
REMARK  8 active torsions:
REMARK  status: ('A' for Active; 'I' for Inactive)
REMARK    1  A    between atoms: C_2  and  C_19 
REMARK    2  A    between atoms: C_8  and  N_13 
REMARK    3  A    between atoms: C_9  and  C_10 
REMARK    4  A    between atoms: C_10  and  O_12 
REMARK       I    between atoms: N_13  and  C_14 
REMARK    5  A    between atoms: C_14  and  C_15 
REMARK    6  A    between atoms: C_15  and  O_17 
REMARK    7  A    between atoms: C_19  and  O_20 
REMARK    8  A    between atoms: O_20  and  C_21 
ROOT
HETATM    1  O   UNK N   1      19.848  16.847   2.870  0.00  0.00    -0.378 OA
HETATM    2  C   UNK N   1      20.759  16.533   3.929  0.00  0.00     0.186 C 
HETATM    3  C   UNK N   1      21.798  17.566   4.138  0.00  0.00     0.023 A 
HETATM    4  C   UNK N   1      21.924  18.727   3.394  0.00  0.00    -0.021 A 
HETATM    5  C   UNK N   1      20.891  19.037   2.363  0.00  0.00     0.067 C 
HETATM    6  C   UNK N   1      19.616  18.245   2.718  0.00  0.00     0.173 C 
HETATM    7  S   UNK N   1      23.078  17.443   5.135  0.00  0.00    -0.072 SA
HETATM    8  C   UNK N   1      23.896  18.803   4.679  0.00  0.00     0.095 A 
HETATM    9  C   UNK N   1      23.139  19.442   3.671  0.00  0.00     0.079 A 
ENDROOT
BRANCH   2  10
HETATM   10  C   UNK N   1      20.108  16.142   5.261  0.00  0.00     0.214 C 
BRANCH  10  11
HETATM   11  O   UNK N   1      20.463  14.869   5.616  0.00  0.00    -0.332 OA
BRANCH  11  12
HETATM   12  C   UNK N   1      20.985  14.663   6.838  0.00  0.00     0.164 A 
HETATM   13  C   UNK N   1      22.222  14.011   7.098  0.00  0.00     0.039 A 
HETATM   14  C   UNK N   1      22.352  13.810   8.440  0.00  0.00     0.094 A 
HETATM   15  C   UNK N   1      23.213  13.632   6.187  0.00  0.00     0.017 A 
HETATM   16  S   UNK N   1      20.957  14.427   9.472  0.00  0.00     0.265 S 
HETATM   17  C   UNK N   1      23.526  13.224   8.945  0.00  0.00     0.026 A 
HETATM   18  N   UNK N   1      20.322  14.948   7.888  0.00  0.00    -0.259 N 
HETATM   19  O   UNK N   1      20.883  12.898   9.292  0.00  0.00    -0.200 OA
HETATM   20  O   UNK N   1      19.477  14.046   9.638  0.00  0.00    -0.200 OA
ATOM     21  HN  UNK N   1      19.445  15.466   7.825  1.00  0.00     0.181 HD
HETATM   22  C   UNK N   1      24.536  12.825   8.055  0.00  0.00     0.002 A 
HETATM   23  C   UNK N   1      24.378  13.028   6.674  0.00  0.00     0.001 A 
ENDBRANCH  11  12
ENDBRANCH  10  11
ENDBRANCH   2  10
BRANCH   9  24
HETATM   24  C   UNK N   1      23.596  20.641   2.926  0.00  0.00     0.179 C 
HETATM   25  O   UNK N   1      22.943  21.673   2.960  0.00  0.00    -0.646 OA
BRANCH  24  26
HETATM   26  O   UNK N   1      24.749  20.615   2.229  0.00  0.00    -0.773 OA
HETATM   27  H   UNK N   1      25.385  21.299   2.308  0.00  0.00     0.167 HD
ENDBRANCH  24  26
ENDBRANCH   9  24
BRANCH   8  28
HETATM   28  N   UNK N   1      25.251  19.061   5.003  0.00  0.00    -0.311 N 
HETATM   29  C   UNK N   1      26.286  18.574   4.257  0.00  0.00     0.320 C 
HETATM   30  O   UNK N   1      26.132  17.635   3.496  0.00  0.00    -0.261 OA
HETATM   31  H   UNK N   1      25.453  19.611   5.794  0.00  0.00     0.170 HD
BRANCH  29  32
HETATM   32  C   UNK N   1      27.568  19.285   4.269  0.00  0.00     0.237 C 
HETATM   33  O   UNK N   1      27.601  20.498   4.357  0.00  0.00    -0.643 OA
BRANCH  32  34
HETATM   34  O   UNK N   1      28.709  18.598   4.051  0.00  0.00    -0.769 OA
HETATM   35  H   UNK N   1      29.091  18.573   3.196  0.00  0.00     0.168 HD
ENDBRANCH  32  34
ENDBRANCH  29  32
ENDBRANCH   8  28
TORSDOF 8
ENDMDL
MODEL 6
REMARK VINA RESULT:      -7.6      4.530     10.192
REMARK  8 active torsions:
REMARK  status: ('A' for Active; 'I' for Inactive)
REMARK    1  A    between atoms: C_2  and  C_19 
REMARK    2  A    between atoms: C_8  and  N_13 
REMARK    3  A    between atoms: C_9  and  C_10 
REMARK    4  A    between atoms: C_10  and  O_12 
REMARK       I    between atoms: N_13  and  C_14 
REMARK    5  A    between atoms: C_14  and  C_15 
REMARK    6  A    between atoms: C_15  and  O_17 
REMARK    7  A    between atoms: C_19  and  O_20 
REMARK    8  A    between atoms: O_20  and  C_21 
ROOT
HETATM    1  O   UNK N   1      36.010  10.955  12.259  0.00  0.00    -0.378 OA
HETATM    2  C   UNK N   1      36.268  12.363  12.221  0.00  0.00     0.186 C 
HETATM    3  C   UNK N   1      35.532  13.068  11.148  0.00  0.00     0.023 A 
HETATM    4  C   UNK N   1      34.683  12.462  10.237  0.00  0.00    -0.021 A 
HETATM    5  C   UNK N   1      34.390  11.006  10.385  0.00  0.00     0.067 C 
HETATM    6  C   UNK N   1      34.691  10.608  11.844  0.00  0.00     0.173 C 
HETATM    7  S   UNK N   1      35.726  14.626  10.724  0.00  0.00    -0.072 SA
HETATM    8  C   UNK N   1      34.802  14.642   9.355  0.00  0.00     0.095 A 
HETATM    9  C   UNK N   1      34.271  13.344   9.181  0.00  0.00     0.079 A 
ENDROOT
BRANCH   2  10
HETATM   10  C   UNK N   1      36.108  13.095  13.558  0.00  0.00     0.214 C 
BRANCH  10  11
HETATM   11  O   UNK N   1      34.912  12.778  14.142  0.00  0.00    -0.332 OA
BRANCH  11  12
HETATM   12  C   UNK N   1      34.914  11.965  15.214  0.00  0.00     0.164 A 
HETATM   13  C   UNK N   1      35.069  12.392  16.561  0.00  0.00     0.039 A 
HETATM   14  C   UNK N   1      35.209  11.300  17.367  0.00  0.00     0.094 A 
HETATM   15  C   UNK N   1      35.060  13.696  17.067  0.00  0.00     0.017 A 
HETATM   16  S   UNK N   1      35.144   9.672  16.511  0.00  0.00     0.265 S 
HETATM   17  C   UNK N   1      35.326  11.472  18.758  0.00  0.00     0.026 A 
HETATM   18  N   UNK N   1      34.891  10.699  15.074  0.00  0.00    -0.259 N 
HETATM   19  O   UNK N   1      36.595  10.062  16.857  0.00  0.00    -0.200 OA
HETATM   20  O   UNK N   1      36.039   8.940  15.497  0.00  0.00    -0.200 OA
ATOM     21  HN  UNK N   1      34.729  10.280  14.158  1.00  0.00     0.181 HD
HETATM   22  C   UNK N   1      35.328  12.770  19.294  0.00  0.00     0.002 A 
HETATM   23  C   UNK N   1      35.197  13.883  18.448  0.00  0.00     0.001 A 
ENDBRANCH  11  12
ENDBRANCH  10  11
ENDBRANCH   2  10
BRANCH   9  24
HETATM   24  C   UNK N   1      33.475  12.926   8.000  0.00  0.00     0.179 C 
HETATM   25  O   UNK N   1      32.381  13.426   7.787  0.00  0.00    -0.646 OA
BRANCH  24  26
HETATM   26  O   UNK N   1      33.961  12.015   7.136  0.00  0.00    -0.773 OA
HETATM   27  H   UNK N   1      34.241  12.256   6.275  0.00  0.00     0.167 HD
ENDBRANCH  24  26
ENDBRANCH   9  24
BRANCH   8  28
HETATM   28  N   UNK N   1      34.840  15.673   8.383  0.00  0.00    -0.311 N 
HETATM   29  C   UNK N   1      34.041  16.778   8.458  0.00  0.00     0.320 C 
HETATM   30  O   UNK N   1      33.035  16.787   9.147  0.00  0.00    -0.261 OA
HETATM   31  H   UNK N   1      35.465  15.589   7.628  0.00  0.00     0.170 HD
BRANCH  29  32
HETATM   32  C   UNK N   1      34.477  18.017   7.811  0.00  0.00     0.237 C 
HETATM   33  O   UNK N   1      34.354  18.163   6.609  0.00  0.00    -0.643 OA
BRANCH  32  34
HETATM   34  O   UNK N   1      35.136  18.947   8.534  0.00  0.00    -0.769 OA
HETATM   35  H   UNK N   1      35.001  19.859   8.369  0.00  0.00     0.168 HD
ENDBRANCH  32  34
ENDBRANCH  29  32
ENDBRANCH   8  28
TORSDOF 8
ENDMDL
MODEL 7
REMARK VINA RESULT:      -7.5     12.804     16.099
REMARK  8 active torsions:
REMARK  status: ('A' for Active; 'I' for Inactive)
REMARK    1  A    between atoms: C_2  and  C_19 
REMARK    2  A    between atoms: C_8  and  N_13 
REMARK    3  A    between atoms: C_9  and  C_10 
REMARK    4  A    between atoms: C_10  and  O_12 
REMARK       I    between atoms: N_13  and  C_14 
REMARK    5  A    between atoms: C_14  and  C_15 
REMARK    6  A    between atoms: C_15  and  O_17 
REMARK    7  A    between atoms: C_19  and  O_20 
REMARK    8  A    between atoms: O_20  and  C_21 
ROOT
HETATM    1  O   UNK N   1      25.354  24.669  -5.344  0.00  0.00    -0.378 OA
HETATM    2  C   UNK N   1      26.342  24.568  -4.312  0.00  0.00     0.186 C 
HETATM    3  C   UNK N   1      27.573  23.869  -4.742  0.00  0.00     0.023 A 
HETATM    4  C   UNK N   1      27.784  23.334  -6.002  0.00  0.00    -0.021 A 
HETATM    5  C   UNK N   1      26.751  23.550  -7.057  0.00  0.00     0.067 C 
HETATM    6  C   UNK N   1      25.910  24.778  -6.652  0.00  0.00     0.173 C 
HETATM    7  S   UNK N   1      28.810  23.436  -3.778  0.00  0.00    -0.072 SA
HETATM    8  C   UNK N   1      29.670  22.520  -4.851  0.00  0.00     0.095 A 
HETATM    9  C   UNK N   1      28.973  22.531  -6.080  0.00  0.00     0.079 A 
ENDROOT
BRANCH   2  10
HETATM   10  C   UNK N   1      26.685  25.881  -3.600  0.00  0.00     0.214 C 
BRANCH  10  11
HETATM   11  O   UNK N   1      25.906  26.902  -4.071  0.00  0.00    -0.332 OA
BRANCH  11  12
HETATM   12  C   UNK N   1      26.426  28.142  -4.113  0.00  0.00     0.164 A 
HETATM   13  C   UNK N   1      27.244  28.649  -5.160  0.00  0.00     0.039 A 
HETATM   14  C   UNK N   1      27.744  29.864  -4.794  0.00  0.00     0.094 A 
HETATM   15  C   UNK N   1      27.519  28.074  -6.405  0.00  0.00     0.017 A 
HETATM   16  S   UNK N   1      27.223  30.466  -3.133  0.00  0.00     0.265 S 
HETATM   17  C   UNK N   1      28.545  30.587  -5.695  0.00  0.00     0.026 A 
HETATM   18  N   UNK N   1      26.308  28.935  -3.122  0.00  0.00    -0.259 N 
HETATM   19  O   UNK N   1      28.661  29.910  -3.099  0.00  0.00    -0.200 OA
HETATM   20  O   UNK N   1      27.474  30.014  -1.686  0.00  0.00    -0.200 OA
ATOM     21  HN  UNK N   1      25.700  28.698  -2.338  1.00  0.00     0.181 HD
HETATM   22  C   UNK N   1      28.845  30.032  -6.950  0.00  0.00     0.002 A 
HETATM   23  C   UNK N   1      28.332  28.774  -7.304  0.00  0.00     0.001 A 
ENDBRANCH  11  12
ENDBRANCH  10  11
ENDBRANCH   2  10
BRANCH   9  24
HETATM   24  C   UNK N   1      29.369  21.731  -7.265  0.00  0.00     0.179 C 
HETATM   25  O   UNK N   1      29.419  20.513  -7.196  0.00  0.00    -0.646 OA
BRANCH  24  26
HETATM   26  O   UNK N   1      29.650  22.336  -8.435  0.00  0.00    -0.773 OA
HETATM   27  H   UNK N   1      29.139  23.056  -8.750  0.00  0.00     0.167 HD
ENDBRANCH  24  26
ENDBRANCH   9  24
BRANCH   8  28
HETATM   28  N   UNK N   1      30.707  21.628  -4.481  0.00  0.00    -0.311 N 
HETATM   29  C   UNK N   1      31.972  22.057  -4.195  0.00  0.00     0.320 C 
HETATM   30  O   UNK N   1      32.368  23.150  -4.561  0.00  0.00    -0.261 OA
HETATM   31  H   UNK N   1      30.509  20.666  -4.428  0.00  0.00     0.170 HD
BRANCH  29  32
HETATM   32  C   UNK N   1      32.815  21.248  -3.311  0.00  0.00     0.237 C 
HETATM   33  O   UNK N   1      33.585  20.427  -3.774  0.00  0.00    -0.643 OA
BRANCH  32  34
HETATM   34  O   UNK N   1      32.643  21.326  -1.975  0.00  0.00    -0.769 OA
HETATM   35  H   UNK N   1      32.096  21.992  -1.606  0.00  0.00     0.168 HD
ENDBRANCH  32  34
ENDBRANCH  29  32
ENDBRANCH   8  28
TORSDOF 8
ENDMDL
MODEL 8
REMARK VINA RESULT:      -7.5      5.307     10.149
REMARK  8 active torsions:
REMARK  status: ('A' for Active; 'I' for Inactive)
REMARK    1  A    between atoms: C_2  and  C_19 
REMARK    2  A    between atoms: C_8  and  N_13 
REMARK    3  A    between atoms: C_9  and  C_10 
REMARK    4  A    between atoms: C_10  and  O_12 
REMARK       I    between atoms: N_13  and  C_14 
REMARK    5  A    between atoms: C_14  and  C_15 
REMARK    6  A    between atoms: C_15  and  O_17 
REMARK    7  A    between atoms: C_19  and  O_20 
REMARK    8  A    between atoms: O_20  and  C_21 
ROOT
HETATM    1  O   UNK N   1      26.248  14.515   5.517  0.00  0.00    -0.378 OA
HETATM    2  C   UNK N   1      26.359  15.670   4.677  0.00  0.00     0.186 C 
HETATM    3  C   UNK N   1      25.239  16.623   4.836  0.00  0.00     0.023 A 
HETATM    4  C   UNK N   1      24.160  16.446   5.687  0.00  0.00    -0.021 A 
HETATM    5  C   UNK N   1      24.148  15.264   6.598  0.00  0.00     0.067 C 
HETATM    6  C   UNK N   1      25.603  14.778   6.761  0.00  0.00     0.173 C 
HETATM    7  S   UNK N   1      24.970  17.940   3.920  0.00  0.00    -0.072 SA
HETATM    8  C   UNK N   1      23.476  18.355   4.489  0.00  0.00     0.095 A 
HETATM    9  C   UNK N   1      23.121  17.418   5.486  0.00  0.00     0.079 A 
ENDROOT
BRANCH   2  10
HETATM   10  C   UNK N   1      27.705  16.400   4.741  0.00  0.00     0.214 C 
BRANCH  10  11
HETATM   11  O   UNK N   1      28.479  15.897   5.751  0.00  0.00    -0.332 OA
BRANCH  11  12
HETATM   12  C   UNK N   1      28.901  16.733   6.717  0.00  0.00     0.164 A 
HETATM   13  C   UNK N   1      30.262  17.017   7.013  0.00  0.00     0.039 A 
HETATM   14  C   UNK N   1      30.331  17.752   8.160  0.00  0.00     0.094 A 
HETATM   15  C   UNK N   1      31.403  16.665   6.284  0.00  0.00     0.017 A 
HETATM   16  S   UNK N   1      28.712  18.152   8.941  0.00  0.00     0.265 S 
HETATM   17  C   UNK N   1      31.580  18.199   8.627  0.00  0.00     0.026 A 
HETATM   18  N   UNK N   1      28.076  17.255   7.536  0.00  0.00    -0.259 N 
HETATM   19  O   UNK N   1      29.420  17.002   9.685  0.00  0.00    -0.200 OA
HETATM   20  O   UNK N   1      27.603  17.335   9.624  0.00  0.00    -0.200 OA
ATOM     21  HN  UNK N   1      27.070  17.163   7.390  1.00  0.00     0.181 HD
HETATM   22  C   UNK N   1      32.743  17.855   7.920  0.00  0.00     0.002 A 
HETATM   23  C   UNK N   1      32.655  17.085   6.749  0.00  0.00     0.001 A 
ENDBRANCH  11  12
ENDBRANCH  10  11
ENDBRANCH   2  10
BRANCH   9  24
HETATM   24  C   UNK N   1      21.800  17.387   6.161  0.00  0.00     0.179 C 
HETATM   25  O   UNK N   1      21.130  16.365   6.155  0.00  0.00    -0.646 OA
BRANCH  24  26
HETATM   26  O   UNK N   1      21.339  18.472   6.811  0.00  0.00    -0.773 OA
HETATM   27  H   UNK N   1      21.704  19.323   6.666  0.00  0.00     0.167 HD
ENDBRANCH  24  26
ENDBRANCH   9  24
BRANCH   8  28
HETATM   28  N   UNK N   1      22.604  19.264   3.841  0.00  0.00    -0.311 N 
HETATM   29  C   UNK N   1      21.482  18.855   3.178  0.00  0.00     0.320 C 
HETATM   30  O   UNK N   1      21.347  17.699   2.816  0.00  0.00    -0.261 OA
HETATM   31  H   UNK N   1      22.814  20.226   3.870  0.00  0.00     0.170 HD
BRANCH  29  32
HETATM   32  C   UNK N   1      20.364  19.789   3.027  0.00  0.00     0.237 C 
HETATM   33  O   UNK N   1      20.209  20.701   3.818  0.00  0.00    -0.643 OA
BRANCH  32  34
HETATM   34  O   UNK N   1      19.430  19.558   2.081  0.00  0.00    -0.769 OA
HETATM   35  H   UNK N   1      19.654  19.097   1.297  0.00  0.00     0.168 HD
ENDBRANCH  32  34
ENDBRANCH  29  32
ENDBRANCH   8  28
TORSDOF 8
ENDMDL
MODEL 9
REMARK VINA RESULT:      -7.4      2.081      2.616
REMARK  8 active torsions:
REMARK  status: ('A' for Active; 'I' for Inactive)
REMARK    1  A    between atoms: C_2  and  C_19 
REMARK    2  A    between atoms: C_8  and  N_13 
REMARK    3  A    between atoms: C_9  and  C_10 
REMARK    4  A    between atoms: C_10  and  O_12 
REMARK       I    between atoms: N_13  and  C_14 
REMARK    5  A    between atoms: C_14  and  C_15 
REMARK    6  A    between atoms: C_15  and  O_17 
REMARK    7  A    between atoms: C_19  and  O_20 
REMARK    8  A    between atoms: O_20  and  C_21 
ROOT
HETATM    1  O   UNK N   1      33.397  16.363   5.570  0.00  0.00    -0.378 OA
HETATM    2  C   UNK N   1      32.916  15.215   6.280  0.00  0.00     0.186 C 
HETATM    3  C   UNK N   1      33.359  15.168   7.691  0.00  0.00     0.023 A 
HETATM    4  C   UNK N   1      34.172  16.110   8.300  0.00  0.00    -0.021 A 
HETATM    5  C   UNK N   1      34.567  17.326   7.530  0.00  0.00     0.067 C 
HETATM    6  C   UNK N   1      33.544  17.518   6.392  0.00  0.00     0.173 C 
HETATM    7  S   UNK N   1      33.135  13.928   8.720  0.00  0.00    -0.072 SA
HETATM    8  C   UNK N   1      34.069  14.457   9.975  0.00  0.00     0.095 A 
HETATM    9  C   UNK N   1      34.614  15.708   9.607  0.00  0.00     0.079 A 
ENDROOT
BRANCH   2  10
HETATM   10  C   UNK N   1      31.408  14.964   6.176  0.00  0.00     0.214 C 
BRANCH  10  11
HETATM   11  O   UNK N   1      30.810  15.928   5.411  0.00  0.00    -0.332 OA
BRANCH  11  12
HETATM   12  C   UNK N   1      29.722  16.552   5.895  0.00  0.00     0.164 A 
HETATM   13  C   UNK N   1      29.663  17.245   7.135  0.00  0.00     0.039 A 
HETATM   14  C   UNK N   1      28.371  17.593   7.397  0.00  0.00     0.094 A 
HETATM   15  C   UNK N   1      30.715  17.584   7.993  0.00  0.00     0.017 A 
HETATM   16  S   UNK N   1      27.143  17.096   6.117  0.00  0.00     0.265 S 
HETATM   17  C   UNK N   1      28.071  18.338   8.552  0.00  0.00     0.026 A 
HETATM   18  N   UNK N   1      28.597  16.460   5.303  0.00  0.00    -0.259 N 
HETATM   19  O   UNK N   1      27.092  16.152   7.335  0.00  0.00    -0.200 OA
HETATM   20  O   UNK N   1      26.595  15.757   5.599  0.00  0.00    -0.200 OA
ATOM     21  HN  UNK N   1      28.530  16.030   4.380  1.00  0.00     0.181 HD
HETATM   22  C   UNK N   1      29.104  18.685   9.436  0.00  0.00     0.002 A 
HETATM   23  C   UNK N   1      30.427  18.307   9.157  0.00  0.00     0.001 A 
ENDBRANCH  11  12
ENDBRANCH  10  11
ENDBRANCH   2  10
BRANCH   9  24
HETATM   24  C   UNK N   1      35.599  16.457  10.427  0.00  0.00     0.179 C 
HETATM   25  O   UNK N   1      35.316  17.557  10.876  0.00  0.00    -0.646 OA
BRANCH  24  26
HETATM   26  O   UNK N   1      36.801  15.921  10.710  0.00  0.00    -0.773 OA
HETATM   27  H   UNK N   1      37.578  16.445  10.737  0.00  0.00     0.167 HD
ENDBRANCH  24  26
ENDBRANCH   9  24
BRANCH   8  28
HETATM   28  N   UNK N   1      34.498  13.636  11.047  0.00  0.00    -0.311 N 
HETATM   29  C   UNK N   1      35.707  13.003  11.044  0.00  0.00     0.320 C 
HETATM   30  O   UNK N   1      36.327  12.825  10.010  0.00  0.00    -0.261 OA
HETATM   31  H   UNK N   1      33.902  13.519  11.822  0.00  0.00     0.170 HD
BRANCH  29  32
HETATM   32  C   UNK N   1      36.334  12.657  12.323  0.00  0.00     0.237 C 
HETATM   33  O   UNK N   1      36.003  11.650  12.921  0.00  0.00    -0.643 OA
BRANCH  32  34
HETATM   34  O   UNK N   1      37.188  13.529  12.900  0.00  0.00    -0.769 OA
HETATM   35  H   UNK N   1      37.470  14.292  12.436  0.00  0.00     0.168 HD
ENDBRANCH  32  34
ENDBRANCH  29  32
ENDBRANCH   8  28
TORSDOF 8
ENDMDL
