REMARK  8 active torsions:
REMARK  status: ('A' for Active; 'I' for Inactive)
REMARK    1  A    between atoms: C_2  and  C_19 
REMARK    2  A    between atoms: C_8  and  N_13 
REMARK    3  A    between atoms: C_9  and  C_10 
REMARK    4  A    between atoms: C_10  and  O_12 
REMARK       I    between atoms: N_13  and  C_14 
REMARK    5  A    between atoms: C_14  and  C_15 
REMARK    6  A    between atoms: C_15  and  O_17 
REMARK    7  A    between atoms: C_19  and  O_20 
REMARK    8  A    between atoms: O_20  and  C_21 
ROOT
HETATM    1  O   UNK N   1       0.378   1.191   1.170  0.00  0.00    -0.378 OA
HETATM    2  C   UNK N   1       0.220  -0.188   0.817  0.00  0.00     0.186 C 
HETATM    3  C   UNK N   1      -1.134  -0.517   0.318  0.00  0.00     0.023 A 
HETATM    4  C   UNK N   1      -2.179   0.385   0.205  0.00  0.00    -0.021 A 
HETATM    5  C   UNK N   1      -1.924   1.824   0.507  0.00  0.00     0.067 C 
HETATM    6  C   UNK N   1      -0.408   2.074   0.373  0.00  0.00     0.173 C 
HETATM    7  S   UNK N   1      -1.695  -2.009  -0.004  0.00  0.00    -0.072 SA
HETATM    8  C   UNK N   1      -3.284  -1.641  -0.264  0.00  0.00     0.095 A 
HETATM    9  C   UNK N   1      -3.433  -0.245  -0.104  0.00  0.00     0.079 A 
ENDROOT
BRANCH   2  10
HETATM   10  C   UNK N   1       1.294  -0.753  -0.119  0.00  0.00     0.214 C 
BRANCH  10  11
HETATM   11  O   UNK N   1       1.467   0.064  -1.203  0.00  0.00    -0.332 OA
BRANCH  11  12
HETATM   12  C   UNK N   1       2.320   1.099  -1.100  0.00  0.00     0.164 A 
HETATM   13  C   UNK N   1       3.528   1.089  -0.350  0.00  0.00     0.039 A 
HETATM   14  C   UNK N   1       4.046   2.350  -0.312  0.00  0.00     0.094 A 
HETATM   15  C   UNK N   1       4.166   0.002   0.257  0.00  0.00     0.017 A 
HETATM   16  S   UNK N   1       3.078   3.630  -1.215  0.00  0.00     0.265 S 
HETATM   17  C   UNK N   1       5.274   2.579   0.334  0.00  0.00     0.026 A 
HETATM   18  N   UNK N   1       2.030   2.237  -1.594  0.00  0.00    -0.259 N 
HETATM   19  O   UNK N   1       2.845   3.725   0.306  0.00  0.00    -0.200 OA
HETATM   20  O   UNK N   1       1.696   4.277  -1.032  0.00  0.00    -0.200 OA
ATOM     21  HN  UNK N   1       1.214   2.349  -2.196  1.00  0.00     0.181 HD
HETATM   22  C   UNK N   1       5.934   1.509   0.959  0.00  0.00     0.002 A 
HETATM   23  C   UNK N   1       5.379   0.220   0.922  0.00  0.00     0.001 A 
ENDBRANCH  11  12
ENDBRANCH  10  11
ENDBRANCH   2  10
BRANCH   9  24
HETATM   24  C   UNK N   1      -4.738   0.460  -0.149  0.00  0.00     0.179 C 
HETATM   25  O   UNK N   1      -5.759  -0.152  -0.424  0.00  0.00    -0.646 OA
BRANCH  24  26
HETATM   26  O   UNK N   1      -4.816   1.773   0.141  0.00  0.00    -0.773 OA
HETATM   27  H   UNK N   1      -4.052   2.277   0.342  0.00  0.00     0.167 HD
ENDBRANCH  24  26
ENDBRANCH   9  24
BRANCH   8  28
HETATM   28  N   UNK N   1      -4.327  -2.600  -0.293  0.00  0.00    -0.311 N 
HETATM   29  C   UNK N   1      -4.084  -3.943  -0.332  0.00  0.00     0.320 C 
HETATM   30  O   UNK N   1      -3.002  -4.381  -0.683  0.00  0.00    -0.261 OA
HETATM   31  H   UNK N   1      -5.260  -2.286  -0.284  0.00  0.00     0.170 HD
BRANCH  29  32
HETATM   32  C   UNK N   1      -5.095  -4.865   0.192  0.00  0.00     0.237 C 
HETATM   33  O   UNK N   1      -6.158  -4.444   0.609  0.00  0.00    -0.643 OA
BRANCH  32  34
HETATM   34  O   UNK N   1      -4.792  -6.173   0.330  0.00  0.00    -0.769 OA
HETATM   35  H   UNK N   1      -5.473  -6.809   0.426  0.00  0.00     0.168 HD
ENDBRANCH  32  34
ENDBRANCH  29  32
ENDBRANCH   8  28
TORSDOF 8
