REMARK  8 active torsions:
REMARK  status: ('A' for Active; 'I' for Inactive)
REMARK    1  A    between atoms: O_1  and  C_2 
REMARK    2  A    between atoms: C_4  and  O_5 
REMARK    3  A    between atoms: C_6  and  C_9 
REMARK       I    between atoms: C_9  and  N_11 
REMARK    4  A    between atoms: C_12  and  N_11 
REMARK    5  A    between atoms: C_12  and  C_13 
REMARK    6  A    between atoms: C_12  and  C_15 
REMARK    7  A    between atoms: C_13  and  O_14 
REMARK    8  A    between atoms: C_15  and  O_17 
ROOT
HETATM    1  C   UNK N   1       0.405   0.506   0.300  0.00  0.00     0.255 C 
HETATM    2  O   UNK N   1       1.434   1.115   0.559  0.00  0.00    -0.268 OA
HETATM    3  N   UNK N   1       0.431  -0.819  -0.012  0.00  0.00    -0.340 N 
HETATM    4  H   UNK N   1      -0.454  -1.224  -0.160  0.00  0.00     0.163 HD
ENDROOT
BRANCH   1   5
HETATM    5  C   UNK N   1      -0.884   1.248   0.225  0.00  0.00     0.068 A 
HETATM    6  C   UNK N   1      -2.127   0.580   0.074  0.00  0.00     0.114 A 
HETATM    7  C   UNK N   1      -3.307   1.323  -0.063  0.00  0.00     0.099 A 
HETATM    8  C   UNK N   1      -3.266   2.718  -0.052  0.00  0.00     0.039 A 
HETATM    9  C   UNK N   1      -2.049   3.381   0.110  0.00  0.00     0.004 A 
HETATM   10  C   UNK N   1      -0.867   2.651   0.251  0.00  0.00     0.020 A 
BRANCH   6  11
HETATM   11  O   UNK N   1      -2.195  -0.763   0.064  0.00  0.00    -0.357 OA
HETATM   12  H   UNK N   1      -3.029  -1.190   0.057  0.00  0.00     0.217 HD
ENDBRANCH   6  11
BRANCH   7  13
HETATM   13  O   UNK N   1      -4.487   0.695  -0.212  0.00  0.00    -0.358 OA
HETATM   14  H   UNK N   1      -5.277   1.187  -0.316  0.00  0.00     0.217 HD
ENDBRANCH   7  13
ENDBRANCH   1   5
BRANCH   3  15
HETATM   15  C   UNK N   1       1.555  -1.735  -0.164  0.00  0.00     0.206 C 
BRANCH  15  16
HETATM   16  C   UNK N   1       1.307  -2.944   0.732  0.00  0.00     0.200 C 
BRANCH  16  17
HETATM   17  O   UNK N   1       2.123  -4.009   0.343  0.00  0.00    -0.398 OA
HETATM   18  H   UNK N   1       1.766  -4.870   0.073  0.00  0.00     0.209 HD
ENDBRANCH  16  17
ENDBRANCH  15  16
BRANCH  15  19
HETATM   19  C   UNK N   1       2.931  -1.136   0.053  0.00  0.00     0.165 C 
HETATM   20  O   UNK N   1       3.329  -0.243  -0.678  0.00  0.00    -0.648 OA
BRANCH  19  21
HETATM   21  O   UNK N   1       3.750  -1.622   1.007  0.00  0.00    -0.775 OA
HETATM   22  H   UNK N   1       3.742  -2.284   1.670  0.00  0.00     0.167 HD
ENDBRANCH  19  21
ENDBRANCH  15  19
ENDBRANCH   3  15
TORSDOF 8
