MODEL 1
REMARK VINA RESULT:      -6.2      0.000      0.000
REMARK  8 active torsions:
REMARK  status: ('A' for Active; 'I' for Inactive)
REMARK    1  A    between atoms: O_1  and  C_2 
REMARK    2  A    between atoms: C_4  and  O_5 
REMARK    3  A    between atoms: C_6  and  C_9 
REMARK       I    between atoms: C_9  and  N_11 
REMARK    4  A    between atoms: C_12  and  N_11 
REMARK    5  A    between atoms: C_12  and  C_13 
REMARK    6  A    between atoms: C_12  and  C_15 
REMARK    7  A    between atoms: C_13  and  O_14 
REMARK    8  A    between atoms: C_15  and  O_17 
ROOT
HETATM    1  C   UNK N   1      32.146  17.221   7.908  0.00  0.00     0.255 C 
HETATM    2  O   UNK N   1      32.890  17.827   7.149  0.00  0.00    -0.268 OA
HETATM    3  N   UNK N   1      32.643  16.410   8.882  0.00  0.00    -0.340 N 
HETATM    4  H   UNK N   1      31.962  16.004   9.466  0.00  0.00     0.163 HD
ENDROOT
BRANCH   1   5
HETATM    5  C   UNK N   1      30.673  17.290   7.697  0.00  0.00     0.068 A 
HETATM    6  C   UNK N   1      29.791  17.743   8.712  0.00  0.00     0.114 A 
HETATM    7  C   UNK N   1      28.407  17.724   8.494  0.00  0.00     0.099 A 
HETATM    8  C   UNK N   1      27.892  17.263   7.282  0.00  0.00     0.039 A 
HETATM    9  C   UNK N   1      28.754  16.829   6.274  0.00  0.00     0.004 A 
HETATM   10  C   UNK N   1      30.136  16.846   6.479  0.00  0.00     0.020 A 
BRANCH   6  11
HETATM   11  O   UNK N   1      30.261  18.196   9.888  0.00  0.00    -0.357 OA
HETATM   12  H   UNK N   1      31.144  18.012  10.142  0.00  0.00     0.217 HD
ENDBRANCH   6  11
BRANCH   7  13
HETATM   13  O   UNK N   1      27.566  18.147   9.454  0.00  0.00    -0.358 OA
HETATM   14  H   UNK N   1      27.050  17.533   9.937  0.00  0.00     0.217 HD
ENDBRANCH   7  13
ENDBRANCH   1   5
BRANCH   3  15
HETATM   15  C   UNK N   1      34.018  16.044   9.200  0.00  0.00     0.206 C 
BRANCH  15  16
HETATM   16  C   UNK N   1      33.986  14.805  10.090  0.00  0.00     0.200 C 
BRANCH  16  17
HETATM   17  O   UNK N   1      33.059  14.975  11.121  0.00  0.00    -0.398 OA
HETATM   18  H   UNK N   1      32.891  14.293  11.791  0.00  0.00     0.209 HD
ENDBRANCH  16  17
ENDBRANCH  15  16
BRANCH  15  19
HETATM   19  C   UNK N   1      34.877  17.146   9.788  0.00  0.00     0.165 C 
HETATM   20  O   UNK N   1      35.257  17.071  10.946  0.00  0.00    -0.648 OA
BRANCH  19  21
HETATM   21  O   UNK N   1      35.176  18.244   9.065  0.00  0.00    -0.775 OA
HETATM   22  H   UNK N   1      35.383  19.147   9.210  0.00  0.00     0.167 HD
ENDBRANCH  19  21
ENDBRANCH  15  19
ENDBRANCH   3  15
TORSDOF 8
ENDMDL
MODEL 2
REMARK VINA RESULT:      -5.9      2.609      6.835
REMARK  8 active torsions:
REMARK  status: ('A' for Active; 'I' for Inactive)
REMARK    1  A    between atoms: O_1  and  C_2 
REMARK    2  A    between atoms: C_4  and  O_5 
REMARK    3  A    between atoms: C_6  and  C_9 
REMARK       I    between atoms: C_9  and  N_11 
REMARK    4  A    between atoms: C_12  and  N_11 
REMARK    5  A    between atoms: C_12  and  C_13 
REMARK    6  A    between atoms: C_12  and  C_15 
REMARK    7  A    between atoms: C_13  and  O_14 
REMARK    8  A    between atoms: C_15  and  O_17 
ROOT
HETATM    1  C   UNK N   1      35.323  16.312  10.366  0.00  0.00     0.255 C 
HETATM    2  O   UNK N   1      35.979  17.317  10.606  0.00  0.00    -0.268 OA
HETATM    3  N   UNK N   1      34.210  16.369   9.584  0.00  0.00    -0.340 N 
HETATM    4  H   UNK N   1      33.781  15.499   9.417  0.00  0.00     0.163 HD
ENDROOT
BRANCH   1   5
HETATM    5  C   UNK N   1      35.689  15.027  11.023  0.00  0.00     0.068 A 
HETATM    6  C   UNK N   1      36.980  14.453  10.883  0.00  0.00     0.114 A 
HETATM    7  C   UNK N   1      37.256  13.207  11.461  0.00  0.00     0.099 A 
HETATM    8  C   UNK N   1      36.268  12.526  12.173  0.00  0.00     0.039 A 
HETATM    9  C   UNK N   1      35.001  13.091  12.326  0.00  0.00     0.004 A 
HETATM   10  C   UNK N   1      34.715  14.334  11.758  0.00  0.00     0.020 A 
BRANCH   6  11
HETATM   11  O   UNK N   1      37.951  15.089  10.205  0.00  0.00    -0.357 OA
HETATM   12  H   UNK N   1      38.779  14.672  10.070  0.00  0.00     0.217 HD
ENDBRANCH   6  11
BRANCH   7  13
HETATM   13  O   UNK N   1      38.476  12.656  11.327  0.00  0.00    -0.358 OA
HETATM   14  H   UNK N   1      38.567  11.752  11.098  0.00  0.00     0.217 HD
ENDBRANCH   7  13
ENDBRANCH   1   5
BRANCH   3  15
HETATM   15  C   UNK N   1      33.551  17.507   8.955  0.00  0.00     0.206 C 
BRANCH  15  16
HETATM   16  C   UNK N   1      32.252  17.014   8.325  0.00  0.00     0.200 C 
BRANCH  16  17
HETATM   17  O   UNK N   1      31.153  17.541   9.007  0.00  0.00    -0.398 OA
HETATM   18  H   UNK N   1      30.238  17.307   8.785  0.00  0.00     0.209 HD
ENDBRANCH  16  17
ENDBRANCH  15  16
BRANCH  15  19
HETATM   19  C   UNK N   1      34.393  18.304   7.979  0.00  0.00     0.165 C 
HETATM   20  O   UNK N   1      34.327  18.067   6.783  0.00  0.00    -0.648 OA
BRANCH  19  21
HETATM   21  O   UNK N   1      35.266  19.231   8.421  0.00  0.00    -0.775 OA
HETATM   22  H   UNK N   1      35.706  19.993   8.098  0.00  0.00     0.167 HD
ENDBRANCH  19  21
ENDBRANCH  15  19
ENDBRANCH   3  15
TORSDOF 8
ENDMDL
MODEL 3
REMARK VINA RESULT:      -5.8      2.249      6.124
REMARK  8 active torsions:
REMARK  status: ('A' for Active; 'I' for Inactive)
REMARK    1  A    between atoms: O_1  and  C_2 
REMARK    2  A    between atoms: C_4  and  O_5 
REMARK    3  A    between atoms: C_6  and  C_9 
REMARK       I    between atoms: C_9  and  N_11 
REMARK    4  A    between atoms: C_12  and  N_11 
REMARK    5  A    between atoms: C_12  and  C_13 
REMARK    6  A    between atoms: C_12  and  C_15 
REMARK    7  A    between atoms: C_13  and  O_14 
REMARK    8  A    between atoms: C_15  and  O_17 
ROOT
HETATM    1  C   UNK N   1      34.918  16.574   9.667  0.00  0.00     0.255 C 
HETATM    2  O   UNK N   1      35.441  17.653   9.911  0.00  0.00    -0.268 OA
HETATM    3  N   UNK N   1      33.836  16.487   8.846  0.00  0.00    -0.340 N 
HETATM    4  H   UNK N   1      33.519  15.569   8.679  0.00  0.00     0.163 HD
ENDROOT
BRANCH   1   5
HETATM    5  C   UNK N   1      35.410  15.350  10.358  0.00  0.00     0.068 A 
HETATM    6  C   UNK N   1      34.572  14.577  11.203  0.00  0.00     0.114 A 
HETATM    7  C   UNK N   1      35.099  13.473  11.888  0.00  0.00     0.099 A 
HETATM    8  C   UNK N   1      36.444  13.131  11.743  0.00  0.00     0.039 A 
HETATM    9  C   UNK N   1      37.270  13.879  10.904  0.00  0.00     0.004 A 
HETATM   10  C   UNK N   1      36.756  14.978  10.213  0.00  0.00     0.020 A 
BRANCH   6  11
HETATM   11  O   UNK N   1      33.272  14.882  11.356  0.00  0.00    -0.357 OA
HETATM   12  H   UNK N   1      32.885  14.868  12.209  0.00  0.00     0.217 HD
ENDBRANCH   6  11
BRANCH   7  13
HETATM   13  O   UNK N   1      34.310  12.740  12.694  0.00  0.00    -0.358 OA
HETATM   14  H   UNK N   1      33.706  12.122  12.333  0.00  0.00     0.217 HD
ENDBRANCH   7  13
ENDBRANCH   1   5
BRANCH   3  15
HETATM   15  C   UNK N   1      33.068  17.529   8.175  0.00  0.00     0.206 C 
BRANCH  15  16
HETATM   16  C   UNK N   1      31.605  17.375   8.578  0.00  0.00     0.200 C 
BRANCH  16  17
HETATM   17  O   UNK N   1      31.447  16.265   9.411  0.00  0.00    -0.398 OA
HETATM   18  H   UNK N   1      32.196  15.725   9.710  0.00  0.00     0.209 HD
ENDBRANCH  16  17
ENDBRANCH  15  16
BRANCH  15  19
HETATM   19  C   UNK N   1      33.241  17.614   6.671  0.00  0.00     0.165 C 
HETATM   20  O   UNK N   1      34.319  17.936   6.199  0.00  0.00    -0.648 OA
BRANCH  19  21
HETATM   21  O   UNK N   1      32.197  17.399   5.846  0.00  0.00    -0.775 OA
HETATM   22  H   UNK N   1      31.575  16.723   5.659  0.00  0.00     0.167 HD
ENDBRANCH  19  21
ENDBRANCH  15  19
ENDBRANCH   3  15
TORSDOF 8
ENDMDL
MODEL 4
REMARK VINA RESULT:      -5.7     13.275     15.627
REMARK  8 active torsions:
REMARK  status: ('A' for Active; 'I' for Inactive)
REMARK    1  A    between atoms: O_1  and  C_2 
REMARK    2  A    between atoms: C_4  and  O_5 
REMARK    3  A    between atoms: C_6  and  C_9 
REMARK       I    between atoms: C_9  and  N_11 
REMARK    4  A    between atoms: C_12  and  N_11 
REMARK    5  A    between atoms: C_12  and  C_13 
REMARK    6  A    between atoms: C_12  and  C_15 
REMARK    7  A    between atoms: C_13  and  O_14 
REMARK    8  A    between atoms: C_15  and  O_17 
ROOT
HETATM    1  C   UNK N   1      28.020  23.881  -3.133  0.00  0.00     0.255 C 
HETATM    2  O   UNK N   1      27.407  23.607  -2.110  0.00  0.00    -0.268 OA
HETATM    3  N   UNK N   1      27.585  24.859  -3.973  0.00  0.00    -0.340 N 
HETATM    4  H   UNK N   1      28.173  25.031  -4.744  0.00  0.00     0.163 HD
ENDROOT
BRANCH   1   5
HETATM    5  C   UNK N   1      29.204  23.062  -3.516  0.00  0.00     0.068 A 
HETATM    6  C   UNK N   1      30.190  22.680  -2.570  0.00  0.00     0.114 A 
HETATM    7  C   UNK N   1      31.322  21.969  -2.991  0.00  0.00     0.099 A 
HETATM    8  C   UNK N   1      31.485  21.636  -4.336  0.00  0.00     0.039 A 
HETATM    9  C   UNK N   1      30.512  21.997  -5.269  0.00  0.00     0.004 A 
HETATM   10  C   UNK N   1      29.378  22.702  -4.861  0.00  0.00     0.020 A 
BRANCH   6  11
HETATM   11  O   UNK N   1      30.056  22.985  -1.268  0.00  0.00    -0.357 OA
HETATM   12  H   UNK N   1      29.307  23.465  -0.973  0.00  0.00     0.217 HD
ENDBRANCH   6  11
BRANCH   7  13
HETATM   13  O   UNK N   1      32.263  21.609  -2.100  0.00  0.00    -0.358 OA
HETATM   14  H   UNK N   1      32.168  20.823  -1.601  0.00  0.00     0.217 HD
ENDBRANCH   7  13
ENDBRANCH   1   5
BRANCH   3  15
HETATM   15  C   UNK N   1      26.391  25.693  -3.920  0.00  0.00     0.206 C 
BRANCH  15  16
HETATM   16  C   UNK N   1      25.699  25.620  -5.277  0.00  0.00     0.200 C 
BRANCH  16  17
HETATM   17  O   UNK N   1      25.026  26.816  -5.541  0.00  0.00    -0.398 OA
HETATM   18  H   UNK N   1      24.812  27.108  -6.441  0.00  0.00     0.209 HD
ENDBRANCH  16  17
ENDBRANCH  15  16
BRANCH  15  19
HETATM   19  C   UNK N   1      26.602  27.124  -3.463  0.00  0.00     0.165 C 
HETATM   20  O   UNK N   1      25.829  27.629  -2.665  0.00  0.00    -0.648 OA
BRANCH  19  21
HETATM   21  O   UNK N   1      27.601  27.869  -3.976  0.00  0.00    -0.775 OA
HETATM   22  H   UNK N   1      27.865  28.215  -4.806  0.00  0.00     0.167 HD
ENDBRANCH  19  21
ENDBRANCH  15  19
ENDBRANCH   3  15
TORSDOF 8
ENDMDL
MODEL 5
REMARK VINA RESULT:      -5.6      9.705     11.891
REMARK  8 active torsions:
REMARK  status: ('A' for Active; 'I' for Inactive)
REMARK    1  A    between atoms: O_1  and  C_2 
REMARK    2  A    between atoms: C_4  and  O_5 
REMARK    3  A    between atoms: C_6  and  C_9 
REMARK       I    between atoms: C_9  and  N_11 
REMARK    4  A    between atoms: C_12  and  N_11 
REMARK    5  A    between atoms: C_12  and  C_13 
REMARK    6  A    between atoms: C_12  and  C_15 
REMARK    7  A    between atoms: C_13  and  O_14 
REMARK    8  A    between atoms: C_15  and  O_17 
ROOT
HETATM    1  C   UNK N   1      20.335  14.883   9.216  0.00  0.00     0.255 C 
HETATM    2  O   UNK N   1      19.148  14.638   9.385  0.00  0.00    -0.268 OA
HETATM    3  N   UNK N   1      20.738  16.058   8.659  0.00  0.00    -0.340 N 
HETATM    4  H   UNK N   1      21.714  16.175   8.608  0.00  0.00     0.163 HD
ENDROOT
BRANCH   1   5
HETATM    5  C   UNK N   1      21.348  13.838   9.530  0.00  0.00     0.068 A 
HETATM    6  C   UNK N   1      22.487  13.626   8.709  0.00  0.00     0.114 A 
HETATM    7  C   UNK N   1      23.377  12.585   9.005  0.00  0.00     0.099 A 
HETATM    8  C   UNK N   1      23.148  11.754  10.103  0.00  0.00     0.039 A 
HETATM    9  C   UNK N   1      22.039  11.966  10.922  0.00  0.00     0.004 A 
HETATM   10  C   UNK N   1      21.147  13.002  10.639  0.00  0.00     0.020 A 
BRANCH   6  11
HETATM   11  O   UNK N   1      22.732  14.414   7.648  0.00  0.00    -0.357 OA
HETATM   12  H   UNK N   1      22.353  14.211   6.815  0.00  0.00     0.217 HD
ENDBRANCH   6  11
BRANCH   7  13
HETATM   13  O   UNK N   1      24.454  12.376   8.227  0.00  0.00    -0.358 OA
HETATM   14  H   UNK N   1      24.569  11.558   7.785  0.00  0.00     0.217 HD
ENDBRANCH   7  13
ENDBRANCH   1   5
BRANCH   3  15
HETATM   15  C   UNK N   1      19.961  17.170   8.125  0.00  0.00     0.206 C 
BRANCH  15  16
HETATM   16  C   UNK N   1      20.800  17.866   7.058  0.00  0.00     0.200 C 
BRANCH  16  17
HETATM   17  O   UNK N   1      22.019  17.204   6.893  0.00  0.00    -0.398 OA
HETATM   18  H   UNK N   1      22.776  17.607   6.440  0.00  0.00     0.209 HD
ENDBRANCH  16  17
ENDBRANCH  15  16
BRANCH  15  19
HETATM   19  C   UNK N   1      19.412  18.145   9.147  0.00  0.00     0.165 C 
HETATM   20  O   UNK N   1      20.145  18.990   9.638  0.00  0.00    -0.648 OA
BRANCH  19  21
HETATM   21  O   UNK N   1      18.136  18.052   9.571  0.00  0.00    -0.775 OA
HETATM   22  H   UNK N   1      17.494  17.388   9.728  0.00  0.00     0.167 HD
ENDBRANCH  19  21
ENDBRANCH  15  19
ENDBRANCH   3  15
TORSDOF 8
ENDMDL
MODEL 6
REMARK VINA RESULT:      -5.6      9.903     11.809
REMARK  8 active torsions:
REMARK  status: ('A' for Active; 'I' for Inactive)
REMARK    1  A    between atoms: O_1  and  C_2 
REMARK    2  A    between atoms: C_4  and  O_5 
REMARK    3  A    between atoms: C_6  and  C_9 
REMARK       I    between atoms: C_9  and  N_11 
REMARK    4  A    between atoms: C_12  and  N_11 
REMARK    5  A    between atoms: C_12  and  C_13 
REMARK    6  A    between atoms: C_12  and  C_15 
REMARK    7  A    between atoms: C_13  and  O_14 
REMARK    8  A    between atoms: C_15  and  O_17 
ROOT
HETATM    1  C   UNK N   1      21.364  13.586   8.900  0.00  0.00     0.255 C 
HETATM    2  O   UNK N   1      20.667  12.856   8.210  0.00  0.00    -0.268 OA
HETATM    3  N   UNK N   1      21.304  14.941   8.776  0.00  0.00    -0.340 N 
HETATM    4  H   UNK N   1      21.872  15.438   9.407  0.00  0.00     0.163 HD
ENDROOT
BRANCH   1   5
HETATM    5  C   UNK N   1      22.369  12.982   9.818  0.00  0.00     0.068 A 
HETATM    6  C   UNK N   1      21.995  12.373  11.044  0.00  0.00     0.114 A 
HETATM    7  C   UNK N   1      22.982  11.881  11.909  0.00  0.00     0.099 A 
HETATM    8  C   UNK N   1      24.332  11.988  11.570  0.00  0.00     0.039 A 
HETATM    9  C   UNK N   1      24.706  12.573  10.360  0.00  0.00     0.004 A 
HETATM   10  C   UNK N   1      23.731  13.064   9.489  0.00  0.00     0.020 A 
BRANCH   6  11
HETATM   11  O   UNK N   1      20.702  12.254  11.392  0.00  0.00    -0.357 OA
HETATM   12  H   UNK N   1      20.160  13.016  11.448  0.00  0.00     0.217 HD
ENDBRANCH   6  11
BRANCH   7  13
HETATM   13  O   UNK N   1      22.633  11.307  13.074  0.00  0.00    -0.358 OA
HETATM   14  H   UNK N   1      23.289  11.035  13.684  0.00  0.00     0.217 HD
ENDBRANCH   7  13
ENDBRANCH   1   5
BRANCH   3  15
HETATM   15  C   UNK N   1      20.536  15.775   7.859  0.00  0.00     0.206 C 
BRANCH  15  16
HETATM   16  C   UNK N   1      21.514  16.476   6.922  0.00  0.00     0.200 C 
BRANCH  16  17
HETATM   17  O   UNK N   1      21.005  17.718   6.535  0.00  0.00    -0.398 OA
HETATM   18  H   UNK N   1      20.268  17.810   5.910  0.00  0.00     0.209 HD
ENDBRANCH  16  17
ENDBRANCH  15  16
BRANCH  15  19
HETATM   19  C   UNK N   1      19.565  16.746   8.503  0.00  0.00     0.165 C 
HETATM   20  O   UNK N   1      18.365  16.529   8.456  0.00  0.00    -0.648 OA
BRANCH  19  21
HETATM   21  O   UNK N   1      20.008  17.883   9.075  0.00  0.00    -0.775 OA
HETATM   22  H   UNK N   1      20.759  18.187   9.546  0.00  0.00     0.167 HD
ENDBRANCH  19  21
ENDBRANCH  15  19
ENDBRANCH   3  15
TORSDOF 8
ENDMDL
MODEL 7
REMARK VINA RESULT:      -5.4      1.673      2.183
REMARK  8 active torsions:
REMARK  status: ('A' for Active; 'I' for Inactive)
REMARK    1  A    between atoms: O_1  and  C_2 
REMARK    2  A    between atoms: C_4  and  O_5 
REMARK    3  A    between atoms: C_6  and  C_9 
REMARK       I    between atoms: C_9  and  N_11 
REMARK    4  A    between atoms: C_12  and  N_11 
REMARK    5  A    between atoms: C_12  and  C_13 
REMARK    6  A    between atoms: C_12  and  C_15 
REMARK    7  A    between atoms: C_13  and  O_14 
REMARK    8  A    between atoms: C_15  and  O_17 
ROOT
HETATM    1  C   UNK N   1      32.859  16.883   8.201  0.00  0.00     0.255 C 
HETATM    2  O   UNK N   1      33.614  17.187   7.287  0.00  0.00    -0.268 OA
HETATM    3  N   UNK N   1      33.306  16.184   9.280  0.00  0.00    -0.340 N 
HETATM    4  H   UNK N   1      32.630  16.029   9.979  0.00  0.00     0.163 HD
ENDROOT
BRANCH   1   5
HETATM    5  C   UNK N   1      31.407  17.193   8.083  0.00  0.00     0.068 A 
HETATM    6  C   UNK N   1      30.575  16.540   7.137  0.00  0.00     0.114 A 
HETATM    7  C   UNK N   1      29.230  16.915   7.014  0.00  0.00     0.099 A 
HETATM    8  C   UNK N   1      28.705  17.928   7.818  0.00  0.00     0.039 A 
HETATM    9  C   UNK N   1      29.515  18.564   8.759  0.00  0.00     0.004 A 
HETATM   10  C   UNK N   1      30.855  18.197   8.893  0.00  0.00     0.020 A 
BRANCH   6  11
HETATM   11  O   UNK N   1      31.054  15.558   6.353  0.00  0.00    -0.357 OA
HETATM   12  H   UNK N   1      31.175  14.697   6.702  0.00  0.00     0.217 HD
ENDBRANCH   6  11
BRANCH   7  13
HETATM   13  O   UNK N   1      28.438  16.303   6.115  0.00  0.00    -0.358 OA
HETATM   14  H   UNK N   1      28.811  15.807   5.414  0.00  0.00     0.217 HD
ENDBRANCH   7  13
ENDBRANCH   1   5
BRANCH   3  15
HETATM   15  C   UNK N   1      34.622  15.627   9.570  0.00  0.00     0.206 C 
BRANCH  15  16
HETATM   16  C   UNK N   1      34.428  14.326  10.341  0.00  0.00     0.200 C 
BRANCH  16  17
HETATM   17  O   UNK N   1      33.978  14.594  11.636  0.00  0.00    -0.398 OA
HETATM   18  H   UNK N   1      33.195  15.140  11.815  0.00  0.00     0.209 HD
ENDBRANCH  16  17
ENDBRANCH  15  16
BRANCH  15  19
HETATM   19  C   UNK N   1      35.599  16.559  10.259  0.00  0.00     0.165 C 
HETATM   20  O   UNK N   1      35.486  17.767  10.125  0.00  0.00    -0.648 OA
BRANCH  19  21
HETATM   21  O   UNK N   1      36.633  16.068  10.971  0.00  0.00    -0.775 OA
HETATM   22  H   UNK N   1      37.046  15.243  11.132  0.00  0.00     0.167 HD
ENDBRANCH  19  21
ENDBRANCH  15  19
ENDBRANCH   3  15
TORSDOF 8
ENDMDL
MODEL 8
REMARK VINA RESULT:      -5.4      7.187      9.721
REMARK  8 active torsions:
REMARK  status: ('A' for Active; 'I' for Inactive)
REMARK    1  A    between atoms: O_1  and  C_2 
REMARK    2  A    between atoms: C_4  and  O_5 
REMARK    3  A    between atoms: C_6  and  C_9 
REMARK       I    between atoms: C_9  and  N_11 
REMARK    4  A    between atoms: C_12  and  N_11 
REMARK    5  A    between atoms: C_12  and  C_13 
REMARK    6  A    between atoms: C_12  and  C_15 
REMARK    7  A    between atoms: C_13  and  O_14 
REMARK    8  A    between atoms: C_15  and  O_17 
ROOT
HETATM    1  C   UNK N   1      24.124  20.249   3.369  0.00  0.00     0.255 C 
HETATM    2  O   UNK N   1      24.388  21.003   2.443  0.00  0.00    -0.268 OA
HETATM    3  N   UNK N   1      25.014  20.033   4.377  0.00  0.00    -0.340 N 
HETATM    4  H   UNK N   1      24.688  19.445   5.095  0.00  0.00     0.163 HD
ENDROOT
BRANCH   1   5
HETATM    5  C   UNK N   1      22.851  19.476   3.343  0.00  0.00     0.068 A 
HETATM    6  C   UNK N   1      21.625  20.063   2.936  0.00  0.00     0.114 A 
HETATM    7  C   UNK N   1      20.440  19.318   2.995  0.00  0.00     0.099 A 
HETATM    8  C   UNK N   1      20.460  17.999   3.453  0.00  0.00     0.039 A 
HETATM    9  C   UNK N   1      21.664  17.412   3.842  0.00  0.00     0.004 A 
HETATM   10  C   UNK N   1      22.852  18.144   3.784  0.00  0.00     0.020 A 
BRANCH   6  11
HETATM   11  O   UNK N   1      21.579  21.330   2.487  0.00  0.00    -0.357 OA
HETATM   12  H   UNK N   1      20.759  21.709   2.236  0.00  0.00     0.217 HD
ENDBRANCH   6  11
BRANCH   7  13
HETATM   13  O   UNK N   1      19.274  19.871   2.615  0.00  0.00    -0.358 OA
HETATM   14  H   UNK N   1      18.462  19.536   2.939  0.00  0.00     0.217 HD
ENDBRANCH   7  13
ENDBRANCH   1   5
BRANCH   3  15
HETATM   15  C   UNK N   1      26.372  20.530   4.564  0.00  0.00     0.206 C 
BRANCH  15  16
HETATM   16  C   UNK N   1      27.339  19.495   3.998  0.00  0.00     0.200 C 
BRANCH  16  17
HETATM   17  O   UNK N   1      28.658  19.866   4.272  0.00  0.00    -0.398 OA
HETATM   18  H   UNK N   1      29.097  20.606   3.825  0.00  0.00     0.209 HD
ENDBRANCH  16  17
ENDBRANCH  15  16
BRANCH  15  19
HETATM   19  C   UNK N   1      26.738  20.941   5.977  0.00  0.00     0.165 C 
HETATM   20  O   UNK N   1      27.668  21.708   6.167  0.00  0.00    -0.648 OA
BRANCH  19  21
HETATM   21  O   UNK N   1      26.086  20.418   7.035  0.00  0.00    -0.775 OA
HETATM   22  H   UNK N   1      25.337  19.882   7.205  0.00  0.00     0.167 HD
ENDBRANCH  19  21
ENDBRANCH  15  19
ENDBRANCH   3  15
TORSDOF 8
ENDMDL
MODEL 9
REMARK VINA RESULT:      -5.3      4.091      8.038
REMARK  8 active torsions:
REMARK  status: ('A' for Active; 'I' for Inactive)
REMARK    1  A    between atoms: O_1  and  C_2 
REMARK    2  A    between atoms: C_4  and  O_5 
REMARK    3  A    between atoms: C_6  and  C_9 
REMARK       I    between atoms: C_9  and  N_11 
REMARK    4  A    between atoms: C_12  and  N_11 
REMARK    5  A    between atoms: C_12  and  C_13 
REMARK    6  A    between atoms: C_12  and  C_15 
REMARK    7  A    between atoms: C_13  and  O_14 
REMARK    8  A    between atoms: C_15  and  O_17 
ROOT
HETATM    1  C   UNK N   1      34.840  12.969  12.131  0.00  0.00     0.255 C 
HETATM    2  O   UNK N   1      34.873  11.878  11.576  0.00  0.00    -0.268 OA
HETATM    3  N   UNK N   1      34.526  14.100  11.441  0.00  0.00    -0.340 N 
HETATM    4  H   UNK N   1      34.484  14.917  11.988  0.00  0.00     0.163 HD
ENDROOT
BRANCH   1   5
HETATM    5  C   UNK N   1      35.250  13.075  13.558  0.00  0.00     0.068 A 
HETATM    6  C   UNK N   1      36.261  13.976  13.984  0.00  0.00     0.114 A 
HETATM    7  C   UNK N   1      36.663  13.991  15.326  0.00  0.00     0.099 A 
HETATM    8  C   UNK N   1      36.074  13.123  16.247  0.00  0.00     0.039 A 
HETATM    9  C   UNK N   1      35.070  12.245  15.838  0.00  0.00     0.004 A 
HETATM   10  C   UNK N   1      34.659  12.223  14.504  0.00  0.00     0.020 A 
BRANCH   6  11
HETATM   11  O   UNK N   1      36.842  14.825  13.118  0.00  0.00    -0.357 OA
HETATM   12  H   UNK N   1      36.327  15.476  12.683  0.00  0.00     0.217 HD
ENDBRANCH   6  11
BRANCH   7  13
HETATM   13  O   UNK N   1      37.624  14.838  15.734  0.00  0.00    -0.358 OA
HETATM   14  H   UNK N   1      37.415  15.561  16.292  0.00  0.00     0.217 HD
ENDBRANCH   7  13
ENDBRANCH   1   5
BRANCH   3  15
HETATM   15  C   UNK N   1      34.242  14.298  10.025  0.00  0.00     0.206 C 
BRANCH  15  16
HETATM   16  C   UNK N   1      35.542  14.691   9.331  0.00  0.00     0.200 C 
BRANCH  16  17
HETATM   17  O   UNK N   1      36.246  15.614  10.109  0.00  0.00    -0.398 OA
HETATM   18  H   UNK N   1      36.724  15.361  10.914  0.00  0.00     0.209 HD
ENDBRANCH  16  17
ENDBRANCH  15  16
BRANCH  15  19
HETATM   19  C   UNK N   1      33.111  15.256   9.704  0.00  0.00     0.165 C 
HETATM   20  O   UNK N   1      33.330  16.256   9.039  0.00  0.00    -0.648 OA
BRANCH  19  21
HETATM   21  O   UNK N   1      31.874  15.049  10.198  0.00  0.00    -0.775 OA
HETATM   22  H   UNK N   1      30.984  15.190   9.945  0.00  0.00     0.167 HD
ENDBRANCH  19  21
ENDBRANCH  15  19
ENDBRANCH   3  15
TORSDOF 8
ENDMDL
