REMARK  9 active torsions:
REMARK  status: ('A' for Active; 'I' for Inactive)
REMARK    1  A    between atoms: N_1  and  C_5 
REMARK    2  A    between atoms: C_5  and  C_6 
REMARK    3  A    between atoms: C_6  and  C_7 
REMARK    4  A    between atoms: C_7  and  C_8 
REMARK    5  A    between atoms: C_8  and  C_9 
REMARK    6  A    between atoms: C_9  and  C_10 
REMARK    7  A    between atoms: C_10  and  C_11 
REMARK    8  A    between atoms: C_11  and  C_12 
REMARK    9  A    between atoms: C_12  and  C_13 
ROOT
HETATM    1  C   UNK N   1      -0.884  -1.062   0.247  0.00  0.00     0.002 C 
ENDROOT
BRANCH   1   2
HETATM    2  C   UNK N   1      -2.127  -0.537  -0.432  0.00  0.00     0.036 C 
BRANCH   2   3
HETATM    3  C   UNK N   1      -3.142  -0.068   0.606  0.00  0.00     0.311 C 
BRANCH   3   4
HETATM    4  N   UNK N   1      -4.311   0.564  -0.006  0.00  0.00     0.005 N 
HETATM    5  O   UNK N   1      -5.197   0.852   0.976  0.00  0.00    -0.065 OA
HETATM    6  C   UNK N   1      -4.967  -0.323  -0.956  0.00  0.00     0.355 C 
HETATM    7  C   UNK N   1      -3.945   1.809  -0.663  0.00  0.00     0.355 C 
ENDBRANCH   3   4
ENDBRANCH   2   3
ENDBRANCH   1   2
BRANCH   1   8
HETATM    8  C   UNK N   1       0.214  -0.031   0.127  0.00  0.00     0.000 C 
BRANCH   8   9
HETATM    9  C   UNK N   1       1.542  -0.748   0.120  0.00  0.00     0.000 C 
BRANCH   9  10
HETATM   10  C   UNK N   1       2.664   0.256   0.003  0.00  0.00     0.000 C 
BRANCH  10  11
HETATM   11  C   UNK N   1       3.970  -0.501  -0.005  0.00  0.00     0.000 C 
BRANCH  11  12
HETATM   12  C   UNK N   1       5.127   0.470  -0.014  0.00  0.00    -0.000 C 
BRANCH  12  13
HETATM   13  C   UNK N   1       6.418  -0.318  -0.001  0.00  0.00    -0.005 C 
HETATM   14  C   UNK N   1       7.592   0.635  -0.000  0.00  0.00     0.005 C 
ENDBRANCH  12  13
ENDBRANCH  11  12
ENDBRANCH  10  11
ENDBRANCH   9  10
ENDBRANCH   8   9
ENDBRANCH   1   8
TORSDOF 9
