MODEL 1
REMARK VINA RESULT:      -4.5      0.000      0.000
REMARK  9 active torsions:
REMARK  status: ('A' for Active; 'I' for Inactive)
REMARK    1  A    between atoms: N_1  and  C_5 
REMARK    2  A    between atoms: C_5  and  C_6 
REMARK    3  A    between atoms: C_6  and  C_7 
REMARK    4  A    between atoms: C_7  and  C_8 
REMARK    5  A    between atoms: C_8  and  C_9 
REMARK    6  A    between atoms: C_9  and  C_10 
REMARK    7  A    between atoms: C_10  and  C_11 
REMARK    8  A    between atoms: C_11  and  C_12 
REMARK    9  A    between atoms: C_12  and  C_13 
ROOT
HETATM    1  C   UNK N   1      26.901  24.165  -4.320  0.00  0.00     0.002 C 
ENDROOT
BRANCH   1   2
HETATM    2  C   UNK N   1      28.184  24.516  -3.604  0.00  0.00     0.036 C 
BRANCH   2   3
HETATM    3  C   UNK N   1      28.595  23.385  -2.666  0.00  0.00     0.311 C 
BRANCH   3   4
HETATM    4  N   UNK N   1      30.035  23.127  -2.706  0.00  0.00     0.005 N 
HETATM    5  O   UNK N   1      30.480  23.021  -1.432  0.00  0.00    -0.065 OA
HETATM    6  C   UNK N   1      30.760  24.216  -3.345  0.00  0.00     0.355 C 
HETATM    7  C   UNK N   1      30.320  21.875  -3.389  0.00  0.00     0.355 C 
ENDBRANCH   3   4
ENDBRANCH   2   3
ENDBRANCH   1   2
BRANCH   1   8
HETATM    8  C   UNK N   1      26.080  25.421  -4.502  0.00  0.00     0.000 C 
BRANCH   8   9
HETATM    9  C   UNK N   1      26.454  26.396  -3.412  0.00  0.00     0.000 C 
BRANCH   9  10
HETATM   10  C   UNK N   1      25.751  27.713  -3.642  0.00  0.00     0.000 C 
BRANCH  10  11
HETATM   11  C   UNK N   1      25.994  28.129  -5.073  0.00  0.00     0.000 C 
BRANCH  11  12
HETATM   12  C   UNK N   1      27.249  28.965  -5.159  0.00  0.00    -0.000 C 
BRANCH  12  13
HETATM   13  C   UNK N   1      27.802  28.861  -6.563  0.00  0.00    -0.005 C 
HETATM   14  C   UNK N   1      27.424  27.523  -7.158  0.00  0.00     0.005 C 
ENDBRANCH  12  13
ENDBRANCH  11  12
ENDBRANCH  10  11
ENDBRANCH   9  10
ENDBRANCH   8   9
ENDBRANCH   1   8
TORSDOF 9
ENDMDL
MODEL 2
REMARK VINA RESULT:      -4.2     12.297     14.323
REMARK  9 active torsions:
REMARK  status: ('A' for Active; 'I' for Inactive)
REMARK    1  A    between atoms: N_1  and  C_5 
REMARK    2  A    between atoms: C_5  and  C_6 
REMARK    3  A    between atoms: C_6  and  C_7 
REMARK    4  A    between atoms: C_7  and  C_8 
REMARK    5  A    between atoms: C_8  and  C_9 
REMARK    6  A    between atoms: C_9  and  C_10 
REMARK    7  A    between atoms: C_10  and  C_11 
REMARK    8  A    between atoms: C_11  and  C_12 
REMARK    9  A    between atoms: C_12  and  C_13 
ROOT
HETATM    1  C   UNK N   1      30.494  17.396   8.871  0.00  0.00     0.002 C 
ENDROOT
BRANCH   1   2
HETATM    2  C   UNK N   1      31.830  17.991   8.491  0.00  0.00     0.036 C 
BRANCH   2   3
HETATM    3  C   UNK N   1      32.424  17.246   7.299  0.00  0.00     0.311 C 
BRANCH   3   4
HETATM    4  N   UNK N   1      33.878  17.390   7.223  0.00  0.00     0.005 N 
HETATM    5  O   UNK N   1      34.190  17.868   5.995  0.00  0.00    -0.065 OA
HETATM    6  C   UNK N   1      34.556  16.113   7.393  0.00  0.00     0.355 C 
HETATM    7  C   UNK N   1      34.359  18.341   8.212  0.00  0.00     0.355 C 
ENDBRANCH   3   4
ENDBRANCH   2   3
ENDBRANCH   1   2
BRANCH   1   8
HETATM    8  C   UNK N   1      29.616  18.485   9.442  0.00  0.00     0.000 C 
BRANCH   8   9
HETATM    9  C   UNK N   1      28.253  18.381   8.804  0.00  0.00     0.000 C 
BRANCH   9  10
HETATM   10  C   UNK N   1      28.228  19.172   7.519  0.00  0.00     0.000 C 
BRANCH  10  11
HETATM   11  C   UNK N   1      27.647  18.292   6.439  0.00  0.00     0.000 C 
BRANCH  11  12
HETATM   12  C   UNK N   1      28.406  18.493   5.148  0.00  0.00    -0.000 C 
BRANCH  12  13
HETATM   13  C   UNK N   1      29.636  17.612   5.170  0.00  0.00    -0.005 C 
HETATM   14  C   UNK N   1      29.240  16.201   5.540  0.00  0.00     0.005 C 
ENDBRANCH  12  13
ENDBRANCH  11  12
ENDBRANCH  10  11
ENDBRANCH   9  10
ENDBRANCH   8   9
ENDBRANCH   1   8
TORSDOF 9
ENDMDL
MODEL 3
REMARK VINA RESULT:      -4.1      2.945      5.320
REMARK  9 active torsions:
REMARK  status: ('A' for Active; 'I' for Inactive)
REMARK    1  A    between atoms: N_1  and  C_5 
REMARK    2  A    between atoms: C_5  and  C_6 
REMARK    3  A    between atoms: C_6  and  C_7 
REMARK    4  A    between atoms: C_7  and  C_8 
REMARK    5  A    between atoms: C_8  and  C_9 
REMARK    6  A    between atoms: C_9  and  C_10 
REMARK    7  A    between atoms: C_10  and  C_11 
REMARK    8  A    between atoms: C_11  and  C_12 
REMARK    9  A    between atoms: C_12  and  C_13 
ROOT
HETATM    1  C   UNK N   1      26.821  27.456  -6.288  0.00  0.00     0.002 C 
ENDROOT
BRANCH   1   2
HETATM    2  C   UNK N   1      27.296  28.740  -5.648  0.00  0.00     0.036 C 
BRANCH   2   3
HETATM    3  C   UNK N   1      27.877  28.461  -4.265  0.00  0.00     0.311 C 
BRANCH   3   4
HETATM    4  N   UNK N   1      27.106  29.100  -3.199  0.00  0.00     0.005 N 
HETATM    5  O   UNK N   1      26.181  28.216  -2.759  0.00  0.00    -0.065 OA
HETATM    6  C   UNK N   1      26.405  30.283  -3.677  0.00  0.00     0.355 C 
HETATM    7  C   UNK N   1      27.963  29.453  -2.077  0.00  0.00     0.355 C 
ENDBRANCH   3   4
ENDBRANCH   2   3
ENDBRANCH   1   2
BRANCH   1   8
HETATM    8  C   UNK N   1      25.338  27.302  -6.039  0.00  0.00     0.000 C 
BRANCH   8   9
HETATM    9  C   UNK N   1      25.090  25.924  -5.477  0.00  0.00     0.000 C 
BRANCH   9  10
HETATM   10  C   UNK N   1      25.960  24.917  -6.191  0.00  0.00     0.000 C 
BRANCH  10  11
HETATM   11  C   UNK N   1      26.353  23.851  -5.197  0.00  0.00     0.000 C 
BRANCH  11  12
HETATM   12  C   UNK N   1      26.704  24.487  -3.872  0.00  0.00    -0.000 C 
BRANCH  12  13
HETATM   13  C   UNK N   1      28.191  24.766  -3.851  0.00  0.00    -0.005 C 
HETATM   14  C   UNK N   1      28.939  23.563  -4.379  0.00  0.00     0.005 C 
ENDBRANCH  12  13
ENDBRANCH  11  12
ENDBRANCH  10  11
ENDBRANCH   9  10
ENDBRANCH   8   9
ENDBRANCH   1   8
TORSDOF 9
ENDMDL
MODEL 4
REMARK VINA RESULT:      -4.1     10.420     12.173
REMARK  9 active torsions:
REMARK  status: ('A' for Active; 'I' for Inactive)
REMARK    1  A    between atoms: N_1  and  C_5 
REMARK    2  A    between atoms: C_5  and  C_6 
REMARK    3  A    between atoms: C_6  and  C_7 
REMARK    4  A    between atoms: C_7  and  C_8 
REMARK    5  A    between atoms: C_8  and  C_9 
REMARK    6  A    between atoms: C_9  and  C_10 
REMARK    7  A    between atoms: C_10  and  C_11 
REMARK    8  A    between atoms: C_11  and  C_12 
REMARK    9  A    between atoms: C_12  and  C_13 
ROOT
HETATM    1  C   UNK N   1      23.607  18.230   4.896  0.00  0.00     0.002 C 
ENDROOT
BRANCH   1   2
HETATM    2  C   UNK N   1      22.268  18.283   4.198  0.00  0.00     0.036 C 
BRANCH   2   3
HETATM    3  C   UNK N   1      22.164  19.542   3.343  0.00  0.00     0.311 C 
BRANCH   3   4
HETATM    4  N   UNK N   1      20.784  19.839   2.957  0.00  0.00     0.005 N 
HETATM    5  O   UNK N   1      20.270  20.703   3.863  0.00  0.00    -0.065 OA
HETATM    6  C   UNK N   1      19.955  18.642   2.958  0.00  0.00     0.355 C 
HETATM    7  C   UNK N   1      20.735  20.474   1.649  0.00  0.00     0.355 C 
ENDBRANCH   3   4
ENDBRANCH   2   3
ENDBRANCH   1   2
BRANCH   1   8
HETATM    8  C   UNK N   1      24.578  17.454   4.038  0.00  0.00     0.000 C 
BRANCH   8   9
HETATM    9  C   UNK N   1      25.885  18.209   3.996  0.00  0.00     0.000 C 
BRANCH   9  10
HETATM   10  C   UNK N   1      25.701  19.508   3.248  0.00  0.00     0.000 C 
BRANCH  10  11
HETATM   11  C   UNK N   1      26.792  20.456   3.682  0.00  0.00     0.000 C 
BRANCH  11  12
HETATM   12  C   UNK N   1      27.510  19.897   4.888  0.00  0.00    -0.000 C 
BRANCH  12  13
HETATM   13  C   UNK N   1      27.681  21.004   5.904  0.00  0.00    -0.005 C 
HETATM   14  C   UNK N   1      26.382  21.212   6.649  0.00  0.00     0.005 C 
ENDBRANCH  12  13
ENDBRANCH  11  12
ENDBRANCH  10  11
ENDBRANCH   9  10
ENDBRANCH   8   9
ENDBRANCH   1   8
TORSDOF 9
ENDMDL
MODEL 5
REMARK VINA RESULT:      -4.1     19.159     22.781
REMARK  9 active torsions:
REMARK  status: ('A' for Active; 'I' for Inactive)
REMARK    1  A    between atoms: N_1  and  C_5 
REMARK    2  A    between atoms: C_5  and  C_6 
REMARK    3  A    between atoms: C_6  and  C_7 
REMARK    4  A    between atoms: C_7  and  C_8 
REMARK    5  A    between atoms: C_8  and  C_9 
REMARK    6  A    between atoms: C_9  and  C_10 
REMARK    7  A    between atoms: C_10  and  C_11 
REMARK    8  A    between atoms: C_11  and  C_12 
REMARK    9  A    between atoms: C_12  and  C_13 
ROOT
HETATM    1  C   UNK N   1      35.573  13.290  12.545  0.00  0.00     0.002 C 
ENDROOT
BRANCH   1   2
HETATM    2  C   UNK N   1      35.566  14.794  12.409  0.00  0.00     0.036 C 
BRANCH   2   3
HETATM    3  C   UNK N   1      34.696  15.217  11.229  0.00  0.00     0.311 C 
BRANCH   3   4
HETATM    4  N   UNK N   1      35.476  15.834  10.156  0.00  0.00     0.005 N 
HETATM    5  O   UNK N   1      36.625  16.310  10.690  0.00  0.00    -0.065 OA
HETATM    6  C   UNK N   1      34.767  16.951   9.548  0.00  0.00     0.355 C 
HETATM    7  C   UNK N   1      35.823  14.855   9.137  0.00  0.00     0.355 C 
ENDBRANCH   3   4
ENDBRANCH   2   3
ENDBRANCH   1   2
BRANCH   1   8
HETATM    8  C   UNK N   1      36.753  12.879  13.395  0.00  0.00     0.000 C 
BRANCH   8   9
HETATM    9  C   UNK N   1      36.448  13.224  14.832  0.00  0.00     0.000 C 
BRANCH   9  10
HETATM   10  C   UNK N   1      36.481  11.973  15.676  0.00  0.00     0.000 C 
BRANCH  10  11
HETATM   11  C   UNK N   1      35.098  11.749  16.237  0.00  0.00     0.000 C 
BRANCH  11  12
HETATM   12  C   UNK N   1      34.522  10.464  15.689  0.00  0.00    -0.000 C 
BRANCH  12  13
HETATM   13  C   UNK N   1      33.529  10.807  14.600  0.00  0.00    -0.005 C 
HETATM   14  C   UNK N   1      34.004  10.233  13.284  0.00  0.00     0.005 C 
ENDBRANCH  12  13
ENDBRANCH  11  12
ENDBRANCH  10  11
ENDBRANCH   9  10
ENDBRANCH   8   9
ENDBRANCH   1   8
TORSDOF 9
ENDMDL
MODEL 6
REMARK VINA RESULT:      -4.1     14.535     16.343
REMARK  9 active torsions:
REMARK  status: ('A' for Active; 'I' for Inactive)
REMARK    1  A    between atoms: N_1  and  C_5 
REMARK    2  A    between atoms: C_5  and  C_6 
REMARK    3  A    between atoms: C_6  and  C_7 
REMARK    4  A    between atoms: C_7  and  C_8 
REMARK    5  A    between atoms: C_8  and  C_9 
REMARK    6  A    between atoms: C_9  and  C_10 
REMARK    7  A    between atoms: C_10  and  C_11 
REMARK    8  A    between atoms: C_11  and  C_12 
REMARK    9  A    between atoms: C_12  and  C_13 
ROOT
HETATM    1  C   UNK N   1      32.812  17.622   7.973  0.00  0.00     0.002 C 
ENDROOT
BRANCH   1   2
HETATM    2  C   UNK N   1      34.184  17.561   8.604  0.00  0.00     0.036 C 
BRANCH   2   3
HETATM    3  C   UNK N   1      34.621  16.110   8.785  0.00  0.00     0.311 C 
BRANCH   3   4
HETATM    4  N   UNK N   1      35.296  15.889  10.064  0.00  0.00     0.005 N 
HETATM    5  O   UNK N   1      35.688  17.092  10.547  0.00  0.00    -0.065 OA
HETATM    6  C   UNK N   1      36.482  15.060   9.910  0.00  0.00     0.355 C 
HETATM    7  C   UNK N   1      34.393  15.287  11.031  0.00  0.00     0.355 C 
ENDBRANCH   3   4
ENDBRANCH   2   3
ENDBRANCH   1   2
BRANCH   1   8
HETATM    8  C   UNK N   1      32.073  16.340   8.279  0.00  0.00     0.000 C 
BRANCH   8   9
HETATM    9  C   UNK N   1      31.271  15.951   7.061  0.00  0.00     0.000 C 
BRANCH   9  10
HETATM   10  C   UNK N   1      30.559  17.163   6.510  0.00  0.00     0.000 C 
BRANCH  10  11
HETATM   11  C   UNK N   1      29.107  17.076   6.913  0.00  0.00     0.000 C 
BRANCH  11  12
HETATM   12  C   UNK N   1      28.688  18.352   7.604  0.00  0.00    -0.000 C 
BRANCH  12  13
HETATM   13  C   UNK N   1      28.542  18.074   9.084  0.00  0.00    -0.005 C 
HETATM   14  C   UNK N   1      29.697  18.700   9.832  0.00  0.00     0.005 C 
ENDBRANCH  12  13
ENDBRANCH  11  12
ENDBRANCH  10  11
ENDBRANCH   9  10
ENDBRANCH   8   9
ENDBRANCH   1   8
TORSDOF 9
ENDMDL
MODEL 7
REMARK VINA RESULT:      -4.1     10.082     12.442
REMARK  9 active torsions:
REMARK  status: ('A' for Active; 'I' for Inactive)
REMARK    1  A    between atoms: N_1  and  C_5 
REMARK    2  A    between atoms: C_5  and  C_6 
REMARK    3  A    between atoms: C_6  and  C_7 
REMARK    4  A    between atoms: C_7  and  C_8 
REMARK    5  A    between atoms: C_8  and  C_9 
REMARK    6  A    between atoms: C_9  and  C_10 
REMARK    7  A    between atoms: C_10  and  C_11 
REMARK    8  A    between atoms: C_11  and  C_12 
REMARK    9  A    between atoms: C_12  and  C_13 
ROOT
HETATM    1  C   UNK N   1      24.877  19.488   3.236  0.00  0.00     0.002 C 
ENDROOT
BRANCH   1   2
HETATM    2  C   UNK N   1      23.542  20.189   3.134  0.00  0.00     0.036 C 
BRANCH   2   3
HETATM    3  C   UNK N   1      22.424  19.277   3.629  0.00  0.00     0.311 C 
BRANCH   3   4
HETATM    4  N   UNK N   1      21.116  19.662   3.097  0.00  0.00     0.005 N 
HETATM    5  O   UNK N   1      20.542  20.521   3.972  0.00  0.00    -0.065 OA
HETATM    6  C   UNK N   1      20.235  18.513   2.951  0.00  0.00     0.355 C 
HETATM    7  C   UNK N   1      21.255  20.345   1.820  0.00  0.00     0.355 C 
ENDBRANCH   3   4
ENDBRANCH   2   3
ENDBRANCH   1   2
BRANCH   1   8
HETATM    8  C   UNK N   1      25.980  20.506   3.060  0.00  0.00     0.000 C 
BRANCH   8   9
HETATM    9  C   UNK N   1      27.109  20.150   3.997  0.00  0.00     0.000 C 
BRANCH   9  10
HETATM   10  C   UNK N   1      26.980  20.943   5.276  0.00  0.00     0.000 C 
BRANCH  10  11
HETATM   11  C   UNK N   1      27.455  20.073   6.415  0.00  0.00     0.000 C 
BRANCH  11  12
HETATM   12  C   UNK N   1      28.102  18.821   5.871  0.00  0.00    -0.000 C 
BRANCH  12  13
HETATM   13  C   UNK N   1      28.040  17.746   6.932  0.00  0.00    -0.005 C 
HETATM   14  C   UNK N   1      29.442  17.309   7.293  0.00  0.00     0.005 C 
ENDBRANCH  12  13
ENDBRANCH  11  12
ENDBRANCH  10  11
ENDBRANCH   9  10
ENDBRANCH   8   9
ENDBRANCH   1   8
TORSDOF 9
ENDMDL
MODEL 8
REMARK VINA RESULT:      -4.1      1.209      2.022
REMARK  9 active torsions:
REMARK  status: ('A' for Active; 'I' for Inactive)
REMARK    1  A    between atoms: N_1  and  C_5 
REMARK    2  A    between atoms: C_5  and  C_6 
REMARK    3  A    between atoms: C_6  and  C_7 
REMARK    4  A    between atoms: C_7  and  C_8 
REMARK    5  A    between atoms: C_8  and  C_9 
REMARK    6  A    between atoms: C_9  and  C_10 
REMARK    7  A    between atoms: C_10  and  C_11 
REMARK    8  A    between atoms: C_11  and  C_12 
REMARK    9  A    between atoms: C_12  and  C_13 
ROOT
HETATM    1  C   UNK N   1      27.924  24.596  -4.616  0.00  0.00     0.002 C 
ENDROOT
BRANCH   1   2
HETATM    2  C   UNK N   1      28.914  24.198  -3.547  0.00  0.00     0.036 C 
BRANCH   2   3
HETATM    3  C   UNK N   1      29.575  22.869  -3.903  0.00  0.00     0.311 C 
BRANCH   3   4
HETATM    4  N   UNK N   1      30.914  22.743  -3.328  0.00  0.00     0.005 N 
HETATM    5  O   UNK N   1      30.881  23.237  -2.068  0.00  0.00    -0.065 OA
HETATM    6  C   UNK N   1      31.898  23.505  -4.083  0.00  0.00     0.355 C 
HETATM    7  C   UNK N   1      31.319  21.348  -3.255  0.00  0.00     0.355 C 
ENDBRANCH   3   4
ENDBRANCH   2   3
ENDBRANCH   1   2
BRANCH   1   8
HETATM    8  C   UNK N   1      26.536  24.605  -4.021  0.00  0.00     0.000 C 
BRANCH   8   9
HETATM    9  C   UNK N   1      25.541  24.354  -5.128  0.00  0.00     0.000 C 
BRANCH   9  10
HETATM   10  C   UNK N   1      25.819  25.284  -6.285  0.00  0.00     0.000 C 
BRANCH  10  11
HETATM   11  C   UNK N   1      25.331  26.662  -5.905  0.00  0.00     0.000 C 
BRANCH  11  12
HETATM   12  C   UNK N   1      26.406  27.684  -6.189  0.00  0.00    -0.000 C 
BRANCH  12  13
HETATM   13  C   UNK N   1      26.777  28.368  -4.892  0.00  0.00    -0.005 C 
HETATM   14  C   UNK N   1      25.661  28.187  -3.888  0.00  0.00     0.005 C 
ENDBRANCH  12  13
ENDBRANCH  11  12
ENDBRANCH  10  11
ENDBRANCH   9  10
ENDBRANCH   8   9
ENDBRANCH   1   8
TORSDOF 9
ENDMDL
MODEL 9
REMARK VINA RESULT:      -4.1     16.539     19.117
REMARK  9 active torsions:
REMARK  status: ('A' for Active; 'I' for Inactive)
REMARK    1  A    between atoms: N_1  and  C_5 
REMARK    2  A    between atoms: C_5  and  C_6 
REMARK    3  A    between atoms: C_6  and  C_7 
REMARK    4  A    between atoms: C_7  and  C_8 
REMARK    5  A    between atoms: C_8  and  C_9 
REMARK    6  A    between atoms: C_9  and  C_10 
REMARK    7  A    between atoms: C_10  and  C_11 
REMARK    8  A    between atoms: C_11  and  C_12 
REMARK    9  A    between atoms: C_12  and  C_13 
ROOT
HETATM    1  C   UNK N   1      21.379  14.125   9.658  0.00  0.00     0.002 C 
ENDROOT
BRANCH   1   2
HETATM    2  C   UNK N   1      21.026  13.870   8.212  0.00  0.00     0.036 C 
BRANCH   2   3
HETATM    3  C   UNK N   1      21.670  14.922   7.313  0.00  0.00     0.311 C 
BRANCH   3   4
HETATM    4  N   UNK N   1      20.680  15.681   6.549  0.00  0.00     0.005 N 
HETATM    5  O   UNK N   1      19.447  15.300   6.960  0.00  0.00    -0.065 OA
HETATM    6  C   UNK N   1      20.779  15.411   5.121  0.00  0.00     0.355 C 
HETATM    7  C   UNK N   1      20.817  17.108   6.793  0.00  0.00     0.355 C 
ENDBRANCH   3   4
ENDBRANCH   2   3
ENDBRANCH   1   2
BRANCH   1   8
HETATM    8  C   UNK N   1      20.933  12.945  10.488  0.00  0.00     0.000 C 
BRANCH   8   9
HETATM    9  C   UNK N   1      22.028  11.907  10.468  0.00  0.00     0.000 C 
BRANCH   9  10
HETATM   10  C   UNK N   1      22.777  11.928  11.779  0.00  0.00     0.000 C 
BRANCH  10  11
HETATM   11  C   UNK N   1      24.246  12.098  11.475  0.00  0.00     0.000 C 
BRANCH  11  12
HETATM   12  C   UNK N   1      24.466  12.096   9.981  0.00  0.00    -0.000 C 
BRANCH  12  13
HETATM   13  C   UNK N   1      25.163  13.382   9.594  0.00  0.00    -0.005 C 
HETATM   14  C   UNK N   1      25.066  13.580   8.098  0.00  0.00     0.005 C 
ENDBRANCH  12  13
ENDBRANCH  11  12
ENDBRANCH  10  11
ENDBRANCH   9  10
ENDBRANCH   8   9
ENDBRANCH   1   8
TORSDOF 9
ENDMDL
