MODEL 1
REMARK VINA RESULT:      -7.9      0.000      0.000
REMARK  8 active torsions:
REMARK  status: ('A' for Active; 'I' for Inactive)
REMARK    1  A    between atoms: C_11  and  C_12 
REMARK    2  A    between atoms: C_13  and  C_19 
REMARK    3  A    between atoms: C_21  and  N_25 
REMARK    4  A    between atoms: N_25  and  C_26 
REMARK    5  A    between atoms: C_26  and  C_27 
REMARK    6  A    between atoms: C_27  and  O_28 
REMARK    7  A    between atoms: C_27  and  C_29 
REMARK    8  A    between atoms: C_29  and  O_30 
ROOT
HETATM    1  C   UNK N   1      26.508  25.462  -7.589  0.00  0.00     0.061 A 
HETATM    2  C   UNK N   1      26.424  24.425  -6.735  0.00  0.00     0.059 A 
HETATM    3  C   UNK N   1      25.493  23.461  -7.342  0.00  0.00     0.260 A 
HETATM    4  O   UNK N   1      25.168  22.385  -6.869  0.00  0.00    -0.267 OA
HETATM    5  N   UNK N   1      25.078  23.903  -8.540  0.00  0.00    -0.289 N 
HETATM    6  C   UNK N   1      25.662  25.098  -8.742  0.00  0.00     0.260 A 
HETATM    7  O   UNK N   1      25.470  25.779  -9.735  0.00  0.00    -0.267 OA
HETATM    8  H   UNK N   1      24.461  23.441  -9.153  0.00  0.00     0.172 HD
ENDROOT
BRANCH   2   9
HETATM    9  C   UNK N   1      27.139  24.242  -5.463  0.00  0.00    -0.017 A 
HETATM   10  C   UNK N   1      28.474  23.833  -5.461  0.00  0.00     0.041 A 
HETATM   11  C   UNK N   1      29.123  23.563  -4.255  0.00  0.00     0.028 A 
HETATM   12  C   UNK N   1      28.443  23.754  -3.040  0.00  0.00     0.029 A 
HETATM   13  C   UNK N   1      27.125  24.212  -3.035  0.00  0.00     0.003 A 
HETATM   14  C   UNK N   1      26.468  24.441  -4.244  0.00  0.00     0.012 A 
BRANCH  11  15
HETATM   15  N   UNK N   1      30.443  23.056  -4.278  0.00  0.00    -0.387 N 
HETATM   16  H   UNK N   1      30.880  22.891  -5.144  0.00  0.00     0.159 HD
BRANCH  15  17
HETATM   17  C   UNK N   1      31.161  22.778  -3.060  0.00  0.00     0.153 C 
BRANCH  17  18
HETATM   18  C   UNK N   1      32.207  21.711  -3.308  0.00  0.00     0.159 C 
BRANCH  18  19
HETATM   19  O   UNK N   1      32.628  21.175  -2.089  0.00  0.00    -0.392 OA
HETATM   20  H   UNK N   1      33.197  21.305  -1.314  0.00  0.00     0.210 HD
ENDBRANCH  18  19
BRANCH  18  21
HETATM   21  C   UNK N   1      31.589  20.615  -4.157  0.00  0.00     0.197 C 
BRANCH  21  22
HETATM   22  O   UNK N   1      32.368  19.460  -4.093  0.00  0.00    -0.398 OA
HETATM   23  H   UNK N   1      33.282  19.412  -4.417  0.00  0.00     0.209 HD
ENDBRANCH  21  22
ENDBRANCH  18  21
ENDBRANCH  17  18
ENDBRANCH  15  17
ENDBRANCH  11  15
ENDBRANCH   2   9
BRANCH   1  24
HETATM   24  C   UNK N   1      27.235  26.758  -7.434  0.00  0.00     0.009 A 
HETATM   25  C   UNK N   1      28.160  27.257  -8.350  0.00  0.00     0.104 A 
HETATM   26  N   UNK N   1      28.615  28.454  -7.912  0.00  0.00    -0.360 N 
HETATM   27  C   UNK N   1      29.597  29.282  -8.590  0.00  0.00     0.156 C 
HETATM   28  C   UNK N   1      27.985  28.736  -6.761  0.00  0.00     0.045 A 
HETATM   29  C   UNK N   1      28.129  29.875  -5.967  0.00  0.00     0.033 A 
HETATM   30  C   UNK N   1      27.117  27.729  -6.438  0.00  0.00     0.006 A 
HETATM   31  C   UNK N   1      27.340  29.974  -4.806  0.00  0.00     0.044 A 
HETATM   32  C   UNK N   1      26.423  28.953  -4.482  0.00  0.00     0.117 A 
HETATM   33  F   UNK N   1      25.663  29.053  -3.365  0.00  0.00    -0.206 F 
HETATM   34  C   UNK N   1      26.300  27.827  -5.311  0.00  0.00     0.057 A 
ENDBRANCH   1  24
TORSDOF 8
ENDMDL
MODEL 2
REMARK VINA RESULT:      -7.8     12.278     15.081
REMARK  8 active torsions:
REMARK  status: ('A' for Active; 'I' for Inactive)
REMARK    1  A    between atoms: C_11  and  C_12 
REMARK    2  A    between atoms: C_13  and  C_19 
REMARK    3  A    between atoms: C_21  and  N_25 
REMARK    4  A    between atoms: N_25  and  C_26 
REMARK    5  A    between atoms: C_26  and  C_27 
REMARK    6  A    between atoms: C_27  and  O_28 
REMARK    7  A    between atoms: C_27  and  C_29 
REMARK    8  A    between atoms: C_29  and  O_30 
ROOT
HETATM    1  C   UNK N   1      28.976  16.019   4.732  0.00  0.00     0.061 A 
HETATM    2  C   UNK N   1      30.223  15.560   4.512  0.00  0.00     0.059 A 
HETATM    3  C   UNK N   1      30.089  14.408   3.608  0.00  0.00     0.260 A 
HETATM    4  O   UNK N   1      31.003  13.731   3.170  0.00  0.00    -0.267 OA
HETATM    5  N   UNK N   1      28.801  14.225   3.273  0.00  0.00    -0.289 N 
HETATM    6  C   UNK N   1      28.090  15.169   3.915  0.00  0.00     0.260 A 
HETATM    7  O   UNK N   1      26.876  15.262   3.839  0.00  0.00    -0.267 OA
HETATM    8  H   UNK N   1      28.446  13.530   2.673  0.00  0.00     0.172 HD
ENDROOT
BRANCH   2   9
HETATM    9  C   UNK N   1      31.489  16.105   5.025  0.00  0.00    -0.017 A 
HETATM   10  C   UNK N   1      31.962  15.718   6.281  0.00  0.00     0.041 A 
HETATM   11  C   UNK N   1      33.110  16.310   6.810  0.00  0.00     0.028 A 
HETATM   12  C   UNK N   1      33.816  17.261   6.053  0.00  0.00     0.029 A 
HETATM   13  C   UNK N   1      33.376  17.614   4.778  0.00  0.00     0.003 A 
HETATM   14  C   UNK N   1      32.205  17.049   4.269  0.00  0.00     0.012 A 
BRANCH  11  15
HETATM   15  N   UNK N   1      33.517  15.977   8.122  0.00  0.00    -0.387 N 
HETATM   16  H   UNK N   1      33.390  15.057   8.447  0.00  0.00     0.159 HD
BRANCH  15  17
HETATM   17  C   UNK N   1      34.117  16.956   8.994  0.00  0.00     0.153 C 
BRANCH  17  18
HETATM   18  C   UNK N   1      34.951  16.265  10.053  0.00  0.00     0.159 C 
BRANCH  18  19
HETATM   19  O   UNK N   1      34.958  17.033  11.219  0.00  0.00    -0.392 OA
HETATM   20  H   UNK N   1      35.091  17.023  12.180  0.00  0.00     0.210 HD
ENDBRANCH  18  19
BRANCH  18  21
HETATM   21  C   UNK N   1      34.336  14.908  10.344  0.00  0.00     0.197 C 
BRANCH  21  22
HETATM   22  O   UNK N   1      33.147  15.062  11.057  0.00  0.00    -0.398 OA
HETATM   23  H   UNK N   1      32.341  15.445  10.677  0.00  0.00     0.209 HD
ENDBRANCH  21  22
ENDBRANCH  18  21
ENDBRANCH  17  18
ENDBRANCH  15  17
ENDBRANCH  11  15
ENDBRANCH   2   9
BRANCH   1  24
HETATM   24  C   UNK N   1      28.517  17.110   5.644  0.00  0.00     0.009 A 
HETATM   25  C   UNK N   1      28.659  17.088   7.031  0.00  0.00     0.104 A 
HETATM   26  N   UNK N   1      28.154  18.234   7.545  0.00  0.00    -0.360 N 
HETATM   27  C   UNK N   1      28.111  18.578   8.955  0.00  0.00     0.156 C 
HETATM   28  C   UNK N   1      27.724  18.988   6.522  0.00  0.00     0.045 A 
HETATM   29  C   UNK N   1      27.147  20.258   6.581  0.00  0.00     0.033 A 
HETATM   30  C   UNK N   1      27.942  18.344   5.335  0.00  0.00     0.006 A 
HETATM   31  C   UNK N   1      26.793  20.879   5.370  0.00  0.00     0.044 A 
HETATM   32  C   UNK N   1      27.041  20.233   4.141  0.00  0.00     0.117 A 
HETATM   33  F   UNK N   1      26.701  20.836   2.976  0.00  0.00    -0.206 F 
HETATM   34  C   UNK N   1      27.632  18.960   4.122  0.00  0.00     0.057 A 
ENDBRANCH   1  24
TORSDOF 8
ENDMDL
MODEL 3
REMARK VINA RESULT:      -7.7     11.767     14.681
REMARK  8 active torsions:
REMARK  status: ('A' for Active; 'I' for Inactive)
REMARK    1  A    between atoms: C_11  and  C_12 
REMARK    2  A    between atoms: C_13  and  C_19 
REMARK    3  A    between atoms: C_21  and  N_25 
REMARK    4  A    between atoms: N_25  and  C_26 
REMARK    5  A    between atoms: C_26  and  C_27 
REMARK    6  A    between atoms: C_27  and  O_28 
REMARK    7  A    between atoms: C_27  and  C_29 
REMARK    8  A    between atoms: C_29  and  O_30 
ROOT
HETATM    1  C   UNK N   1      22.216  18.139   3.748  0.00  0.00     0.061 A 
HETATM    2  C   UNK N   1      22.863  19.297   3.519  0.00  0.00     0.059 A 
HETATM    3  C   UNK N   1      21.865  20.233   2.981  0.00  0.00     0.260 A 
HETATM    4  O   UNK N   1      22.069  21.391   2.660  0.00  0.00    -0.267 OA
HETATM    5  N   UNK N   1      20.655  19.650   2.937  0.00  0.00    -0.289 N 
HETATM    6  C   UNK N   1      20.807  18.394   3.393  0.00  0.00     0.260 A 
HETATM    7  O   UNK N   1      19.893  17.590   3.457  0.00  0.00    -0.267 OA
HETATM    8  H   UNK N   1      19.817  20.065   2.627  0.00  0.00     0.172 HD
ENDROOT
BRANCH   2   9
HETATM    9  C   UNK N   1      24.276  19.608   3.784  0.00  0.00    -0.017 A 
HETATM   10  C   UNK N   1      24.812  19.409   5.058  0.00  0.00     0.041 A 
HETATM   11  C   UNK N   1      26.123  19.798   5.336  0.00  0.00     0.028 A 
HETATM   12  C   UNK N   1      26.919  20.344   4.315  0.00  0.00     0.029 A 
HETATM   13  C   UNK N   1      26.405  20.499   3.028  0.00  0.00     0.003 A 
HETATM   14  C   UNK N   1      25.081  20.146   2.765  0.00  0.00     0.012 A 
BRANCH  11  15
HETATM   15  N   UNK N   1      26.615  19.677   6.656  0.00  0.00    -0.387 N 
HETATM   16  H   UNK N   1      25.998  19.797   7.413  0.00  0.00     0.159 HD
BRANCH  15  17
HETATM   17  C   UNK N   1      28.002  19.382   6.917  0.00  0.00     0.153 C 
BRANCH  17  18
HETATM   18  C   UNK N   1      28.193  17.888   7.071  0.00  0.00     0.159 C 
BRANCH  18  19
HETATM   19  O   UNK N   1      29.362  17.495   6.417  0.00  0.00    -0.392 OA
HETATM   20  H   UNK N   1      29.935  17.644   5.647  0.00  0.00     0.210 HD
ENDBRANCH  18  19
BRANCH  18  21
HETATM   21  C   UNK N   1      28.308  17.565   8.550  0.00  0.00     0.197 C 
BRANCH  21  22
HETATM   22  O   UNK N   1      27.413  18.345   9.283  0.00  0.00    -0.398 OA
HETATM   23  H   UNK N   1      26.467  18.146   9.358  0.00  0.00     0.209 HD
ENDBRANCH  21  22
ENDBRANCH  18  21
ENDBRANCH  17  18
ENDBRANCH  15  17
ENDBRANCH  11  15
ENDBRANCH   2   9
BRANCH   1  24
HETATM   24  C   UNK N   1      22.761  16.825   4.204  0.00  0.00     0.009 A 
HETATM   25  C   UNK N   1      23.682  16.062   3.486  0.00  0.00     0.104 A 
HETATM   26  N   UNK N   1      23.975  14.944   4.190  0.00  0.00    -0.360 N 
HETATM   27  C   UNK N   1      24.888  13.897   3.768  0.00  0.00     0.156 C 
HETATM   28  C   UNK N   1      23.286  14.992   5.341  0.00  0.00     0.045 A 
HETATM   29  C   UNK N   1      23.295  14.059   6.379  0.00  0.00     0.033 A 
HETATM   30  C   UNK N   1      22.540  16.137   5.399  0.00  0.00     0.006 A 
HETATM   31  C   UNK N   1      22.510  14.329   7.515  0.00  0.00     0.044 A 
HETATM   32  C   UNK N   1      21.761  15.521   7.594  0.00  0.00     0.117 A 
HETATM   33  F   UNK N   1      21.008  15.778   8.691  0.00  0.00    -0.206 F 
HETATM   34  C   UNK N   1      21.785  16.439   6.533  0.00  0.00     0.057 A 
ENDBRANCH   1  24
TORSDOF 8
ENDMDL
MODEL 4
REMARK VINA RESULT:      -7.7     12.380     15.189
REMARK  8 active torsions:
REMARK  status: ('A' for Active; 'I' for Inactive)
REMARK    1  A    between atoms: C_11  and  C_12 
REMARK    2  A    between atoms: C_13  and  C_19 
REMARK    3  A    between atoms: C_21  and  N_25 
REMARK    4  A    between atoms: N_25  and  C_26 
REMARK    5  A    between atoms: C_26  and  C_27 
REMARK    6  A    between atoms: C_27  and  O_28 
REMARK    7  A    between atoms: C_27  and  C_29 
REMARK    8  A    between atoms: C_29  and  O_30 
ROOT
HETATM    1  C   UNK N   1      23.405  19.243   3.630  0.00  0.00     0.061 A 
HETATM    2  C   UNK N   1      22.100  18.969   3.818  0.00  0.00     0.059 A 
HETATM    3  C   UNK N   1      21.348  19.992   3.076  0.00  0.00     0.260 A 
HETATM    4  O   UNK N   1      20.134  20.071   2.996  0.00  0.00    -0.267 OA
HETATM    5  N   UNK N   1      22.192  20.817   2.434  0.00  0.00    -0.289 N 
HETATM    6  C   UNK N   1      23.439  20.409   2.726  0.00  0.00     0.260 A 
HETATM    7  O   UNK N   1      24.441  20.968   2.315  0.00  0.00    -0.267 OA
HETATM    8  H   UNK N   1      21.943  21.577   1.860  0.00  0.00     0.172 HD
ENDROOT
BRANCH   2   9
HETATM    9  C   UNK N   1      21.512  17.852   4.574  0.00  0.00    -0.017 A 
HETATM   10  C   UNK N   1      21.110  18.037   5.899  0.00  0.00     0.041 A 
HETATM   11  C   UNK N   1      20.646  16.954   6.647  0.00  0.00     0.028 A 
HETATM   12  C   UNK N   1      20.537  15.688   6.048  0.00  0.00     0.029 A 
HETATM   13  C   UNK N   1      20.890  15.509   4.710  0.00  0.00     0.003 A 
HETATM   14  C   UNK N   1      21.391  16.586   3.978  0.00  0.00     0.012 A 
BRANCH  11  15
HETATM   15  N   UNK N   1      20.336  17.141   8.014  0.00  0.00    -0.387 N 
HETATM   16  H   UNK N   1      20.800  17.845   8.522  0.00  0.00     0.159 HD
BRANCH  15  17
HETATM   17  C   UNK N   1      19.354  16.322   8.680  0.00  0.00     0.153 C 
BRANCH  17  18
HETATM   18  C   UNK N   1      18.355  17.199   9.406  0.00  0.00     0.159 C 
BRANCH  18  19
HETATM   19  O   UNK N   1      18.847  18.504   9.485  0.00  0.00    -0.392 OA
HETATM   20  H   UNK N   1      19.550  19.071   9.839  0.00  0.00     0.210 HD
ENDBRANCH  18  19
BRANCH  18  21
HETATM   21  C   UNK N   1      17.052  17.196   8.627  0.00  0.00     0.197 C 
BRANCH  21  22
HETATM   22  O   UNK N   1      17.210  16.499   7.429  0.00  0.00    -0.398 OA
HETATM   23  H   UNK N   1      16.474  16.280   6.836  0.00  0.00     0.209 HD
ENDBRANCH  21  22
ENDBRANCH  18  21
ENDBRANCH  17  18
ENDBRANCH  15  17
ENDBRANCH  11  15
ENDBRANCH   2   9
BRANCH   1  24
HETATM   24  C   UNK N   1      24.605  18.585   4.228  0.00  0.00     0.009 A 
HETATM   25  C   UNK N   1      24.913  17.232   4.088  0.00  0.00     0.104 A 
HETATM   26  N   UNK N   1      26.071  16.972   4.738  0.00  0.00    -0.360 N 
HETATM   27  C   UNK N   1      26.714  15.674   4.828  0.00  0.00     0.156 C 
HETATM   28  C   UNK N   1      26.515  18.126   5.261  0.00  0.00     0.045 A 
HETATM   29  C   UNK N   1      27.682  18.334   5.999  0.00  0.00     0.033 A 
HETATM   30  C   UNK N   1      25.654  19.145   4.959  0.00  0.00     0.006 A 
HETATM   31  C   UNK N   1      27.966  19.644   6.428  0.00  0.00     0.044 A 
HETATM   32  C   UNK N   1      27.097  20.704   6.095  0.00  0.00     0.117 A 
HETATM   33  F   UNK N   1      27.376  21.964   6.508  0.00  0.00    -0.206 F 
HETATM   34  C   UNK N   1      25.938  20.456   5.344  0.00  0.00     0.057 A 
ENDBRANCH   1  24
TORSDOF 8
ENDMDL
MODEL 5
REMARK VINA RESULT:      -7.5     12.055     15.297
REMARK  8 active torsions:
REMARK  status: ('A' for Active; 'I' for Inactive)
REMARK    1  A    between atoms: C_11  and  C_12 
REMARK    2  A    between atoms: C_13  and  C_19 
REMARK    3  A    between atoms: C_21  and  N_25 
REMARK    4  A    between atoms: N_25  and  C_26 
REMARK    5  A    between atoms: C_26  and  C_27 
REMARK    6  A    between atoms: C_27  and  O_28 
REMARK    7  A    between atoms: C_27  and  C_29 
REMARK    8  A    between atoms: C_29  and  O_30 
ROOT
HETATM    1  C   UNK N   1      28.527  15.687   4.750  0.00  0.00     0.061 A 
HETATM    2  C   UNK N   1      29.729  15.159   5.055  0.00  0.00     0.059 A 
HETATM    3  C   UNK N   1      29.599  13.704   4.888  0.00  0.00     0.260 A 
HETATM    4  O   UNK N   1      30.482  12.882   5.063  0.00  0.00    -0.267 OA
HETATM    5  N   UNK N   1      28.366  13.392   4.455  0.00  0.00    -0.289 N 
HETATM    6  C   UNK N   1      27.683  14.545   4.349  0.00  0.00     0.260 A 
HETATM    7  O   UNK N   1      26.516  14.604   4.000  0.00  0.00    -0.267 OA
HETATM    8  H   UNK N   1      28.028  12.489   4.256  0.00  0.00     0.172 HD
ENDROOT
BRANCH   2   9
HETATM    9  C   UNK N   1      30.956  15.873   5.440  0.00  0.00    -0.017 A 
HETATM   10  C   UNK N   1      31.428  15.799   6.752  0.00  0.00     0.041 A 
HETATM   11  C   UNK N   1      32.535  16.555   7.142  0.00  0.00     0.028 A 
HETATM   12  C   UNK N   1      33.203  17.352   6.197  0.00  0.00     0.029 A 
HETATM   13  C   UNK N   1      32.765  17.390   4.873  0.00  0.00     0.003 A 
HETATM   14  C   UNK N   1      31.634  16.664   4.497  0.00  0.00     0.012 A 
BRANCH  11  15
HETATM   15  N   UNK N   1      32.938  16.541   8.497  0.00  0.00    -0.387 N 
HETATM   16  H   UNK N   1      32.419  16.019   9.149  0.00  0.00     0.159 HD
BRANCH  15  17
HETATM   17  C   UNK N   1      34.096  17.276   8.943  0.00  0.00     0.153 C 
BRANCH  17  18
HETATM   18  C   UNK N   1      34.936  16.411   9.859  0.00  0.00     0.159 C 
BRANCH  18  19
HETATM   19  O   UNK N   1      35.073  17.037  11.100  0.00  0.00    -0.392 OA
HETATM   20  H   UNK N   1      34.779  17.775  11.658  0.00  0.00     0.210 HD
ENDBRANCH  18  19
BRANCH  18  21
HETATM   21  C   UNK N   1      34.238  15.076  10.041  0.00  0.00     0.197 C 
BRANCH  21  22
HETATM   22  O   UNK N   1      33.429  15.107  11.176  0.00  0.00    -0.398 OA
HETATM   23  H   UNK N   1      32.678  15.711  11.282  0.00  0.00     0.209 HD
ENDBRANCH  21  22
ENDBRANCH  18  21
ENDBRANCH  17  18
ENDBRANCH  15  17
ENDBRANCH  11  15
ENDBRANCH   2   9
BRANCH   1  24
HETATM   24  C   UNK N   1      28.068  17.105   4.840  0.00  0.00     0.009 A 
HETATM   25  C   UNK N   1      27.499  17.816   3.783  0.00  0.00     0.104 A 
HETATM   26  N   UNK N   1      27.183  19.062   4.209  0.00  0.00    -0.360 N 
HETATM   27  C   UNK N   1      26.580  20.103   3.395  0.00  0.00     0.156 C 
HETATM   28  C   UNK N   1      27.512  19.148   5.507  0.00  0.00     0.045 A 
HETATM   29  C   UNK N   1      27.347  20.243   6.358  0.00  0.00     0.033 A 
HETATM   30  C   UNK N   1      28.043  17.964   5.940  0.00  0.00     0.006 A 
HETATM   31  C   UNK N   1      27.740  20.099   7.701  0.00  0.00     0.044 A 
HETATM   32  C   UNK N   1      28.262  18.872   8.161  0.00  0.00     0.117 A 
HETATM   33  F   UNK N   1      28.636  18.737   9.456  0.00  0.00    -0.206 F 
HETATM   34  C   UNK N   1      28.404  17.791   7.277  0.00  0.00     0.057 A 
ENDBRANCH   1  24
TORSDOF 8
ENDMDL
MODEL 6
REMARK VINA RESULT:      -7.5     23.430     28.446
REMARK  8 active torsions:
REMARK  status: ('A' for Active; 'I' for Inactive)
REMARK    1  A    between atoms: C_11  and  C_12 
REMARK    2  A    between atoms: C_13  and  C_19 
REMARK    3  A    between atoms: C_21  and  N_25 
REMARK    4  A    between atoms: N_25  and  C_26 
REMARK    5  A    between atoms: C_26  and  C_27 
REMARK    6  A    between atoms: C_27  and  O_28 
REMARK    7  A    between atoms: C_27  and  C_29 
REMARK    8  A    between atoms: C_29  and  O_30 
ROOT
HETATM    1  C   UNK N   1      35.395  10.953  18.573  0.00  0.00     0.061 A 
HETATM    2  C   UNK N   1      35.213  11.935  17.670  0.00  0.00     0.059 A 
HETATM    3  C   UNK N   1      35.240  13.200  18.420  0.00  0.00     0.260 A 
HETATM    4  O   UNK N   1      35.118  14.317  17.945  0.00  0.00    -0.267 OA
HETATM    5  N   UNK N   1      35.476  12.966  19.721  0.00  0.00    -0.289 N 
HETATM    6  C   UNK N   1      35.585  11.634  19.868  0.00  0.00     0.260 A 
HETATM    7  O   UNK N   1      35.777  11.091  20.942  0.00  0.00    -0.267 OA
HETATM    8  H   UNK N   1      35.553  13.643  20.433  0.00  0.00     0.172 HD
ENDROOT
BRANCH   2   9
HETATM    9  C   UNK N   1      35.057  11.805  16.213  0.00  0.00    -0.017 A 
HETATM   10  C   UNK N   1      35.802  12.614  15.353  0.00  0.00     0.041 A 
HETATM   11  C   UNK N   1      35.582  12.561  13.975  0.00  0.00     0.028 A 
HETATM   12  C   UNK N   1      34.644  11.654  13.454  0.00  0.00     0.029 A 
HETATM   13  C   UNK N   1      33.933  10.808  14.305  0.00  0.00     0.003 A 
HETATM   14  C   UNK N   1      34.127  10.893  15.684  0.00  0.00     0.012 A 
BRANCH  11  15
HETATM   15  N   UNK N   1      36.277  13.456  13.130  0.00  0.00    -0.387 N 
HETATM   16  H   UNK N   1      37.173  13.215  12.805  0.00  0.00     0.159 HD
BRANCH  15  17
HETATM   17  C   UNK N   1      35.698  14.715  12.732  0.00  0.00     0.153 C 
BRANCH  17  18
HETATM   18  C   UNK N   1      35.118  14.601  11.338  0.00  0.00     0.159 C 
BRANCH  18  19
HETATM   19  O   UNK N   1      33.747  14.865  11.378  0.00  0.00    -0.392 OA
HETATM   20  H   UNK N   1      32.910  14.674  11.832  0.00  0.00     0.210 HD
ENDBRANCH  18  19
BRANCH  18  21
HETATM   21  C   UNK N   1      35.802  15.619  10.444  0.00  0.00     0.197 C 
BRANCH  21  22
HETATM   22  O   UNK N   1      37.067  15.925  10.945  0.00  0.00    -0.398 OA
HETATM   23  H   UNK N   1      37.598  15.308  11.472  0.00  0.00     0.209 HD
ENDBRANCH  21  22
ENDBRANCH  18  21
ENDBRANCH  17  18
ENDBRANCH  15  17
ENDBRANCH  11  15
ENDBRANCH   2   9
BRANCH   1  24
HETATM   24  C   UNK N   1      35.363   9.472  18.378  0.00  0.00     0.009 A 
HETATM   25  C   UNK N   1      36.398   8.729  17.813  0.00  0.00     0.104 A 
HETATM   26  N   UNK N   1      36.050   7.422  17.802  0.00  0.00    -0.360 N 
HETATM   27  C   UNK N   1      36.863   6.337  17.283  0.00  0.00     0.156 C 
HETATM   28  C   UNK N   1      34.837   7.316  18.366  0.00  0.00     0.045 A 
HETATM   29  C   UNK N   1      34.095   6.153  18.582  0.00  0.00     0.033 A 
HETATM   30  C   UNK N   1      34.384   8.548  18.750  0.00  0.00     0.006 A 
HETATM   31  C   UNK N   1      32.848   6.275  19.222  0.00  0.00     0.044 A 
HETATM   32  C   UNK N   1      32.388   7.539  19.646  0.00  0.00     0.117 A 
HETATM   33  F   UNK N   1      31.188   7.652  20.265  0.00  0.00    -0.206 F 
HETATM   34  C   UNK N   1      33.167   8.684  19.419  0.00  0.00     0.057 A 
ENDBRANCH   1  24
TORSDOF 8
ENDMDL
MODEL 7
REMARK VINA RESULT:      -7.5     12.089     14.951
REMARK  8 active torsions:
REMARK  status: ('A' for Active; 'I' for Inactive)
REMARK    1  A    between atoms: C_11  and  C_12 
REMARK    2  A    between atoms: C_13  and  C_19 
REMARK    3  A    between atoms: C_21  and  N_25 
REMARK    4  A    between atoms: N_25  and  C_26 
REMARK    5  A    between atoms: C_26  and  C_27 
REMARK    6  A    between atoms: C_27  and  O_28 
REMARK    7  A    between atoms: C_27  and  C_29 
REMARK    8  A    between atoms: C_29  and  O_30 
ROOT
HETATM    1  C   UNK N   1      22.662  18.632   4.051  0.00  0.00     0.061 A 
HETATM    2  C   UNK N   1      23.867  19.148   3.740  0.00  0.00     0.059 A 
HETATM    3  C   UNK N   1      23.611  20.321   2.891  0.00  0.00     0.260 A 
HETATM    4  O   UNK N   1      24.457  21.060   2.417  0.00  0.00    -0.267 OA
HETATM    5  N   UNK N   1      22.289  20.512   2.745  0.00  0.00    -0.289 N 
HETATM    6  C   UNK N   1      21.673  19.531   3.427  0.00  0.00     0.260 A 
HETATM    7  O   UNK N   1      20.461  19.406   3.474  0.00  0.00    -0.267 OA
HETATM    8  H   UNK N   1      21.856  21.234   2.234  0.00  0.00     0.172 HD
ENDROOT
BRANCH   2   9
HETATM    9  C   UNK N   1      25.190  18.680   4.180  0.00  0.00    -0.017 A 
HETATM   10  C   UNK N   1      25.724  19.125   5.392  0.00  0.00     0.041 A 
HETATM   11  C   UNK N   1      27.019  18.761   5.762  0.00  0.00     0.028 A 
HETATM   12  C   UNK N   1      27.765  17.903   4.936  0.00  0.00     0.029 A 
HETATM   13  C   UNK N   1      27.218  17.416   3.749  0.00  0.00     0.003 A 
HETATM   14  C   UNK N   1      25.937  17.815   3.364  0.00  0.00     0.012 A 
BRANCH  11  15
HETATM   15  N   UNK N   1      27.578  19.300   6.944  0.00  0.00    -0.387 N 
HETATM   16  H   UNK N   1      27.228  20.149   7.298  0.00  0.00     0.159 HD
BRANCH  15  17
HETATM   17  C   UNK N   1      28.647  18.631   7.642  0.00  0.00     0.153 C 
BRANCH  17  18
HETATM   18  C   UNK N   1      28.252  18.387   9.084  0.00  0.00     0.159 C 
BRANCH  18  19
HETATM   19  O   UNK N   1      27.362  17.313   9.151  0.00  0.00    -0.392 OA
HETATM   20  H   UNK N   1      27.086  16.537   9.664  0.00  0.00     0.210 HD
ENDBRANCH  18  19
BRANCH  18  21
HETATM   21  C   UNK N   1      29.502  18.060   9.879  0.00  0.00     0.197 C 
BRANCH  21  22
HETATM   22  O   UNK N   1      30.630  18.564   9.233  0.00  0.00    -0.398 OA
HETATM   23  H   UNK N   1      30.979  19.457   9.383  0.00  0.00     0.209 HD
ENDBRANCH  21  22
ENDBRANCH  18  21
ENDBRANCH  17  18
ENDBRANCH  15  17
ENDBRANCH  11  15
ENDBRANCH   2   9
BRANCH   1  24
HETATM   24  C   UNK N   1      22.334  17.388   4.809  0.00  0.00     0.009 A 
HETATM   25  C   UNK N   1      22.779  16.113   4.459  0.00  0.00     0.104 A 
HETATM   26  N   UNK N   1      22.314  15.219   5.364  0.00  0.00    -0.360 N 
HETATM   27  C   UNK N   1      22.557  13.788   5.335  0.00  0.00     0.156 C 
HETATM   28  C   UNK N   1      21.611  15.896   6.285  0.00  0.00     0.045 A 
HETATM   29  C   UNK N   1      20.966  15.383   7.412  0.00  0.00     0.033 A 
HETATM   30  C   UNK N   1      21.611  17.232   5.993  0.00  0.00     0.006 A 
HETATM   31  C   UNK N   1      20.307  16.288   8.264  0.00  0.00     0.044 A 
HETATM   32  C   UNK N   1      20.327  17.669   7.984  0.00  0.00     0.117 A 
HETATM   33  F   UNK N   1      19.694  18.538   8.809  0.00  0.00    -0.206 F 
HETATM   34  C   UNK N   1      20.995  18.148   6.846  0.00  0.00     0.057 A 
ENDBRANCH   1  24
TORSDOF 8
ENDMDL
MODEL 8
REMARK VINA RESULT:      -7.5     11.590     14.954
REMARK  8 active torsions:
REMARK  status: ('A' for Active; 'I' for Inactive)
REMARK    1  A    between atoms: C_11  and  C_12 
REMARK    2  A    between atoms: C_13  and  C_19 
REMARK    3  A    between atoms: C_21  and  N_25 
REMARK    4  A    between atoms: N_25  and  C_26 
REMARK    5  A    between atoms: C_26  and  C_27 
REMARK    6  A    between atoms: C_27  and  O_28 
REMARK    7  A    between atoms: C_27  and  C_29 
REMARK    8  A    between atoms: C_29  and  O_30 
ROOT
HETATM    1  C   UNK N   1      27.666  15.921   4.736  0.00  0.00     0.061 A 
HETATM    2  C   UNK N   1      26.949  16.564   3.795  0.00  0.00     0.059 A 
HETATM    3  C   UNK N   1      26.653  15.574   2.749  0.00  0.00     0.260 A 
HETATM    4  O   UNK N   1      26.010  15.776   1.732  0.00  0.00    -0.267 OA
HETATM    5  N   UNK N   1      27.147  14.372   3.089  0.00  0.00    -0.289 N 
HETATM    6  C   UNK N   1      27.760  14.522   4.278  0.00  0.00     0.260 A 
HETATM    7  O   UNK N   1      28.335  13.615   4.854  0.00  0.00    -0.267 OA
HETATM    8  H   UNK N   1      27.075  13.541   2.567  0.00  0.00     0.172 HD
ENDROOT
BRANCH   2   9
HETATM    9  C   UNK N   1      26.499  17.964   3.803  0.00  0.00    -0.017 A 
HETATM   10  C   UNK N   1      25.146  18.267   3.633  0.00  0.00     0.041 A 
HETATM   11  C   UNK N   1      24.733  19.597   3.541  0.00  0.00     0.028 A 
HETATM   12  C   UNK N   1      25.676  20.631   3.670  0.00  0.00     0.029 A 
HETATM   13  C   UNK N   1      27.021  20.334   3.890  0.00  0.00     0.003 A 
HETATM   14  C   UNK N   1      27.436  19.003   3.942  0.00  0.00     0.012 A 
BRANCH  11  15
HETATM   15  N   UNK N   1      23.374  19.881   3.271  0.00  0.00    -0.387 N 
HETATM   16  H   UNK N   1      23.138  20.728   2.829  0.00  0.00     0.159 HD
BRANCH  15  17
HETATM   17  C   UNK N   1      22.328  18.957   3.631  0.00  0.00     0.153 C 
BRANCH  17  18
HETATM   18  C   UNK N   1      20.987  19.487   3.167  0.00  0.00     0.159 C 
BRANCH  18  19
HETATM   19  O   UNK N   1      20.488  20.390   4.108  0.00  0.00    -0.392 OA
HETATM   20  H   UNK N   1      20.378  20.576   5.054  0.00  0.00     0.210 HD
ENDBRANCH  18  19
BRANCH  18  21
HETATM   21  C   UNK N   1      21.180  20.195   1.839  0.00  0.00     0.197 C 
BRANCH  21  22
HETATM   22  O   UNK N   1      21.111  21.577   2.016  0.00  0.00    -0.398 OA
HETATM   23  H   UNK N   1      20.496  22.149   1.531  0.00  0.00     0.209 HD
ENDBRANCH  21  22
ENDBRANCH  18  21
ENDBRANCH  17  18
ENDBRANCH  15  17
ENDBRANCH  11  15
ENDBRANCH   2   9
BRANCH   1  24
HETATM   24  C   UNK N   1      28.310  16.464   5.970  0.00  0.00     0.009 A 
HETATM   25  C   UNK N   1      27.627  16.760   7.149  0.00  0.00     0.104 A 
HETATM   26  N   UNK N   1      28.509  17.216   8.068  0.00  0.00    -0.360 N 
HETATM   27  C   UNK N   1      28.178  17.636   9.419  0.00  0.00     0.156 C 
HETATM   28  C   UNK N   1      29.730  17.193   7.512  0.00  0.00     0.045 A 
HETATM   29  C   UNK N   1      30.943  17.560   8.100  0.00  0.00     0.033 A 
HETATM   30  C   UNK N   1      29.657  16.723   6.230  0.00  0.00     0.006 A 
HETATM   31  C   UNK N   1      32.114  17.426   7.333  0.00  0.00     0.044 A 
HETATM   32  C   UNK N   1      32.050  16.915   6.020  0.00  0.00     0.117 A 
HETATM   33  F   UNK N   1      33.181  16.786   5.286  0.00  0.00    -0.206 F 
HETATM   34  C   UNK N   1      30.813  16.548   5.467  0.00  0.00     0.057 A 
ENDBRANCH   1  24
TORSDOF 8
ENDMDL
MODEL 9
REMARK VINA RESULT:      -7.4     14.914     18.293
REMARK  8 active torsions:
REMARK  status: ('A' for Active; 'I' for Inactive)
REMARK    1  A    between atoms: C_11  and  C_12 
REMARK    2  A    between atoms: C_13  and  C_19 
REMARK    3  A    between atoms: C_21  and  N_25 
REMARK    4  A    between atoms: N_25  and  C_26 
REMARK    5  A    between atoms: C_26  and  C_27 
REMARK    6  A    between atoms: C_27  and  O_28 
REMARK    7  A    between atoms: C_27  and  C_29 
REMARK    8  A    between atoms: C_29  and  O_30 
ROOT
HETATM    1  C   UNK N   1      20.665  15.233   7.823  0.00  0.00     0.061 A 
HETATM    2  C   UNK N   1      21.035  16.453   7.389  0.00  0.00     0.059 A 
HETATM    3  C   UNK N   1      20.281  17.427   8.193  0.00  0.00     0.260 A 
HETATM    4  O   UNK N   1      20.354  18.640   8.102  0.00  0.00    -0.267 OA
HETATM    5  N   UNK N   1      19.522  16.793   9.103  0.00  0.00    -0.289 N 
HETATM    6  C   UNK N   1      19.720  15.474   8.929  0.00  0.00     0.260 A 
HETATM    7  O   UNK N   1      19.153  14.619   9.588  0.00  0.00    -0.267 OA
HETATM    8  H   UNK N   1      18.932  17.215   9.769  0.00  0.00     0.172 HD
ENDROOT
BRANCH   2   9
HETATM    9  C   UNK N   1      22.024  16.780   6.351  0.00  0.00    -0.017 A 
HETATM   10  C   UNK N   1      21.793  17.841   5.472  0.00  0.00     0.041 A 
HETATM   11  C   UNK N   1      22.682  18.089   4.425  0.00  0.00     0.028 A 
HETATM   12  C   UNK N   1      23.837  17.299   4.289  0.00  0.00     0.029 A 
HETATM   13  C   UNK N   1      24.098  16.271   5.195  0.00  0.00     0.003 A 
HETATM   14  C   UNK N   1      23.186  16.002   6.216  0.00  0.00     0.012 A 
BRANCH  11  15
HETATM   15  N   UNK N   1      22.380  19.104   3.487  0.00  0.00    -0.387 N 
HETATM   16  H   UNK N   1      23.070  19.388   2.846  0.00  0.00     0.159 HD
BRANCH  15  17
HETATM   17  C   UNK N   1      21.083  19.731   3.451  0.00  0.00     0.153 C 
BRANCH  17  18
HETATM   18  C   UNK N   1      20.431  19.495   2.105  0.00  0.00     0.159 C 
BRANCH  18  19
HETATM   19  O   UNK N   1      19.057  19.316   2.274  0.00  0.00    -0.392 OA
HETATM   20  H   UNK N   1      18.176  19.516   1.918  0.00  0.00     0.210 HD
ENDBRANCH  18  19
BRANCH  18  21
HETATM   21  C   UNK N   1      20.679  20.709   1.228  0.00  0.00     0.197 C 
BRANCH  21  22
HETATM   22  O   UNK N   1      21.256  21.734   1.977  0.00  0.00    -0.398 OA
HETATM   23  H   UNK N   1      21.833  22.415   1.598  0.00  0.00     0.209 HD
ENDBRANCH  21  22
ENDBRANCH  18  21
ENDBRANCH  17  18
ENDBRANCH  15  17
ENDBRANCH  11  15
ENDBRANCH   2   9
BRANCH   1  24
HETATM   24  C   UNK N   1      21.046  13.887   7.297  0.00  0.00     0.009 A 
HETATM   25  C   UNK N   1      20.507  13.310   6.148  0.00  0.00     0.104 A 
HETATM   26  N   UNK N   1      21.082  12.100   5.949  0.00  0.00    -0.360 N 
HETATM   27  C   UNK N   1      20.776  11.190   4.860  0.00  0.00     0.156 C 
HETATM   28  C   UNK N   1      21.984  11.911   6.924  0.00  0.00     0.045 A 
HETATM   29  C   UNK N   1      22.825  10.810   7.106  0.00  0.00     0.033 A 
HETATM   30  C   UNK N   1      22.008  12.990   7.765  0.00  0.00     0.006 A 
HETATM   31  C   UNK N   1      23.721  10.837   8.191  0.00  0.00     0.044 A 
HETATM   32  C   UNK N   1      23.770  11.959   9.044  0.00  0.00     0.117 A 
HETATM   33  F   UNK N   1      24.636  11.982  10.085  0.00  0.00    -0.206 F 
HETATM   34  C   UNK N   1      22.915  13.050   8.823  0.00  0.00     0.057 A 
ENDBRANCH   1  24
TORSDOF 8
ENDMDL
