MODEL 1
REMARK VINA RESULT:      -5.6      0.000      0.000
REMARK  5 active torsions:
REMARK  status: ('A' for Active; 'I' for Inactive)
REMARK    1  A    between atoms: C_1  and  C_3 
REMARK    2  A    between atoms: C_1  and  O_13 
REMARK    3  A    between atoms: C_4  and  C_5 
REMARK    4  A    between atoms: C_7  and  O_12 
REMARK    5  A    between atoms: C_8  and  O_11 
ROOT
HETATM    1  C   UNK N   1      30.882  17.504   8.182  0.00  0.00    -0.033 A 
HETATM    2  C   UNK N   1      29.824  17.868   9.021  0.00  0.00     0.050 A 
HETATM    3  C   UNK N   1      28.508  17.839   8.544  0.00  0.00     0.099 A 
HETATM    4  C   UNK N   1      28.251  17.444   7.222  0.00  0.00     0.098 A 
HETATM    5  C   UNK N   1      29.306  17.081   6.385  0.00  0.00     0.040 A 
HETATM    6  C   UNK N   1      30.616  17.110   6.861  0.00  0.00     0.014 A 
ENDROOT
BRANCH   1   7
HETATM    7  C   UNK N   1      32.262  17.536   8.690  0.00  0.00     0.018 C 
HETATM    8  C   UNK N   1      33.213  18.208   8.035  0.00  0.00     0.082 C 
BRANCH   8   9
HETATM    9  C   UNK N   1      34.600  18.266   8.507  0.00  0.00     0.165 C 
HETATM   10  O   UNK N   1      35.364  19.083   8.020  0.00  0.00    -0.647 OA
BRANCH   9  11
HETATM   11  O   UNK N   1      35.036  17.431   9.468  0.00  0.00    -0.773 OA
HETATM   12  H   UNK N   1      35.885  17.039   9.400  0.00  0.00     0.167 HD
ENDBRANCH   9  11
ENDBRANCH   8   9
ENDBRANCH   1   7
BRANCH   3  13
HETATM   13  O   UNK N   1      27.497  18.190   9.356  0.00  0.00    -0.358 OA
HETATM   14  H   UNK N   1      27.638  18.253  10.279  0.00  0.00     0.217 HD
ENDBRANCH   3  13
BRANCH   4  15
HETATM   15  O   UNK N   1      26.991  17.413   6.754  0.00  0.00    -0.358 OA
HETATM   16  H   UNK N   1      26.292  17.130   7.310  0.00  0.00     0.217 HD
ENDBRANCH   4  15
TORSDOF 5
ENDMDL
MODEL 2
REMARK VINA RESULT:      -5.5     10.330     12.088
REMARK  5 active torsions:
REMARK  status: ('A' for Active; 'I' for Inactive)
REMARK    1  A    between atoms: C_1  and  C_3 
REMARK    2  A    between atoms: C_1  and  O_13 
REMARK    3  A    between atoms: C_4  and  C_5 
REMARK    4  A    between atoms: C_7  and  O_12 
REMARK    5  A    between atoms: C_8  and  O_11 
ROOT
HETATM    1  C   UNK N   1      35.353  12.701  17.174  0.00  0.00    -0.033 A 
HETATM    2  C   UNK N   1      35.048  13.421  18.332  0.00  0.00     0.050 A 
HETATM    3  C   UNK N   1      35.104  12.795  19.584  0.00  0.00     0.099 A 
HETATM    4  C   UNK N   1      35.466  11.442  19.674  0.00  0.00     0.098 A 
HETATM    5  C   UNK N   1      35.771  10.723  18.518  0.00  0.00     0.040 A 
HETATM    6  C   UNK N   1      35.715  11.348  17.273  0.00  0.00     0.014 A 
ENDROOT
BRANCH   1   7
HETATM    7  C   UNK N   1      35.293  13.366  15.863  0.00  0.00     0.018 C 
HETATM    8  C   UNK N   1      35.932  12.852  14.808  0.00  0.00     0.082 C 
BRANCH   8   9
HETATM    9  C   UNK N   1      35.898  13.483  13.486  0.00  0.00     0.165 C 
HETATM   10  O   UNK N   1      34.822  13.714  12.961  0.00  0.00    -0.647 OA
BRANCH   9  11
HETATM   11  O   UNK N   1      37.038  13.807  12.847  0.00  0.00    -0.773 OA
HETATM   12  H   UNK N   1      37.027  14.449  12.165  0.00  0.00     0.167 HD
ENDBRANCH   9  11
ENDBRANCH   8   9
ENDBRANCH   1   7
BRANCH   3  13
HETATM   13  O   UNK N   1      34.809  13.493  20.693  0.00  0.00    -0.358 OA
HETATM   14  H   UNK N   1      33.979  13.919  20.771  0.00  0.00     0.217 HD
ENDBRANCH   3  13
BRANCH   4  15
HETATM   15  O   UNK N   1      35.522  10.831  20.869  0.00  0.00    -0.358 OA
HETATM   16  H   UNK N   1      35.746  11.321  21.636  0.00  0.00     0.217 HD
ENDBRANCH   4  15
TORSDOF 5
ENDMDL
MODEL 3
REMARK VINA RESULT:      -5.4      9.265     11.205
REMARK  5 active torsions:
REMARK  status: ('A' for Active; 'I' for Inactive)
REMARK    1  A    between atoms: C_1  and  C_3 
REMARK    2  A    between atoms: C_1  and  O_13 
REMARK    3  A    between atoms: C_4  and  C_5 
REMARK    4  A    between atoms: C_7  and  O_12 
REMARK    5  A    between atoms: C_8  and  O_11 
ROOT
HETATM    1  C   UNK N   1      35.592  13.153  16.145  0.00  0.00    -0.033 A 
HETATM    2  C   UNK N   1      34.875  12.751  15.014  0.00  0.00     0.050 A 
HETATM    3  C   UNK N   1      35.171  13.304  13.762  0.00  0.00     0.099 A 
HETATM    4  C   UNK N   1      36.188  14.264  13.643  0.00  0.00     0.098 A 
HETATM    5  C   UNK N   1      36.903  14.665  14.771  0.00  0.00     0.040 A 
HETATM    6  C   UNK N   1      36.608  14.114  16.017  0.00  0.00     0.014 A 
ENDROOT
BRANCH   1   7
HETATM    7  C   UNK N   1      35.276  12.567  17.457  0.00  0.00     0.018 C 
HETATM    8  C   UNK N   1      35.193  13.339  18.545  0.00  0.00     0.082 C 
BRANCH   8   9
HETATM    9  C   UNK N   1      34.881  12.795  19.870  0.00  0.00     0.165 C 
HETATM   10  O   UNK N   1      35.083  11.614  20.095  0.00  0.00    -0.647 OA
BRANCH   9  11
HETATM   11  O   UNK N   1      34.376  13.585  20.837  0.00  0.00    -0.773 OA
HETATM   12  H   UNK N   1      33.778  14.272  20.616  0.00  0.00     0.167 HD
ENDBRANCH   9  11
ENDBRANCH   8   9
ENDBRANCH   1   7
BRANCH   3  13
HETATM   13  O   UNK N   1      34.478  12.913  12.680  0.00  0.00    -0.358 OA
HETATM   14  H   UNK N   1      33.607  12.581  12.776  0.00  0.00     0.217 HD
ENDBRANCH   3  13
BRANCH   4  15
HETATM   15  O   UNK N   1      36.479  14.801  12.446  0.00  0.00    -0.358 OA
HETATM   16  H   UNK N   1      37.296  15.241  12.317  0.00  0.00     0.217 HD
ENDBRANCH   4  15
TORSDOF 5
ENDMDL
MODEL 4
REMARK VINA RESULT:      -5.3      9.029     11.362
REMARK  5 active torsions:
REMARK  status: ('A' for Active; 'I' for Inactive)
REMARK    1  A    between atoms: C_1  and  C_3 
REMARK    2  A    between atoms: C_1  and  O_13 
REMARK    3  A    between atoms: C_4  and  C_5 
REMARK    4  A    between atoms: C_7  and  O_12 
REMARK    5  A    between atoms: C_8  and  O_11 
ROOT
HETATM    1  C   UNK N   1      22.112  13.311   9.600  0.00  0.00    -0.033 A 
HETATM    2  C   UNK N   1      21.886  12.661  10.817  0.00  0.00     0.050 A 
HETATM    3  C   UNK N   1      22.960  12.111  11.528  0.00  0.00     0.099 A 
HETATM    4  C   UNK N   1      24.263  12.213  11.018  0.00  0.00     0.098 A 
HETATM    5  C   UNK N   1      24.489  12.861   9.804  0.00  0.00     0.040 A 
HETATM    6  C   UNK N   1      23.419  13.408   9.097  0.00  0.00     0.014 A 
ENDROOT
BRANCH   1   7
HETATM    7  C   UNK N   1      20.979  13.886   8.858  0.00  0.00     0.018 C 
HETATM    8  C   UNK N   1      20.539  15.117   9.134  0.00  0.00     0.082 C 
BRANCH   8   9
HETATM    9  C   UNK N   1      19.414  15.727   8.419  0.00  0.00     0.165 C 
HETATM   10  O   UNK N   1      18.510  16.243   9.055  0.00  0.00    -0.647 OA
BRANCH   9  11
HETATM   11  O   UNK N   1      19.370  15.724   7.073  0.00  0.00    -0.773 OA
HETATM   12  H   UNK N   1      19.678  14.979   6.596  0.00  0.00     0.167 HD
ENDBRANCH   9  11
ENDBRANCH   8   9
ENDBRANCH   1   7
BRANCH   3  13
HETATM   13  O   UNK N   1      22.736  11.488  12.697  0.00  0.00    -0.358 OA
HETATM   14  H   UNK N   1      21.934  11.024  12.834  0.00  0.00     0.217 HD
ENDBRANCH   3  13
BRANCH   4  15
HETATM   15  O   UNK N   1      25.301  11.688  11.693  0.00  0.00    -0.358 OA
HETATM   16  H   UNK N   1      25.211  11.480  12.602  0.00  0.00     0.217 HD
ENDBRANCH   4  15
TORSDOF 5
ENDMDL
MODEL 5
REMARK VINA RESULT:      -5.2     13.414     14.611
REMARK  5 active torsions:
REMARK  status: ('A' for Active; 'I' for Inactive)
REMARK    1  A    between atoms: C_1  and  C_3 
REMARK    2  A    between atoms: C_1  and  O_13 
REMARK    3  A    between atoms: C_4  and  C_5 
REMARK    4  A    between atoms: C_7  and  O_12 
REMARK    5  A    between atoms: C_8  and  O_11 
ROOT
HETATM    1  C   UNK N   1      26.876  24.853  -3.709  0.00  0.00    -0.033 A 
HETATM    2  C   UNK N   1      26.550  26.100  -3.168  0.00  0.00     0.050 A 
HETATM    3  C   UNK N   1      25.719  26.978  -3.877  0.00  0.00     0.099 A 
HETATM    4  C   UNK N   1      25.215  26.603  -5.132  0.00  0.00     0.098 A 
HETATM    5  C   UNK N   1      25.540  25.358  -5.671  0.00  0.00     0.040 A 
HETATM    6  C   UNK N   1      26.366  24.486  -4.964  0.00  0.00     0.014 A 
ENDROOT
BRANCH   1   7
HETATM    7  C   UNK N   1      27.748  23.937  -2.958  0.00  0.00     0.018 C 
HETATM    8  C   UNK N   1      28.985  23.668  -3.388  0.00  0.00     0.082 C 
BRANCH   8   9
HETATM    9  C   UNK N   1      29.886  22.762  -2.670  0.00  0.00     0.165 C 
HETATM   10  O   UNK N   1      30.250  21.730  -3.208  0.00  0.00    -0.647 OA
BRANCH   9  11
HETATM   11  O   UNK N   1      30.314  23.058  -1.428  0.00  0.00    -0.773 OA
HETATM   12  H   UNK N   1      30.614  23.923  -1.229  0.00  0.00     0.167 HD
ENDBRANCH   9  11
ENDBRANCH   8   9
ENDBRANCH   1   7
BRANCH   3  13
HETATM   13  O   UNK N   1      25.411  28.175  -3.352  0.00  0.00    -0.358 OA
HETATM   14  H   UNK N   1      24.610  28.286  -2.879  0.00  0.00     0.217 HD
ENDBRANCH   3  13
BRANCH   4  15
HETATM   15  O   UNK N   1      24.417  27.437  -5.821  0.00  0.00    -0.358 OA
HETATM   16  H   UNK N   1      24.709  27.799  -6.633  0.00  0.00     0.217 HD
ENDBRANCH   4  15
TORSDOF 5
ENDMDL
MODEL 6
REMARK VINA RESULT:      -5.2      2.714      3.534
REMARK  5 active torsions:
REMARK  status: ('A' for Active; 'I' for Inactive)
REMARK    1  A    between atoms: C_1  and  C_3 
REMARK    2  A    between atoms: C_1  and  O_13 
REMARK    3  A    between atoms: C_4  and  C_5 
REMARK    4  A    between atoms: C_7  and  O_12 
REMARK    5  A    between atoms: C_8  and  O_11 
ROOT
HETATM    1  C   UNK N   1      31.721  17.259   6.267  0.00  0.00    -0.033 A 
HETATM    2  C   UNK N   1      32.266  17.372   4.984  0.00  0.00     0.050 A 
HETATM    3  C   UNK N   1      31.447  17.221   3.858  0.00  0.00     0.099 A 
HETATM    4  C   UNK N   1      30.078  16.956   4.019  0.00  0.00     0.098 A 
HETATM    5  C   UNK N   1      29.535  16.844   5.299  0.00  0.00     0.040 A 
HETATM    6  C   UNK N   1      30.351  16.994   6.418  0.00  0.00     0.014 A 
ENDROOT
BRANCH   1   7
HETATM    7  C   UNK N   1      32.588  17.419   7.445  0.00  0.00     0.018 C 
HETATM    8  C   UNK N   1      33.739  18.092   7.357  0.00  0.00     0.082 C 
BRANCH   8   9
HETATM    9  C   UNK N   1      34.631  18.274   8.505  0.00  0.00     0.165 C 
HETATM   10  O   UNK N   1      35.387  19.231   8.530  0.00  0.00    -0.647 OA
BRANCH   9  11
HETATM   11  O   UNK N   1      34.624  17.399   9.529  0.00  0.00    -0.773 OA
HETATM   12  H   UNK N   1      34.772  17.700  10.404  0.00  0.00     0.167 HD
ENDBRANCH   9  11
ENDBRANCH   8   9
ENDBRANCH   1   7
BRANCH   3  13
HETATM   13  O   UNK N   1      31.977  17.331   2.629  0.00  0.00    -0.358 OA
HETATM   14  H   UNK N   1      32.660  17.950   2.467  0.00  0.00     0.217 HD
ENDBRANCH   3  13
BRANCH   4  15
HETATM   15  O   UNK N   1      29.283  16.809   2.945  0.00  0.00    -0.358 OA
HETATM   16  H   UNK N   1      29.252  15.989   2.494  0.00  0.00     0.217 HD
ENDBRANCH   4  15
TORSDOF 5
ENDMDL
MODEL 7
REMARK VINA RESULT:      -5.1      9.551     11.402
REMARK  5 active torsions:
REMARK  status: ('A' for Active; 'I' for Inactive)
REMARK    1  A    between atoms: C_1  and  C_3 
REMARK    2  A    between atoms: C_1  and  O_13 
REMARK    3  A    between atoms: C_4  and  C_5 
REMARK    4  A    between atoms: C_7  and  O_12 
REMARK    5  A    between atoms: C_8  and  O_11 
ROOT
HETATM    1  C   UNK N   1      21.839  13.328   9.713  0.00  0.00    -0.033 A 
HETATM    2  C   UNK N   1      23.183  13.136  10.045  0.00  0.00     0.050 A 
HETATM    3  C   UNK N   1      23.526  12.426  11.202  0.00  0.00     0.099 A 
HETATM    4  C   UNK N   1      22.518  11.906  12.029  0.00  0.00     0.098 A 
HETATM    5  C   UNK N   1      21.176  12.097  11.697  0.00  0.00     0.040 A 
HETATM    6  C   UNK N   1      20.837  12.804  10.545  0.00  0.00     0.014 A 
ENDROOT
BRANCH   1   7
HETATM    7  C   UNK N   1      21.486  14.075   8.495  0.00  0.00     0.018 C 
HETATM    8  C   UNK N   1      20.660  15.123   8.555  0.00  0.00     0.082 C 
BRANCH   8   9
HETATM    9  C   UNK N   1      20.284  15.894   7.366  0.00  0.00     0.165 C 
HETATM   10  O   UNK N   1      20.834  16.960   7.146  0.00  0.00    -0.647 OA
BRANCH   9  11
HETATM   11  O   UNK N   1      19.340  15.439   6.520  0.00  0.00    -0.773 OA
HETATM   12  H   UNK N   1      19.518  15.393   5.601  0.00  0.00     0.167 HD
ENDBRANCH   9  11
ENDBRANCH   8   9
ENDBRANCH   1   7
BRANCH   3  13
HETATM   13  O   UNK N   1      24.820  12.246  11.515  0.00  0.00    -0.358 OA
HETATM   14  H   UNK N   1      25.237  11.428  11.329  0.00  0.00     0.217 HD
ENDBRANCH   3  13
BRANCH   4  15
HETATM   15  O   UNK N   1      22.836  11.223  13.141  0.00  0.00    -0.358 OA
HETATM   16  H   UNK N   1      23.135  10.338  13.078  0.00  0.00     0.217 HD
ENDBRANCH   4  15
TORSDOF 5
ENDMDL
MODEL 8
REMARK VINA RESULT:      -5.1     12.680     14.639
REMARK  5 active torsions:
REMARK  status: ('A' for Active; 'I' for Inactive)
REMARK    1  A    between atoms: C_1  and  C_3 
REMARK    2  A    between atoms: C_1  and  O_13 
REMARK    3  A    between atoms: C_4  and  C_5 
REMARK    4  A    between atoms: C_7  and  O_12 
REMARK    5  A    between atoms: C_8  and  O_11 
ROOT
HETATM    1  C   UNK N   1      29.483  22.659  -4.794  0.00  0.00    -0.033 A 
HETATM    2  C   UNK N   1      29.483  23.110  -3.470  0.00  0.00     0.050 A 
HETATM    3  C   UNK N   1      30.454  22.650  -2.571  0.00  0.00     0.099 A 
HETATM    4  C   UNK N   1      31.426  21.734  -3.000  0.00  0.00     0.098 A 
HETATM    5  C   UNK N   1      31.426  21.283  -4.321  0.00  0.00     0.040 A 
HETATM    6  C   UNK N   1      30.460  21.743  -5.214  0.00  0.00     0.014 A 
ENDROOT
BRANCH   1   7
HETATM    7  C   UNK N   1      28.461  23.147  -5.732  0.00  0.00     0.018 C 
HETATM    8  C   UNK N   1      27.396  23.821  -5.289  0.00  0.00     0.082 C 
BRANCH   8   9
HETATM    9  C   UNK N   1      26.355  24.325  -6.189  0.00  0.00     0.165 C 
HETATM   10  O   UNK N   1      25.223  24.483  -5.765  0.00  0.00    -0.647 OA
BRANCH   9  11
HETATM   11  O   UNK N   1      26.636  24.613  -7.474  0.00  0.00    -0.773 OA
HETATM   12  H   UNK N   1      27.105  23.996  -8.001  0.00  0.00     0.167 HD
ENDBRANCH   9  11
ENDBRANCH   8   9
ENDBRANCH   1   7
BRANCH   3  13
HETATM   13  O   UNK N   1      30.447  23.088  -1.302  0.00  0.00    -0.358 OA
HETATM   14  H   UNK N   1      31.068  22.750  -0.687  0.00  0.00     0.217 HD
ENDBRANCH   3  13
BRANCH   4  15
HETATM   15  O   UNK N   1      32.362  21.286  -2.146  0.00  0.00    -0.358 OA
HETATM   16  H   UNK N   1      33.011  20.678  -2.439  0.00  0.00     0.217 HD
ENDBRANCH   4  15
TORSDOF 5
ENDMDL
MODEL 9
REMARK VINA RESULT:      -5.1      2.385      2.763
REMARK  5 active torsions:
REMARK  status: ('A' for Active; 'I' for Inactive)
REMARK    1  A    between atoms: C_1  and  C_3 
REMARK    2  A    between atoms: C_1  and  O_13 
REMARK    3  A    between atoms: C_4  and  C_5 
REMARK    4  A    between atoms: C_7  and  O_12 
REMARK    5  A    between atoms: C_8  and  O_11 
ROOT
HETATM    1  C   UNK N   1      31.031  17.376   7.541  0.00  0.00    -0.033 A 
HETATM    2  C   UNK N   1      30.997  17.995   8.794  0.00  0.00     0.050 A 
HETATM    3  C   UNK N   1      29.769  18.304   9.392  0.00  0.00     0.099 A 
HETATM    4  C   UNK N   1      28.571  17.990   8.732  0.00  0.00     0.098 A 
HETATM    5  C   UNK N   1      28.604  17.372   7.482  0.00  0.00     0.040 A 
HETATM    6  C   UNK N   1      29.827  17.066   6.888  0.00  0.00     0.014 A 
ENDROOT
BRANCH   1   7
HETATM    7  C   UNK N   1      32.325  17.056   6.919  0.00  0.00     0.018 C 
HETATM    8  C   UNK N   1      32.383  16.593   5.667  0.00  0.00     0.082 C 
BRANCH   8   9
HETATM    9  C   UNK N   1      33.650  16.261   5.010  0.00  0.00     0.165 C 
HETATM   10  O   UNK N   1      33.651  15.959   3.829  0.00  0.00    -0.647 OA
BRANCH   9  11
HETATM   11  O   UNK N   1      34.809  16.288   5.696  0.00  0.00    -0.773 OA
HETATM   12  H   UNK N   1      35.158  17.105   5.995  0.00  0.00     0.167 HD
ENDBRANCH   9  11
ENDBRANCH   8   9
ENDBRANCH   1   7
BRANCH   3  13
HETATM   13  O   UNK N   1      29.744  18.898  10.597  0.00  0.00    -0.358 OA
HETATM   14  H   UNK N   1      29.015  18.766  11.169  0.00  0.00     0.217 HD
ENDBRANCH   3  13
BRANCH   4  15
HETATM   15  O   UNK N   1      27.387  18.281   9.297  0.00  0.00    -0.358 OA
HETATM   16  H   UNK N   1      27.339  18.467  10.214  0.00  0.00     0.217 HD
ENDBRANCH   4  15
TORSDOF 5
ENDMDL
