REMARK  5 active torsions:
REMARK  status: ('A' for Active; 'I' for Inactive)
REMARK    1  A    between atoms: C_1  and  C_3 
REMARK    2  A    between atoms: C_1  and  O_13 
REMARK    3  A    between atoms: C_4  and  C_5 
REMARK    4  A    between atoms: C_7  and  O_12 
REMARK    5  A    between atoms: C_8  and  O_11 
ROOT
HETATM    1  C   UNK N   1       1.677  -0.821   0.000  0.00  0.00    -0.033 A 
HETATM    2  C   UNK N   1       1.693  -2.219   0.000  0.00  0.00     0.050 A 
HETATM    3  C   UNK N   1       0.489  -2.935   0.000  0.00  0.00     0.099 A 
HETATM    4  C   UNK N   1      -0.734  -2.247  -0.000  0.00  0.00     0.098 A 
HETATM    5  C   UNK N   1      -0.750  -0.852  -0.000  0.00  0.00     0.040 A 
HETATM    6  C   UNK N   1       0.449  -0.141  -0.000  0.00  0.00     0.014 A 
ENDROOT
BRANCH   1   7
HETATM    7  C   UNK N   1       2.946  -0.076  -0.000  0.00  0.00     0.018 C 
HETATM    8  C   UNK N   1       2.951   1.260  -0.000  0.00  0.00     0.082 C 
BRANCH   8   9
HETATM    9  C   UNK N   1       4.192   2.040  -0.000  0.00  0.00     0.165 C 
HETATM   10  O   UNK N   1       4.133   3.258  -0.000  0.00  0.00    -0.647 OA
BRANCH   9  11
HETATM   11  O   UNK N   1       5.391   1.427   0.000  0.00  0.00    -0.773 OA
HETATM   12  H   UNK N   1       5.439   0.491   0.000  0.00  0.00     0.167 HD
ENDBRANCH   9  11
ENDBRANCH   8   9
ENDBRANCH   1   7
BRANCH   3  13
HETATM   13  O   UNK N   1       0.512  -4.278   0.000  0.00  0.00    -0.358 OA
HETATM   14  H   UNK N   1      -0.291  -4.760   0.000  0.00  0.00     0.217 HD
ENDBRANCH   3  13
BRANCH   4  15
HETATM   15  O   UNK N   1      -1.895  -2.924  -0.000  0.00  0.00    -0.358 OA
HETATM   16  H   UNK N   1      -2.708  -2.459  -0.000  0.00  0.00     0.217 HD
ENDBRANCH   4  15
TORSDOF 5
