MODEL 1
REMARK VINA RESULT:      -5.3      0.000      0.000
REMARK  10 active torsions:
REMARK  status: ('A' for Active; 'I' for Inactive)
REMARK    1  A    between atoms: C_2  and  O_3 
REMARK    2  A    between atoms: C_8  and  C_9 
REMARK    3  A    between atoms: C_9  and  C_10 
REMARK    4  A    between atoms: C_10  and  C_11 
REMARK    5  A    between atoms: C_11  and  C_12 
REMARK    6  A    between atoms: C_12  and  C_13 
REMARK    7  A    between atoms: C_13  and  C_14 
REMARK    8  A    between atoms: C_14  and  C_15 
REMARK    9  A    between atoms: C_15  and  C_16 
REMARK   10  A    between atoms: C_16  and  C_17 
ROOT
HETATM    1  N   UNK N   1      20.000  19.456   1.554  0.00  0.00    -0.288 N 
HETATM    2  C   UNK N   1      21.851  20.337   2.599  0.00  0.00     0.146 A 
HETATM    3  C   UNK N   1      20.895  20.462   1.500  0.00  0.00     0.282 A 
HETATM    4  O   UNK N   1      20.882  21.338   0.653  0.00  0.00    -0.265 OA
HETATM    5  C   UNK N   1      20.328  18.700   2.619  0.00  0.00     0.257 A 
HETATM    6  O   UNK N   1      19.713  17.702   2.956  0.00  0.00    -0.267 OA
HETATM    7  C   UNK N   1      21.510  19.255   3.294  0.00  0.00     0.049 A 
HETATM    8  H   UNK N   1      19.250  19.303   0.935  0.00  0.00     0.172 HD
ENDROOT
BRANCH   7   9
HETATM    9  C   UNK N   1      22.191  18.737   4.521  0.00  0.00     0.047 C 
BRANCH   9  10
HETATM   10  C   UNK N   1      23.398  17.903   4.137  0.00  0.00     0.005 C 
BRANCH  10  11
HETATM   11  C   UNK N   1      24.658  18.555   4.664  0.00  0.00     0.000 C 
BRANCH  11  12
HETATM   12  C   UNK N   1      25.648  18.769   3.536  0.00  0.00     0.000 C 
BRANCH  12  13
HETATM   13  C   UNK N   1      26.160  20.189   3.633  0.00  0.00     0.000 C 
BRANCH  13  14
HETATM   14  C   UNK N   1      26.182  20.679   5.066  0.00  0.00     0.000 C 
BRANCH  14  15
HETATM   15  C   UNK N   1      27.611  20.565   5.553  0.00  0.00     0.000 C 
BRANCH  15  16
HETATM   16  C   UNK N   1      27.722  19.626   6.732  0.00  0.00    -0.000 C 
BRANCH  16  17
HETATM   17  C   UNK N   1      28.459  18.382   6.276  0.00  0.00    -0.005 C 
HETATM   18  C   UNK N   1      27.618  17.152   6.544  0.00  0.00     0.005 C 
ENDBRANCH  16  17
ENDBRANCH  15  16
ENDBRANCH  14  15
ENDBRANCH  13  14
ENDBRANCH  12  13
ENDBRANCH  11  12
ENDBRANCH  10  11
ENDBRANCH   9  10
ENDBRANCH   7   9
BRANCH   2  19
HETATM   19  O   UNK N   1      22.883  21.162   2.867  0.00  0.00    -0.355 OA
HETATM   20  H   UNK N   1      22.996  21.512   3.729  0.00  0.00     0.218 HD
ENDBRANCH   2  19
TORSDOF 10
ENDMDL
MODEL 2
REMARK VINA RESULT:      -5.3     12.767     15.691
REMARK  10 active torsions:
REMARK  status: ('A' for Active; 'I' for Inactive)
REMARK    1  A    between atoms: C_2  and  O_3 
REMARK    2  A    between atoms: C_8  and  C_9 
REMARK    3  A    between atoms: C_9  and  C_10 
REMARK    4  A    between atoms: C_10  and  C_11 
REMARK    5  A    between atoms: C_11  and  C_12 
REMARK    6  A    between atoms: C_12  and  C_13 
REMARK    7  A    between atoms: C_13  and  C_14 
REMARK    8  A    between atoms: C_14  and  C_15 
REMARK    9  A    between atoms: C_15  and  C_16 
REMARK   10  A    between atoms: C_16  and  C_17 
ROOT
HETATM    1  N   UNK N   1      33.744  16.499   9.480  0.00  0.00    -0.288 N 
HETATM    2  C   UNK N   1      35.758  15.974  10.464  0.00  0.00     0.146 A 
HETATM    3  C   UNK N   1      34.966  16.989   9.770  0.00  0.00     0.282 A 
HETATM    4  O   UNK N   1      35.329  18.118   9.490  0.00  0.00    -0.265 OA
HETATM    5  C   UNK N   1      33.711  15.236   9.946  0.00  0.00     0.257 A 
HETATM    6  O   UNK N   1      32.740  14.504   9.848  0.00  0.00    -0.267 OA
HETATM    7  C   UNK N   1      34.993  14.891  10.577  0.00  0.00     0.049 A 
HETATM    8  H   UNK N   1      33.016  16.973   9.017  0.00  0.00     0.172 HD
ENDROOT
BRANCH   7   9
HETATM    9  C   UNK N   1      35.372  13.601  11.234  0.00  0.00     0.047 C 
BRANCH   9  10
HETATM   10  C   UNK N   1      35.119  13.680  12.727  0.00  0.00     0.005 C 
BRANCH  10  11
HETATM   11  C   UNK N   1      36.438  13.741  13.466  0.00  0.00     0.000 C 
BRANCH  11  12
HETATM   12  C   UNK N   1      36.205  13.629  14.961  0.00  0.00     0.000 C 
BRANCH  12  13
HETATM   13  C   UNK N   1      36.501  12.203  15.369  0.00  0.00     0.000 C 
BRANCH  13  14
HETATM   14  C   UNK N   1      35.372  11.609  16.185  0.00  0.00     0.000 C 
BRANCH  14  15
HETATM   15  C   UNK N   1      34.840  10.421  15.410  0.00  0.00     0.000 C 
BRANCH  15  16
HETATM   16  C   UNK N   1      33.615  10.789  14.605  0.00  0.00    -0.000 C 
BRANCH  16  17
HETATM   17  C   UNK N   1      33.835  10.328  13.177  0.00  0.00    -0.005 C 
HETATM   18  C   UNK N   1      35.183   9.649  13.054  0.00  0.00     0.005 C 
ENDBRANCH  16  17
ENDBRANCH  15  16
ENDBRANCH  14  15
ENDBRANCH  13  14
ENDBRANCH  12  13
ENDBRANCH  11  12
ENDBRANCH  10  11
ENDBRANCH   9  10
ENDBRANCH   7   9
BRANCH   2  19
HETATM   19  O   UNK N   1      37.022  16.105  10.912  0.00  0.00    -0.355 OA
HETATM   20  H   UNK N   1      37.674  16.510  10.372  0.00  0.00     0.218 HD
ENDBRANCH   2  19
TORSDOF 10
ENDMDL
MODEL 3
REMARK VINA RESULT:      -5.2      0.876      1.684
REMARK  10 active torsions:
REMARK  status: ('A' for Active; 'I' for Inactive)
REMARK    1  A    between atoms: C_2  and  O_3 
REMARK    2  A    between atoms: C_8  and  C_9 
REMARK    3  A    between atoms: C_9  and  C_10 
REMARK    4  A    between atoms: C_10  and  C_11 
REMARK    5  A    between atoms: C_11  and  C_12 
REMARK    6  A    between atoms: C_12  and  C_13 
REMARK    7  A    between atoms: C_13  and  C_14 
REMARK    8  A    between atoms: C_14  and  C_15 
REMARK    9  A    between atoms: C_15  and  C_16 
REMARK   10  A    between atoms: C_16  and  C_17 
ROOT
HETATM    1  N   UNK N   1      20.247  19.176   1.138  0.00  0.00    -0.288 N 
HETATM    2  C   UNK N   1      21.789  20.302   2.424  0.00  0.00     0.146 A 
HETATM    3  C   UNK N   1      21.025  20.277   1.178  0.00  0.00     0.282 A 
HETATM    4  O   UNK N   1      21.061  21.115   0.294  0.00  0.00    -0.265 OA
HETATM    5  C   UNK N   1      20.471  18.501   2.282  0.00  0.00     0.257 A 
HETATM    6  O   UNK N   1      19.919  17.451   2.566  0.00  0.00    -0.267 OA
HETATM    7  C   UNK N   1      21.455  19.212   3.111  0.00  0.00     0.049 A 
HETATM    8  H   UNK N   1      19.634  18.916   0.413  0.00  0.00     0.172 HD
ENDROOT
BRANCH   7   9
HETATM    9  C   UNK N   1      21.970  18.819   4.458  0.00  0.00     0.047 C 
BRANCH   9  10
HETATM   10  C   UNK N   1      23.143  17.869   4.314  0.00  0.00     0.005 C 
BRANCH  10  11
HETATM   11  C   UNK N   1      24.441  18.636   4.443  0.00  0.00     0.000 C 
BRANCH  11  12
HETATM   12  C   UNK N   1      25.572  17.867   3.787  0.00  0.00     0.000 C 
BRANCH  12  13
HETATM   13  C   UNK N   1      26.874  18.511   4.208  0.00  0.00     0.000 C 
BRANCH  13  14
HETATM   14  C   UNK N   1      27.231  18.169   5.639  0.00  0.00     0.000 C 
BRANCH  14  15
HETATM   15  C   UNK N   1      27.767  19.433   6.278  0.00  0.00     0.000 C 
BRANCH  15  16
HETATM   16  C   UNK N   1      27.631  20.622   5.355  0.00  0.00    -0.000 C 
BRANCH  16  17
HETATM   17  C   UNK N   1      27.018  21.762   6.144  0.00  0.00    -0.005 C 
HETATM   18  C   UNK N   1      26.266  21.220   7.340  0.00  0.00     0.005 C 
ENDBRANCH  16  17
ENDBRANCH  15  16
ENDBRANCH  14  15
ENDBRANCH  13  14
ENDBRANCH  12  13
ENDBRANCH  11  12
ENDBRANCH  10  11
ENDBRANCH   9  10
ENDBRANCH   7   9
BRANCH   2  19
HETATM   19  O   UNK N   1      22.666  21.249   2.813  0.00  0.00    -0.355 OA
HETATM   20  H   UNK N   1      22.688  22.079   2.377  0.00  0.00     0.218 HD
ENDBRANCH   2  19
TORSDOF 10
ENDMDL
MODEL 4
REMARK VINA RESULT:      -5.1      4.397      5.483
REMARK  10 active torsions:
REMARK  status: ('A' for Active; 'I' for Inactive)
REMARK    1  A    between atoms: C_2  and  O_3 
REMARK    2  A    between atoms: C_8  and  C_9 
REMARK    3  A    between atoms: C_9  and  C_10 
REMARK    4  A    between atoms: C_10  and  C_11 
REMARK    5  A    between atoms: C_11  and  C_12 
REMARK    6  A    between atoms: C_12  and  C_13 
REMARK    7  A    between atoms: C_13  and  C_14 
REMARK    8  A    between atoms: C_14  and  C_15 
REMARK    9  A    between atoms: C_15  and  C_16 
REMARK   10  A    between atoms: C_16  and  C_17 
ROOT
HETATM    1  N   UNK N   1      21.014  20.833   2.316  0.00  0.00    -0.288 N 
HETATM    2  C   UNK N   1      20.487  18.883   1.213  0.00  0.00     0.146 A 
HETATM    3  C   UNK N   1      20.893  20.283   1.092  0.00  0.00     0.282 A 
HETATM    4  O   UNK N   1      21.105  20.883   0.053  0.00  0.00    -0.265 OA
HETATM    5  C   UNK N   1      20.709  19.870   3.207  0.00  0.00     0.257 A 
HETATM    6  O   UNK N   1      20.722  20.038   4.416  0.00  0.00    -0.267 OA
HETATM    7  C   UNK N   1      20.371  18.620   2.512  0.00  0.00     0.049 A 
HETATM    8  H   UNK N   1      21.276  21.760   2.520  0.00  0.00     0.172 HD
ENDROOT
BRANCH   7   9
HETATM    9  C   UNK N   1      19.992  17.308   3.122  0.00  0.00     0.047 C 
BRANCH   9  10
HETATM   10  C   UNK N   1      21.211  16.416   3.244  0.00  0.00     0.005 C 
BRANCH  10  11
HETATM   11  C   UNK N   1      21.375  15.968   4.680  0.00  0.00     0.000 C 
BRANCH  11  12
HETATM   12  C   UNK N   1      20.400  16.710   5.575  0.00  0.00     0.000 C 
BRANCH  12  13
HETATM   13  C   UNK N   1      21.084  16.954   6.901  0.00  0.00     0.000 C 
BRANCH  13  14
HETATM   14  C   UNK N   1      20.086  17.275   7.994  0.00  0.00     0.000 C 
BRANCH  14  15
HETATM   15  C   UNK N   1      19.749  15.971   8.686  0.00  0.00     0.000 C 
BRANCH  15  16
HETATM   16  C   UNK N   1      20.993  15.166   8.988  0.00  0.00    -0.000 C 
BRANCH  16  17
HETATM   17  C   UNK N   1      20.586  13.968   9.823  0.00  0.00    -0.005 C 
HETATM   18  C   UNK N   1      21.773  13.050  10.026  0.00  0.00     0.005 C 
ENDBRANCH  16  17
ENDBRANCH  15  16
ENDBRANCH  14  15
ENDBRANCH  13  14
ENDBRANCH  12  13
ENDBRANCH  11  12
ENDBRANCH  10  11
ENDBRANCH   9  10
ENDBRANCH   7   9
BRANCH   2  19
HETATM   19  O   UNK N   1      20.272  18.016   0.204  0.00  0.00    -0.355 OA
HETATM   20  H   UNK N   1      19.466  17.539   0.155  0.00  0.00     0.218 HD
ENDBRANCH   2  19
TORSDOF 10
ENDMDL
MODEL 5
REMARK VINA RESULT:      -5.1      3.777      5.290
REMARK  10 active torsions:
REMARK  status: ('A' for Active; 'I' for Inactive)
REMARK    1  A    between atoms: C_2  and  O_3 
REMARK    2  A    between atoms: C_8  and  C_9 
REMARK    3  A    between atoms: C_9  and  C_10 
REMARK    4  A    between atoms: C_10  and  C_11 
REMARK    5  A    between atoms: C_11  and  C_12 
REMARK    6  A    between atoms: C_12  and  C_13 
REMARK    7  A    between atoms: C_13  and  C_14 
REMARK    8  A    between atoms: C_14  and  C_15 
REMARK    9  A    between atoms: C_15  and  C_16 
REMARK   10  A    between atoms: C_16  and  C_17 
ROOT
HETATM    1  N   UNK N   1      20.329  19.054   0.896  0.00  0.00    -0.288 N 
HETATM    2  C   UNK N   1      21.369  20.497   2.356  0.00  0.00     0.146 A 
HETATM    3  C   UNK N   1      20.964  20.240   0.975  0.00  0.00     0.282 A 
HETATM    4  O   UNK N   1      21.153  20.974   0.021  0.00  0.00    -0.265 OA
HETATM    5  C   UNK N   1      20.306  18.541   2.142  0.00  0.00     0.257 A 
HETATM    6  O   UNK N   1      19.799  17.468   2.423  0.00  0.00    -0.267 OA
HETATM    7  C   UNK N   1      20.968  19.457   3.082  0.00  0.00     0.049 A 
HETATM    8  H   UNK N   1      19.953  18.641   0.085  0.00  0.00     0.172 HD
ENDROOT
BRANCH   7   9
HETATM    9  C   UNK N   1      21.147  19.281   4.557  0.00  0.00     0.047 C 
BRANCH   9  10
HETATM   10  C   UNK N   1      22.032  18.083   4.838  0.00  0.00     0.005 C 
BRANCH  10  11
HETATM   11  C   UNK N   1      21.889  17.672   6.288  0.00  0.00     0.000 C 
BRANCH  11  12
HETATM   12  C   UNK N   1      21.843  16.160   6.401  0.00  0.00     0.000 C 
BRANCH  12  13
HETATM   13  C   UNK N   1      20.499  15.781   6.984  0.00  0.00     0.000 C 
BRANCH  13  14
HETATM   14  C   UNK N   1      20.425  16.094   8.464  0.00  0.00     0.000 C 
BRANCH  14  15
HETATM   15  C   UNK N   1      20.265  14.774   9.190  0.00  0.00     0.000 C 
BRANCH  15  16
HETATM   16  C   UNK N   1      21.605  14.164   9.531  0.00  0.00    -0.000 C 
BRANCH  16  17
HETATM   17  C   UNK N   1      21.510  12.667   9.310  0.00  0.00    -0.005 C 
HETATM   18  C   UNK N   1      21.583  12.355   7.830  0.00  0.00     0.005 C 
ENDBRANCH  16  17
ENDBRANCH  15  16
ENDBRANCH  14  15
ENDBRANCH  13  14
ENDBRANCH  12  13
ENDBRANCH  11  12
ENDBRANCH  10  11
ENDBRANCH   9  10
ENDBRANCH   7   9
BRANCH   2  19
HETATM   19  O   UNK N   1      22.022  21.583   2.816  0.00  0.00    -0.355 OA
HETATM   20  H   UNK N   1      22.399  22.197   2.214  0.00  0.00     0.218 HD
ENDBRANCH   2  19
TORSDOF 10
ENDMDL
MODEL 6
REMARK VINA RESULT:      -5.0     14.379     16.859
REMARK  10 active torsions:
REMARK  status: ('A' for Active; 'I' for Inactive)
REMARK    1  A    between atoms: C_2  and  O_3 
REMARK    2  A    between atoms: C_8  and  C_9 
REMARK    3  A    between atoms: C_9  and  C_10 
REMARK    4  A    between atoms: C_10  and  C_11 
REMARK    5  A    between atoms: C_11  and  C_12 
REMARK    6  A    between atoms: C_12  and  C_13 
REMARK    7  A    between atoms: C_13  and  C_14 
REMARK    8  A    between atoms: C_14  and  C_15 
REMARK    9  A    between atoms: C_15  and  C_16 
REMARK   10  A    between atoms: C_16  and  C_17 
ROOT
HETATM    1  N   UNK N   1      36.640  13.727   9.834  0.00  0.00    -0.288 N 
HETATM    2  C   UNK N   1      34.797  14.407  11.032  0.00  0.00     0.146 A 
HETATM    3  C   UNK N   1      35.462  14.373   9.730  0.00  0.00     0.282 A 
HETATM    4  O   UNK N   1      35.035  14.844   8.691  0.00  0.00    -0.265 OA
HETATM    5  C   UNK N   1      36.765  13.348  11.121  0.00  0.00     0.257 A 
HETATM    6  O   UNK N   1      37.725  12.734  11.556  0.00  0.00    -0.267 OA
HETATM    7  C   UNK N   1      35.591  13.778  11.895  0.00  0.00     0.049 A 
HETATM    8  H   UNK N   1      37.286  13.562   9.109  0.00  0.00     0.172 HD
ENDROOT
BRANCH   7   9
HETATM    9  C   UNK N   1      35.319  13.548  13.347  0.00  0.00     0.047 C 
BRANCH   9  10
HETATM   10  C   UNK N   1      36.403  14.189  14.191  0.00  0.00     0.005 C 
BRANCH  10  11
HETATM   11  C   UNK N   1      36.698  13.318  15.392  0.00  0.00     0.000 C 
BRANCH  11  12
HETATM   12  C   UNK N   1      35.747  13.650  16.526  0.00  0.00     0.000 C 
BRANCH  12  13
HETATM   13  C   UNK N   1      35.248  12.345  17.107  0.00  0.00     0.000 C 
BRANCH  13  14
HETATM   14  C   UNK N   1      35.784  11.152  16.345  0.00  0.00     0.000 C 
BRANCH  14  15
HETATM   15  C   UNK N   1      34.616  10.219  16.100  0.00  0.00     0.000 C 
BRANCH  15  16
HETATM   16  C   UNK N   1      33.878  10.577  14.830  0.00  0.00    -0.000 C 
BRANCH  16  17
HETATM   17  C   UNK N   1      34.603   9.929  13.667  0.00  0.00    -0.005 C 
HETATM   18  C   UNK N   1      33.897  10.259  12.368  0.00  0.00     0.005 C 
ENDBRANCH  16  17
ENDBRANCH  15  16
ENDBRANCH  14  15
ENDBRANCH  13  14
ENDBRANCH  12  13
ENDBRANCH  11  12
ENDBRANCH  10  11
ENDBRANCH   9  10
ENDBRANCH   7   9
BRANCH   2  19
HETATM   19  O   UNK N   1      33.602  14.963  11.312  0.00  0.00    -0.355 OA
HETATM   20  H   UNK N   1      32.850  14.754  10.791  0.00  0.00     0.218 HD
ENDBRANCH   2  19
TORSDOF 10
ENDMDL
MODEL 7
REMARK VINA RESULT:      -5.0      5.986      9.079
REMARK  10 active torsions:
REMARK  status: ('A' for Active; 'I' for Inactive)
REMARK    1  A    between atoms: C_2  and  O_3 
REMARK    2  A    between atoms: C_8  and  C_9 
REMARK    3  A    between atoms: C_9  and  C_10 
REMARK    4  A    between atoms: C_10  and  C_11 
REMARK    5  A    between atoms: C_11  and  C_12 
REMARK    6  A    between atoms: C_12  and  C_13 
REMARK    7  A    between atoms: C_13  and  C_14 
REMARK    8  A    between atoms: C_14  and  C_15 
REMARK    9  A    between atoms: C_15  and  C_16 
REMARK   10  A    between atoms: C_16  and  C_17 
ROOT
HETATM    1  N   UNK N   1      32.841  17.483   5.370  0.00  0.00    -0.288 N 
HETATM    2  C   UNK N   1      32.314  17.451   7.610  0.00  0.00     0.146 A 
HETATM    3  C   UNK N   1      33.363  17.617   6.605  0.00  0.00     0.282 A 
HETATM    4  O   UNK N   1      34.539  17.848   6.824  0.00  0.00    -0.265 OA
HETATM    5  C   UNK N   1      31.525  17.243   5.527  0.00  0.00     0.257 A 
HETATM    6  O   UNK N   1      30.752  17.074   4.599  0.00  0.00    -0.267 OA
HETATM    7  C   UNK N   1      31.177  17.220   6.955  0.00  0.00     0.049 A 
HETATM    8  H   UNK N   1      33.327  17.550   4.516  0.00  0.00     0.172 HD
ENDROOT
BRANCH   7   9
HETATM    9  C   UNK N   1      29.830  17.004   7.566  0.00  0.00     0.047 C 
BRANCH   9  10
HETATM   10  C   UNK N   1      29.174  18.337   7.873  0.00  0.00     0.005 C 
BRANCH  10  11
HETATM   11  C   UNK N   1      28.110  18.633   6.839  0.00  0.00     0.000 C 
BRANCH  11  12
HETATM   12  C   UNK N   1      27.472  19.981   7.116  0.00  0.00     0.000 C 
BRANCH  12  13
HETATM   13  C   UNK N   1      27.497  20.777   5.829  0.00  0.00     0.000 C 
BRANCH  13  14
HETATM   14  C   UNK N   1      27.944  19.930   4.656  0.00  0.00     0.000 C 
BRANCH  14  15
HETATM   15  C   UNK N   1      27.006  20.233   3.506  0.00  0.00     0.000 C 
BRANCH  15  16
HETATM   16  C   UNK N   1      25.566  20.285   3.964  0.00  0.00    -0.000 C 
BRANCH  16  17
HETATM   17  C   UNK N   1      24.923  18.949   3.647  0.00  0.00    -0.005 C 
HETATM   18  C   UNK N   1      24.115  18.468   4.834  0.00  0.00     0.005 C 
ENDBRANCH  16  17
ENDBRANCH  15  16
ENDBRANCH  14  15
ENDBRANCH  13  14
ENDBRANCH  12  13
ENDBRANCH  11  12
ENDBRANCH  10  11
ENDBRANCH   9  10
ENDBRANCH   7   9
BRANCH   2  19
HETATM   19  O   UNK N   1      32.460  17.521   8.948  0.00  0.00    -0.355 OA
HETATM   20  H   UNK N   1      32.916  16.843   9.408  0.00  0.00     0.218 HD
ENDBRANCH   2  19
TORSDOF 10
ENDMDL
MODEL 8
REMARK VINA RESULT:      -4.9      7.583      9.685
REMARK  10 active torsions:
REMARK  status: ('A' for Active; 'I' for Inactive)
REMARK    1  A    between atoms: C_2  and  O_3 
REMARK    2  A    between atoms: C_8  and  C_9 
REMARK    3  A    between atoms: C_9  and  C_10 
REMARK    4  A    between atoms: C_10  and  C_11 
REMARK    5  A    between atoms: C_11  and  C_12 
REMARK    6  A    between atoms: C_12  and  C_13 
REMARK    7  A    between atoms: C_13  and  C_14 
REMARK    8  A    between atoms: C_14  and  C_15 
REMARK    9  A    between atoms: C_15  and  C_16 
REMARK   10  A    between atoms: C_16  and  C_17 
ROOT
HETATM    1  N   UNK N   1      21.594  11.889  11.915  0.00  0.00    -0.288 N 
HETATM    2  C   UNK N   1      23.790  12.347  11.397  0.00  0.00     0.146 A 
HETATM    3  C   UNK N   1      22.849  11.867  12.409  0.00  0.00     0.282 A 
HETATM    4  O   UNK N   1      23.130  11.492  13.533  0.00  0.00    -0.265 OA
HETATM    5  C   UNK N   1      21.681  12.353  10.653  0.00  0.00     0.257 A 
HETATM    6  O   UNK N   1      20.718  12.495   9.917  0.00  0.00    -0.267 OA
HETATM    7  C   UNK N   1      23.080  12.648  10.312  0.00  0.00     0.049 A 
HETATM    8  H   UNK N   1      20.773  11.617  12.386  0.00  0.00     0.172 HD
ENDROOT
BRANCH   7   9
HETATM    9  C   UNK N   1      23.616  13.162   9.015  0.00  0.00     0.047 C 
BRANCH   9  10
HETATM   10  C   UNK N   1      23.828  12.016   8.045  0.00  0.00     0.005 C 
BRANCH  10  11
HETATM   11  C   UNK N   1      24.667  12.483   6.876  0.00  0.00     0.000 C 
BRANCH  11  12
HETATM   12  C   UNK N   1      25.393  13.766   7.234  0.00  0.00     0.000 C 
BRANCH  12  13
HETATM   13  C   UNK N   1      25.247  14.720   6.068  0.00  0.00     0.000 C 
BRANCH  13  14
HETATM   14  C   UNK N   1      23.848  14.688   5.492  0.00  0.00     0.000 C 
BRANCH  14  15
HETATM   15  C   UNK N   1      23.058  15.782   6.179  0.00  0.00     0.000 C 
BRANCH  15  16
HETATM   16  C   UNK N   1      21.711  15.282   6.649  0.00  0.00    -0.000 C 
BRANCH  16  17
HETATM   17  C   UNK N   1      21.064  16.379   7.472  0.00  0.00    -0.005 C 
HETATM   18  C   UNK N   1      20.623  15.829   8.812  0.00  0.00     0.005 C 
ENDBRANCH  16  17
ENDBRANCH  15  16
ENDBRANCH  14  15
ENDBRANCH  13  14
ENDBRANCH  12  13
ENDBRANCH  11  12
ENDBRANCH  10  11
ENDBRANCH   9  10
ENDBRANCH   7   9
BRANCH   2  19
HETATM   19  O   UNK N   1      25.126  12.461  11.530  0.00  0.00    -0.355 OA
HETATM   20  H   UNK N   1      25.656  11.695  11.645  0.00  0.00     0.218 HD
ENDBRANCH   2  19
TORSDOF 10
ENDMDL
MODEL 9
REMARK VINA RESULT:      -4.7      1.594      2.547
REMARK  10 active torsions:
REMARK  status: ('A' for Active; 'I' for Inactive)
REMARK    1  A    between atoms: C_2  and  O_3 
REMARK    2  A    between atoms: C_8  and  C_9 
REMARK    3  A    between atoms: C_9  and  C_10 
REMARK    4  A    between atoms: C_10  and  C_11 
REMARK    5  A    between atoms: C_11  and  C_12 
REMARK    6  A    between atoms: C_12  and  C_13 
REMARK    7  A    between atoms: C_13  and  C_14 
REMARK    8  A    between atoms: C_14  and  C_15 
REMARK    9  A    between atoms: C_15  and  C_16 
REMARK   10  A    between atoms: C_16  and  C_17 
ROOT
HETATM    1  N   UNK N   1      20.421  19.177   0.765  0.00  0.00    -0.288 N 
HETATM    2  C   UNK N   1      20.535  19.558   3.032  0.00  0.00     0.146 A 
HETATM    3  C   UNK N   1      20.608  20.138   1.691  0.00  0.00     0.282 A 
HETATM    4  O   UNK N   1      20.801  21.310   1.424  0.00  0.00    -0.265 OA
HETATM    5  C   UNK N   1      20.234  18.022   1.434  0.00  0.00     0.257 A 
HETATM    6  O   UNK N   1      20.033  16.950   0.889  0.00  0.00    -0.267 OA
HETATM    7  C   UNK N   1      20.305  18.255   2.883  0.00  0.00     0.049 A 
HETATM    8  H   UNK N   1      20.420  19.295  -0.213  0.00  0.00     0.172 HD
ENDROOT
BRANCH   7   9
HETATM    9  C   UNK N   1      20.136  17.253   3.980  0.00  0.00     0.047 C 
BRANCH   9  10
HETATM   10  C   UNK N   1      21.468  16.608   4.310  0.00  0.00     0.005 C 
BRANCH  10  11
HETATM   11  C   UNK N   1      22.029  17.215   5.578  0.00  0.00     0.000 C 
BRANCH  11  12
HETATM   12  C   UNK N   1      23.505  17.520   5.404  0.00  0.00     0.000 C 
BRANCH  12  13
HETATM   13  C   UNK N   1      23.732  17.890   3.955  0.00  0.00     0.000 C 
BRANCH  13  14
HETATM   14  C   UNK N   1      24.299  19.287   3.816  0.00  0.00     0.000 C 
BRANCH  14  15
HETATM   15  C   UNK N   1      25.759  19.140   3.444  0.00  0.00     0.000 C 
BRANCH  15  16
HETATM   16  C   UNK N   1      26.532  20.409   3.722  0.00  0.00    -0.000 C 
BRANCH  16  17
HETATM   17  C   UNK N   1      27.287  20.224   5.024  0.00  0.00    -0.005 C 
HETATM   18  C   UNK N   1      26.996  21.377   5.961  0.00  0.00     0.005 C 
ENDBRANCH  16  17
ENDBRANCH  15  16
ENDBRANCH  14  15
ENDBRANCH  13  14
ENDBRANCH  12  13
ENDBRANCH  11  12
ENDBRANCH  10  11
ENDBRANCH   9  10
ENDBRANCH   7   9
BRANCH   2  19
HETATM   19  O   UNK N   1      20.670  20.213   4.202  0.00  0.00    -0.355 OA
HETATM   20  H   UNK N   1      21.181  20.998   4.246  0.00  0.00     0.218 HD
ENDBRANCH   2  19
TORSDOF 10
ENDMDL
