MODEL 1
REMARK VINA RESULT:      -5.4      0.000      0.000
REMARK  5 active torsions:
REMARK  status: ('A' for Active; 'I' for Inactive)
REMARK    1  A    between atoms: C_1  and  C_7 
REMARK    2  A    between atoms: C_3  and  O_11 
REMARK    3  A    between atoms: C_4  and  O_12 
REMARK    4  A    between atoms: C_7  and  C_8 
REMARK    5  A    between atoms: C_8  and  O_10 
ROOT
HETATM    1  C   UNK N   1      20.739  18.540   3.547  0.00  0.00    -0.045 A 
HETATM    2  C   UNK N   1      20.534  17.852   2.349  0.00  0.00     0.047 A 
HETATM    3  C   UNK N   1      20.497  18.537   1.135  0.00  0.00     0.099 A 
HETATM    4  C   UNK N   1      20.667  19.927   1.110  0.00  0.00     0.098 A 
HETATM    5  C   UNK N   1      20.874  20.624   2.302  0.00  0.00     0.040 A 
HETATM    6  C   UNK N   1      20.909  19.934   3.517  0.00  0.00     0.010 A 
ENDROOT
BRANCH   1   7
HETATM    7  C   UNK N   1      20.766  17.732   4.816  0.00  0.00     0.148 C 
BRANCH   7   8
HETATM    8  C   UNK N   1      21.601  18.213   5.972  0.00  0.00     0.143 C 
HETATM    9  O   UNK N   1      21.041  18.715   6.931  0.00  0.00    -0.650 OA
BRANCH   8  10
HETATM   10  O   UNK N   1      22.943  18.104   5.976  0.00  0.00    -0.776 OA
HETATM   11  H   UNK N   1      23.466  18.776   6.366  0.00  0.00     0.167 HD
ENDBRANCH   8  10
ENDBRANCH   7   8
ENDBRANCH   1   7
BRANCH   3  12
HETATM   12  O   UNK N   1      20.298  17.854  -0.005  0.00  0.00    -0.358 OA
HETATM   13  H   UNK N   1      21.013  17.406  -0.412  0.00  0.00     0.217 HD
ENDBRANCH   3  12
BRANCH   4  14
HETATM   14  O   UNK N   1      20.634  20.595  -0.056  0.00  0.00    -0.358 OA
HETATM   15  H   UNK N   1      20.828  21.511  -0.077  0.00  0.00     0.217 HD
ENDBRANCH   4  14
TORSDOF 5
ENDMDL
MODEL 2
REMARK VINA RESULT:      -5.3      0.852      1.961
REMARK  5 active torsions:
REMARK  status: ('A' for Active; 'I' for Inactive)
REMARK    1  A    between atoms: C_1  and  C_7 
REMARK    2  A    between atoms: C_3  and  O_11 
REMARK    3  A    between atoms: C_4  and  O_12 
REMARK    4  A    between atoms: C_7  and  C_8 
REMARK    5  A    between atoms: C_8  and  O_10 
ROOT
HETATM    1  C   UNK N   1      20.722  18.362   3.598  0.00  0.00    -0.045 A 
HETATM    2  C   UNK N   1      21.070  19.714   3.614  0.00  0.00     0.047 A 
HETATM    3  C   UNK N   1      21.059  20.464   2.438  0.00  0.00     0.099 A 
HETATM    4  C   UNK N   1      20.696  19.861   1.228  0.00  0.00     0.098 A 
HETATM    5  C   UNK N   1      20.346  18.509   1.200  0.00  0.00     0.040 A 
HETATM    6  C   UNK N   1      20.359  17.762   2.382  0.00  0.00     0.010 A 
ENDROOT
BRANCH   1   7
HETATM    7  C   UNK N   1      20.758  17.620   4.906  0.00  0.00     0.148 C 
BRANCH   7   8
HETATM    8  C   UNK N   1      21.593  18.165   6.034  0.00  0.00     0.143 C 
HETATM    9  O   UNK N   1      21.033  18.720   6.963  0.00  0.00    -0.650 OA
BRANCH   8  10
HETATM   10  O   UNK N   1      22.935  18.056   6.044  0.00  0.00    -0.776 OA
HETATM   11  H   UNK N   1      23.401  17.935   5.241  0.00  0.00     0.167 HD
ENDBRANCH   8  10
ENDBRANCH   7   8
ENDBRANCH   1   7
BRANCH   3  12
HETATM   12  O   UNK N   1      21.398  21.763   2.479  0.00  0.00    -0.358 OA
HETATM   13  H   UNK N   1      21.761  22.128   3.262  0.00  0.00     0.217 HD
ENDBRANCH   3  12
BRANCH   4  14
HETATM   14  O   UNK N   1      20.683  20.576   0.090  0.00  0.00    -0.358 OA
HETATM   15  H   UNK N   1      20.941  21.476   0.099  0.00  0.00     0.217 HD
ENDBRANCH   4  14
TORSDOF 5
ENDMDL
MODEL 3
REMARK VINA RESULT:      -5.2      7.516     10.214
REMARK  5 active torsions:
REMARK  status: ('A' for Active; 'I' for Inactive)
REMARK    1  A    between atoms: C_1  and  C_7 
REMARK    2  A    between atoms: C_3  and  O_11 
REMARK    3  A    between atoms: C_4  and  O_12 
REMARK    4  A    between atoms: C_7  and  C_8 
REMARK    5  A    between atoms: C_8  and  O_10 
ROOT
HETATM    1  C   UNK N   1      22.205  13.142   9.418  0.00  0.00    -0.045 A 
HETATM    2  C   UNK N   1      21.936  12.572  10.664  0.00  0.00     0.047 A 
HETATM    3  C   UNK N   1      22.974  12.103  11.469  0.00  0.00     0.099 A 
HETATM    4  C   UNK N   1      24.300  12.203  11.029  0.00  0.00     0.098 A 
HETATM    5  C   UNK N   1      24.580  12.772   9.785  0.00  0.00     0.040 A 
HETATM    6  C   UNK N   1      23.536  13.240   8.981  0.00  0.00     0.010 A 
ENDROOT
BRANCH   1   7
HETATM    7  C   UNK N   1      21.032  13.625   8.608  0.00  0.00     0.148 C 
BRANCH   7   8
HETATM    8  C   UNK N   1      20.209  14.774   9.124  0.00  0.00     0.143 C 
HETATM    9  O   UNK N   1      19.154  14.533   9.685  0.00  0.00    -0.650 OA
BRANCH   8  10
HETATM   10  O   UNK N   1      20.604  16.054   8.985  0.00  0.00    -0.776 OA
HETATM   11  H   UNK N   1      20.438  16.510   8.184  0.00  0.00     0.167 HD
ENDBRANCH   8  10
ENDBRANCH   7   8
ENDBRANCH   1   7
BRANCH   3  12
HETATM   12  O   UNK N   1      22.691  11.558  12.664  0.00  0.00    -0.358 OA
HETATM   13  H   UNK N   1      23.228  11.753  13.406  0.00  0.00     0.217 HD
ENDBRANCH   3  12
BRANCH   4  14
HETATM   14  O   UNK N   1      25.306  11.754  11.798  0.00  0.00    -0.358 OA
HETATM   15  H   UNK N   1      25.520  12.196  12.596  0.00  0.00     0.217 HD
ENDBRANCH   4  14
TORSDOF 5
ENDMDL
MODEL 4
REMARK VINA RESULT:      -5.2      9.441     11.759
REMARK  5 active torsions:
REMARK  status: ('A' for Active; 'I' for Inactive)
REMARK    1  A    between atoms: C_1  and  C_7 
REMARK    2  A    between atoms: C_3  and  O_11 
REMARK    3  A    between atoms: C_4  and  O_12 
REMARK    4  A    between atoms: C_7  and  C_8 
REMARK    5  A    between atoms: C_8  and  O_10 
ROOT
HETATM    1  C   UNK N   1      31.206  17.268   7.438  0.00  0.00    -0.045 A 
HETATM    2  C   UNK N   1      31.096  17.807   8.721  0.00  0.00     0.047 A 
HETATM    3  C   UNK N   1      29.889  18.349   9.162  0.00  0.00     0.099 A 
HETATM    4  C   UNK N   1      28.775  18.357   8.314  0.00  0.00     0.098 A 
HETATM    5  C   UNK N   1      28.874  17.821   7.029  0.00  0.00     0.040 A 
HETATM    6  C   UNK N   1      30.085  17.278   6.591  0.00  0.00     0.010 A 
ENDROOT
BRANCH   1   7
HETATM    7  C   UNK N   1      32.540  16.702   7.034  0.00  0.00     0.148 C 
BRANCH   7   8
HETATM    8  C   UNK N   1      33.579  17.621   6.448  0.00  0.00     0.143 C 
HETATM    9  O   UNK N   1      33.540  17.863   5.255  0.00  0.00    -0.650 OA
BRANCH   8  10
HETATM   10  O   UNK N   1      34.544  18.179   7.203  0.00  0.00    -0.776 OA
HETATM   11  H   UNK N   1      34.597  17.980   8.117  0.00  0.00     0.167 HD
ENDBRANCH   8  10
ENDBRANCH   7   8
ENDBRANCH   1   7
BRANCH   3  12
HETATM   12  O   UNK N   1      29.808  18.862  10.402  0.00  0.00    -0.358 OA
HETATM   13  H   UNK N   1      29.501  19.738  10.526  0.00  0.00     0.217 HD
ENDBRANCH   3  12
BRANCH   4  14
HETATM   14  O   UNK N   1      27.608  18.878   8.732  0.00  0.00    -0.358 OA
HETATM   15  H   UNK N   1      27.507  19.806   8.801  0.00  0.00     0.217 HD
ENDBRANCH   4  14
TORSDOF 5
ENDMDL
MODEL 5
REMARK VINA RESULT:      -5.2      6.969      9.172
REMARK  5 active torsions:
REMARK  status: ('A' for Active; 'I' for Inactive)
REMARK    1  A    between atoms: C_1  and  C_7 
REMARK    2  A    between atoms: C_3  and  O_11 
REMARK    3  A    between atoms: C_4  and  O_12 
REMARK    4  A    between atoms: C_7  and  C_8 
REMARK    5  A    between atoms: C_8  and  O_10 
ROOT
HETATM    1  C   UNK N   1      22.297  12.641  10.063  0.00  0.00    -0.045 A 
HETATM    2  C   UNK N   1      21.004  13.096  10.327  0.00  0.00     0.047 A 
HETATM    3  C   UNK N   1      20.404  14.046   9.500  0.00  0.00     0.099 A 
HETATM    4  C   UNK N   1      21.100  14.551   8.395  0.00  0.00     0.098 A 
HETATM    5  C   UNK N   1      22.394  14.102   8.123  0.00  0.00     0.040 A 
HETATM    6  C   UNK N   1      22.991  13.150   8.954  0.00  0.00     0.010 A 
ENDROOT
BRANCH   1   7
HETATM    7  C   UNK N   1      22.876  11.616  11.000  0.00  0.00     0.148 C 
BRANCH   7   8
HETATM    8  C   UNK N   1      23.917  12.043  12.000  0.00  0.00     0.143 C 
HETATM    9  O   UNK N   1      23.621  12.064  13.182  0.00  0.00    -0.650 OA
BRANCH   8  10
HETATM   10  O   UNK N   1      25.160  12.402  11.626  0.00  0.00    -0.776 OA
HETATM   11  H   UNK N   1      25.667  12.971  12.171  0.00  0.00     0.167 HD
ENDBRANCH   8  10
ENDBRANCH   7   8
ENDBRANCH   1   7
BRANCH   3  12
HETATM   12  O   UNK N   1      19.158  14.469   9.774  0.00  0.00    -0.358 OA
HETATM   13  H   UNK N   1      18.723  14.171  10.548  0.00  0.00     0.217 HD
ENDBRANCH   3  12
BRANCH   4  14
HETATM   14  O   UNK N   1      20.529  15.466   7.593  0.00  0.00    -0.358 OA
HETATM   15  H   UNK N   1      20.936  15.696   6.781  0.00  0.00     0.217 HD
ENDBRANCH   4  14
TORSDOF 5
ENDMDL
MODEL 6
REMARK VINA RESULT:      -5.1     20.250     22.270
REMARK  5 active torsions:
REMARK  status: ('A' for Active; 'I' for Inactive)
REMARK    1  A    between atoms: C_1  and  C_7 
REMARK    2  A    between atoms: C_3  and  O_11 
REMARK    3  A    between atoms: C_4  and  O_12 
REMARK    4  A    between atoms: C_7  and  C_8 
REMARK    5  A    between atoms: C_8  and  O_10 
ROOT
HETATM    1  C   UNK N   1      35.423  12.633  17.130  0.00  0.00    -0.045 A 
HETATM    2  C   UNK N   1      35.073  13.400  18.242  0.00  0.00     0.047 A 
HETATM    3  C   UNK N   1      35.071  12.839  19.520  0.00  0.00     0.099 A 
HETATM    4  C   UNK N   1      35.422  11.494  19.692  0.00  0.00     0.098 A 
HETATM    5  C   UNK N   1      35.774  10.718  18.586  0.00  0.00     0.040 A 
HETATM    6  C   UNK N   1      35.774  11.286  17.308  0.00  0.00     0.010 A 
ENDROOT
BRANCH   1   7
HETATM    7  C   UNK N   1      35.401  13.310  15.786  0.00  0.00     0.148 C 
BRANCH   7   8
HETATM    8  C   UNK N   1      36.701  13.541  15.062  0.00  0.00     0.143 C 
HETATM    9  O   UNK N   1      36.940  12.886  14.063  0.00  0.00    -0.650 OA
BRANCH   8  10
HETATM   10  O   UNK N   1      37.601  14.448  15.486  0.00  0.00    -0.776 OA
HETATM   11  H   UNK N   1      38.310  14.700  14.928  0.00  0.00     0.167 HD
ENDBRANCH   8  10
ENDBRANCH   7   8
ENDBRANCH   1   7
BRANCH   3  12
HETATM   12  O   UNK N   1      34.731  13.596  20.575  0.00  0.00    -0.358 OA
HETATM   13  H   UNK N   1      34.064  14.249  20.486  0.00  0.00     0.217 HD
ENDBRANCH   3  12
BRANCH   4  14
HETATM   14  O   UNK N   1      35.423  10.945  20.919  0.00  0.00    -0.358 OA
HETATM   15  H   UNK N   1      36.128  10.387  21.182  0.00  0.00     0.217 HD
ENDBRANCH   4  14
TORSDOF 5
ENDMDL
MODEL 7
REMARK VINA RESULT:      -5.0      9.491     11.700
REMARK  5 active torsions:
REMARK  status: ('A' for Active; 'I' for Inactive)
REMARK    1  A    between atoms: C_1  and  C_7 
REMARK    2  A    between atoms: C_3  and  O_11 
REMARK    3  A    between atoms: C_4  and  O_12 
REMARK    4  A    between atoms: C_7  and  C_8 
REMARK    5  A    between atoms: C_8  and  O_10 
ROOT
HETATM    1  C   UNK N   1      30.456  17.266   7.298  0.00  0.00    -0.045 A 
HETATM    2  C   UNK N   1      31.332  17.478   8.363  0.00  0.00     0.047 A 
HETATM    3  C   UNK N   1      32.702  17.621   8.138  0.00  0.00     0.099 A 
HETATM    4  C   UNK N   1      33.206  17.551   6.834  0.00  0.00     0.098 A 
HETATM    5  C   UNK N   1      32.338  17.338   5.761  0.00  0.00     0.040 A 
HETATM    6  C   UNK N   1      30.967  17.196   5.992  0.00  0.00     0.010 A 
ENDROOT
BRANCH   1   7
HETATM    7  C   UNK N   1      28.993  17.122   7.620  0.00  0.00     0.148 C 
BRANCH   7   8
HETATM    8  C   UNK N   1      28.251  18.299   8.194  0.00  0.00     0.143 C 
HETATM    9  O   UNK N   1      28.291  19.363   7.602  0.00  0.00    -0.650 OA
BRANCH   8  10
HETATM   10  O   UNK N   1      27.547  18.209   9.339  0.00  0.00    -0.776 OA
HETATM   11  H   UNK N   1      27.475  17.386   9.780  0.00  0.00     0.167 HD
ENDBRANCH   8  10
ENDBRANCH   7   8
ENDBRANCH   1   7
BRANCH   3  12
HETATM   12  O   UNK N   1      33.526  17.824   9.180  0.00  0.00    -0.358 OA
HETATM   13  H   UNK N   1      33.371  17.383   9.991  0.00  0.00     0.217 HD
ENDBRANCH   3  12
BRANCH   4  14
HETATM   14  O   UNK N   1      34.525  17.687   6.608  0.00  0.00    -0.358 OA
HETATM   15  H   UNK N   1      34.835  17.877   5.745  0.00  0.00     0.217 HD
ENDBRANCH   4  14
TORSDOF 5
ENDMDL
MODEL 8
REMARK VINA RESULT:      -5.0      9.761     11.742
REMARK  5 active torsions:
REMARK  status: ('A' for Active; 'I' for Inactive)
REMARK    1  A    between atoms: C_1  and  C_7 
REMARK    2  A    between atoms: C_3  and  O_11 
REMARK    3  A    between atoms: C_4  and  O_12 
REMARK    4  A    between atoms: C_7  and  C_8 
REMARK    5  A    between atoms: C_8  and  O_10 
ROOT
HETATM    1  C   UNK N   1      31.694  17.572   8.267  0.00  0.00    -0.045 A 
HETATM    2  C   UNK N   1      31.139  16.809   7.239  0.00  0.00     0.047 A 
HETATM    3  C   UNK N   1      29.786  16.926   6.918  0.00  0.00     0.099 A 
HETATM    4  C   UNK N   1      28.973  17.815   7.632  0.00  0.00     0.098 A 
HETATM    5  C   UNK N   1      29.518  18.584   8.662  0.00  0.00     0.040 A 
HETATM    6  C   UNK N   1      30.874  18.463   8.980  0.00  0.00     0.010 A 
ENDROOT
BRANCH   1   7
HETATM    7  C   UNK N   1      33.160  17.391   8.554  0.00  0.00     0.148 C 
BRANCH   7   8
HETATM    8  C   UNK N   1      34.163  18.205   7.781  0.00  0.00     0.143 C 
HETATM    9  O   UNK N   1      34.276  18.012   6.584  0.00  0.00    -0.650 OA
BRANCH   8  10
HETATM   10  O   UNK N   1      34.934  19.136   8.375  0.00  0.00    -0.776 OA
HETATM   11  H   UNK N   1      34.541  19.901   8.746  0.00  0.00     0.167 HD
ENDBRANCH   8  10
ENDBRANCH   7   8
ENDBRANCH   1   7
BRANCH   3  12
HETATM   12  O   UNK N   1      29.275  16.181   5.924  0.00  0.00    -0.358 OA
HETATM   13  H   UNK N   1      28.573  16.516   5.403  0.00  0.00     0.217 HD
ENDBRANCH   3  12
BRANCH   4  14
HETATM   14  O   UNK N   1      27.669  17.934   7.330  0.00  0.00    -0.358 OA
HETATM   15  H   UNK N   1      27.409  18.191   6.467  0.00  0.00     0.217 HD
ENDBRANCH   4  14
TORSDOF 5
ENDMDL
MODEL 9
REMARK VINA RESULT:      -4.9     18.999     21.428
REMARK  5 active torsions:
REMARK  status: ('A' for Active; 'I' for Inactive)
REMARK    1  A    between atoms: C_1  and  C_7 
REMARK    2  A    between atoms: C_3  and  O_11 
REMARK    3  A    between atoms: C_4  and  O_12 
REMARK    4  A    between atoms: C_7  and  C_8 
REMARK    5  A    between atoms: C_8  and  O_10 
ROOT
HETATM    1  C   UNK N   1      35.685  12.540  16.378  0.00  0.00    -0.045 A 
HETATM    2  C   UNK N   1      35.567  11.439  17.229  0.00  0.00     0.047 A 
HETATM    3  C   UNK N   1      35.296  11.616  18.586  0.00  0.00     0.099 A 
HETATM    4  C   UNK N   1      35.141  12.908  19.104  0.00  0.00     0.098 A 
HETATM    5  C   UNK N   1      35.257  14.015  18.262  0.00  0.00     0.040 A 
HETATM    6  C   UNK N   1      35.528  13.833  16.903  0.00  0.00     0.010 A 
ENDROOT
BRANCH   1   7
HETATM    7  C   UNK N   1      35.978  12.268  14.928  0.00  0.00     0.148 C 
BRANCH   7   8
HETATM    8  C   UNK N   1      35.854  13.391  13.933  0.00  0.00     0.143 C 
HETATM    9  O   UNK N   1      34.784  13.564  13.375  0.00  0.00    -0.650 OA
BRANCH   8  10
HETATM   10  O   UNK N   1      36.887  14.205  13.644  0.00  0.00    -0.776 OA
HETATM   11  H   UNK N   1      37.402  14.570  14.335  0.00  0.00     0.167 HD
ENDBRANCH   8  10
ENDBRANCH   7   8
ENDBRANCH   1   7
BRANCH   3  12
HETATM   12  O   UNK N   1      35.187  10.542  19.385  0.00  0.00    -0.358 OA
HETATM   13  H   UNK N   1      35.379   9.688  19.049  0.00  0.00     0.217 HD
ENDBRANCH   3  12
BRANCH   4  14
HETATM   14  O   UNK N   1      34.880  13.088  20.411  0.00  0.00    -0.358 OA
HETATM   15  H   UNK N   1      35.162  13.870  20.842  0.00  0.00     0.217 HD
ENDBRANCH   4  14
TORSDOF 5
ENDMDL
