REMARK  4 active torsions:
REMARK  status: ('A' for Active; 'I' for Inactive)
REMARK    1  A    between atoms: P_1  and  O_3 
REMARK    2  A    between atoms: P_1  and  O_7 
REMARK    3  A    between atoms: O_3  and  C_4 
REMARK    4  A    between atoms: O_7  and  C_8 
ROOT
HETATM    1  P   UNK N   1       0.084  -0.092   0.300  0.00  0.00     0.325 P 
HETATM    2  O   UNK N   1      -0.150   1.144   1.214  0.00  0.00    -0.259 OA
HETATM    3  C   UNK N   1      -0.140   1.347  -0.864  0.00  0.00     0.149 C 
ENDROOT
BRANCH   1   4
HETATM    4  O   UNK N   1      -1.339  -0.367  -0.671  0.00  0.00    -0.310 OA
BRANCH   4   5
HETATM    5  C   UNK N   1      -2.410  -0.444   0.227  0.00  0.00     0.123 C 
HETATM    6  C   UNK N   1      -3.204  -1.710  -0.020  0.00  0.00     0.040 C 
HETATM    7  C   UNK N   1      -3.310   0.764   0.048  0.00  0.00     0.040 C 
ENDBRANCH   4   5
ENDBRANCH   1   4
BRANCH   1   8
HETATM    8  O   UNK N   1       1.527   0.160  -0.641  0.00  0.00    -0.310 OA
BRANCH   8   9
HETATM    9  C   UNK N   1       2.585   0.088   0.269  0.00  0.00     0.123 C 
HETATM   10  C   UNK N   1       3.434   1.339   0.163  0.00  0.00     0.040 C 
HETATM   11  C   UNK N   1       3.433  -1.132  -0.027  0.00  0.00     0.040 C 
ENDBRANCH   8   9
ENDBRANCH   1   8
TORSDOF 4
