MODEL 1
REMARK VINA RESULT:      -4.1      0.000      0.000
REMARK  4 active torsions:
REMARK  status: ('A' for Active; 'I' for Inactive)
REMARK    1  A    between atoms: P_1  and  O_3 
REMARK    2  A    between atoms: P_1  and  O_7 
REMARK    3  A    between atoms: O_3  and  C_4 
REMARK    4  A    between atoms: O_7  and  C_8 
ROOT
HETATM    1  P   UNK N   1      33.859  17.974   7.643  0.00  0.00     0.325 P 
HETATM    2  O   UNK N   1      34.806  19.017   8.301  0.00  0.00    -0.259 OA
HETATM    3  C   UNK N   1      34.598  17.106   9.118  0.00  0.00     0.149 C 
ENDROOT
BRANCH   1   4
HETATM    4  O   UNK N   1      34.799  16.614   7.086  0.00  0.00    -0.310 OA
BRANCH   4   5
HETATM    5  C   UNK N   1      34.311  16.302   5.812  0.00  0.00     0.123 C 
HETATM    6  C   UNK N   1      33.463  17.443   5.288  0.00  0.00     0.040 C 
HETATM    7  C   UNK N   1      33.475  15.038   5.884  0.00  0.00     0.040 C 
ENDBRANCH   4   5
ENDBRANCH   1   4
BRANCH   1   8
HETATM    8  O   UNK N   1      32.614  17.537   8.779  0.00  0.00    -0.310 OA
BRANCH   8   9
HETATM    9  C   UNK N   1      31.407  17.859   8.154  0.00  0.00     0.123 C 
HETATM   10  C   UNK N   1      30.511  18.600   9.127  0.00  0.00     0.040 C 
HETATM   11  C   UNK N   1      30.717  16.593   7.687  0.00  0.00     0.040 C 
ENDBRANCH   8   9
ENDBRANCH   1   8
TORSDOF 4
ENDMDL
MODEL 2
REMARK VINA RESULT:      -3.9      8.565      9.691
REMARK  4 active torsions:
REMARK  status: ('A' for Active; 'I' for Inactive)
REMARK    1  A    between atoms: P_1  and  O_3 
REMARK    2  A    between atoms: P_1  and  O_7 
REMARK    3  A    between atoms: O_3  and  C_4 
REMARK    4  A    between atoms: O_7  and  C_8 
ROOT
HETATM    1  P   UNK N   1      35.015  12.596  14.627  0.00  0.00     0.325 P 
HETATM    2  O   UNK N   1      34.993  13.668  13.501  0.00  0.00    -0.259 OA
HETATM    3  C   UNK N   1      36.802  12.866  14.169  0.00  0.00     0.149 C 
ENDROOT
BRANCH   1   4
HETATM    4  O   UNK N   1      35.666  11.108  13.992  0.00  0.00    -0.310 OA
BRANCH   4   5
HETATM    5  C   UNK N   1      34.579  10.236  13.859  0.00  0.00     0.123 C 
HETATM    6  C   UNK N   1      34.141  10.170  12.411  0.00  0.00     0.040 C 
HETATM    7  C   UNK N   1      33.428  10.727  14.717  0.00  0.00     0.040 C 
ENDBRANCH   4   5
ENDBRANCH   1   4
BRANCH   1   8
HETATM    8  O   UNK N   1      35.905  13.217  15.988  0.00  0.00    -0.310 OA
BRANCH   8   9
HETATM    9  C   UNK N   1      35.078  13.022  17.097  0.00  0.00     0.123 C 
HETATM   10  C   UNK N   1      35.317  14.123  18.111  0.00  0.00     0.040 C 
HETATM   11  C   UNK N   1      35.373  11.675  17.726  0.00  0.00     0.040 C 
ENDBRANCH   8   9
ENDBRANCH   1   8
TORSDOF 4
ENDMDL
MODEL 3
REMARK VINA RESULT:      -3.9      1.689      2.351
REMARK  4 active torsions:
REMARK  status: ('A' for Active; 'I' for Inactive)
REMARK    1  A    between atoms: P_1  and  O_3 
REMARK    2  A    between atoms: P_1  and  O_7 
REMARK    3  A    between atoms: O_3  and  C_4 
REMARK    4  A    between atoms: O_7  and  C_8 
ROOT
HETATM    1  P   UNK N   1      33.519  17.136   7.375  0.00  0.00     0.325 P 
HETATM    2  O   UNK N   1      34.216  17.907   6.219  0.00  0.00    -0.259 OA
HETATM    3  C   UNK N   1      34.584  18.419   8.209  0.00  0.00     0.149 C 
ENDROOT
BRANCH   1   4
HETATM    4  O   UNK N   1      34.729  16.327   8.338  0.00  0.00    -0.310 OA
BRANCH   4   5
HETATM    5  C   UNK N   1      34.263  15.020   8.524  0.00  0.00     0.123 C 
HETATM    6  C   UNK N   1      33.416  14.598   7.341  0.00  0.00     0.040 C 
HETATM    7  C   UNK N   1      33.435  14.952   9.793  0.00  0.00     0.040 C 
ENDBRANCH   4   5
ENDBRANCH   1   4
BRANCH   1   8
HETATM    8  O   UNK N   1      32.535  18.244   8.288  0.00  0.00    -0.310 OA
BRANCH   8   9
HETATM    9  C   UNK N   1      31.298  17.611   8.438  0.00  0.00     0.123 C 
HETATM   10  C   UNK N   1      30.778  17.183   7.080  0.00  0.00     0.040 C 
HETATM   11  C   UNK N   1      30.312  18.560   9.087  0.00  0.00     0.040 C 
ENDBRANCH   8   9
ENDBRANCH   1   8
TORSDOF 4
ENDMDL
MODEL 4
REMARK VINA RESULT:      -3.8      1.132      3.715
REMARK  4 active torsions:
REMARK  status: ('A' for Active; 'I' for Inactive)
REMARK    1  A    between atoms: P_1  and  O_3 
REMARK    2  A    between atoms: P_1  and  O_7 
REMARK    3  A    between atoms: O_3  and  C_4 
REMARK    4  A    between atoms: O_7  and  C_8 
ROOT
HETATM    1  P   UNK N   1      33.446  16.929   7.793  0.00  0.00     0.325 P 
HETATM    2  O   UNK N   1      34.309  16.519   9.020  0.00  0.00    -0.259 OA
HETATM    3  C   UNK N   1      34.483  18.426   8.189  0.00  0.00     0.149 C 
ENDROOT
BRANCH   1   4
HETATM    4  O   UNK N   1      32.391  18.243   8.246  0.00  0.00    -0.310 OA
BRANCH   4   5
HETATM    5  C   UNK N   1      31.165  17.657   8.578  0.00  0.00     0.123 C 
HETATM    6  C   UNK N   1      30.497  17.110   7.333  0.00  0.00     0.040 C 
HETATM    7  C   UNK N   1      30.265  18.694   9.224  0.00  0.00     0.040 C 
ENDBRANCH   4   5
ENDBRANCH   1   4
BRANCH   1   8
HETATM    8  O   UNK N   1      34.496  17.311   6.459  0.00  0.00    -0.310 OA
BRANCH   8   9
HETATM    9  C   UNK N   1      33.972  16.625   5.360  0.00  0.00     0.123 C 
HETATM   10  C   UNK N   1      32.941  17.490   4.664  0.00  0.00     0.040 C 
HETATM   11  C   UNK N   1      33.327  15.334   5.823  0.00  0.00     0.040 C 
ENDBRANCH   8   9
ENDBRANCH   1   8
TORSDOF 4
ENDMDL
MODEL 5
REMARK VINA RESULT:      -3.8     15.329     16.462
REMARK  4 active torsions:
REMARK  status: ('A' for Active; 'I' for Inactive)
REMARK    1  A    between atoms: P_1  and  O_3 
REMARK    2  A    between atoms: P_1  and  O_7 
REMARK    3  A    between atoms: O_3  and  C_4 
REMARK    4  A    between atoms: O_7  and  C_8 
ROOT
HETATM    1  P   UNK N   1      26.611  24.532  -4.392  0.00  0.00     0.325 P 
HETATM    2  O   UNK N   1      26.610  24.109  -2.896  0.00  0.00    -0.259 OA
HETATM    3  C   UNK N   1      28.331  24.899  -3.774  0.00  0.00     0.149 C 
ENDROOT
BRANCH   1   4
HETATM    4  O   UNK N   1      26.897  26.249  -4.504  0.00  0.00    -0.310 OA
BRANCH   4   5
HETATM    5  C   UNK N   1      25.640  26.857  -4.402  0.00  0.00     0.123 C 
HETATM    6  C   UNK N   1      24.980  26.916  -5.764  0.00  0.00     0.040 C 
HETATM    7  C   UNK N   1      25.799  28.262  -3.853  0.00  0.00     0.040 C 
ENDBRANCH   4   5
ENDBRANCH   1   4
BRANCH   1   8
HETATM    8  O   UNK N   1      27.784  23.576  -5.253  0.00  0.00    -0.310 OA
BRANCH   8   9
HETATM    9  C   UNK N   1      27.232  23.357  -6.518  0.00  0.00     0.123 C 
HETATM   10  C   UNK N   1      25.752  23.062  -6.384  0.00  0.00     0.040 C 
HETATM   11  C   UNK N   1      27.928  22.188  -7.185  0.00  0.00     0.040 C 
ENDBRANCH   8   9
ENDBRANCH   1   8
TORSDOF 4
ENDMDL
MODEL 6
REMARK VINA RESULT:      -3.7      6.264      7.633
REMARK  4 active torsions:
REMARK  status: ('A' for Active; 'I' for Inactive)
REMARK    1  A    between atoms: P_1  and  O_3 
REMARK    2  A    between atoms: P_1  and  O_7 
REMARK    3  A    between atoms: O_3  and  C_4 
REMARK    4  A    between atoms: O_7  and  C_8 
ROOT
HETATM    1  P   UNK N   1      36.155  13.944  13.195  0.00  0.00     0.325 P 
HETATM    2  O   UNK N   1      37.020  12.727  12.761  0.00  0.00    -0.259 OA
HETATM    3  C   UNK N   1      34.935  12.628  12.691  0.00  0.00     0.149 C 
ENDROOT
BRANCH   1   4
HETATM    4  O   UNK N   1      35.240  14.517  11.825  0.00  0.00    -0.310 OA
BRANCH   4   5
HETATM    5  C   UNK N   1      36.093  15.376  11.122  0.00  0.00     0.123 C 
HETATM    6  C   UNK N   1      35.353  16.640  10.736  0.00  0.00     0.040 C 
HETATM    7  C   UNK N   1      36.597  14.680   9.873  0.00  0.00     0.040 C 
ENDBRANCH   4   5
ENDBRANCH   1   4
BRANCH   1   8
HETATM    8  O   UNK N   1      35.162  13.485  14.549  0.00  0.00    -0.310 OA
BRANCH   8   9
HETATM    9  C   UNK N   1      36.038  13.357  15.630  0.00  0.00     0.123 C 
HETATM   10  C   UNK N   1      35.248  13.302  16.922  0.00  0.00     0.040 C 
HETATM   11  C   UNK N   1      36.988  14.538  15.662  0.00  0.00     0.040 C 
ENDBRANCH   8   9
ENDBRANCH   1   8
TORSDOF 4
ENDMDL
MODEL 7
REMARK VINA RESULT:      -3.6      2.121      3.036
REMARK  4 active torsions:
REMARK  status: ('A' for Active; 'I' for Inactive)
REMARK    1  A    between atoms: P_1  and  O_3 
REMARK    2  A    between atoms: P_1  and  O_7 
REMARK    3  A    between atoms: O_3  and  C_4 
REMARK    4  A    between atoms: O_7  and  C_8 
ROOT
HETATM    1  P   UNK N   1      33.771  17.186   8.161  0.00  0.00     0.325 P 
HETATM    2  O   UNK N   1      32.668  18.272   8.309  0.00  0.00    -0.259 OA
HETATM    3  C   UNK N   1      34.685  18.810   8.242  0.00  0.00     0.149 C 
ENDROOT
BRANCH   1   4
HETATM    4  O   UNK N   1      34.621  17.431   6.657  0.00  0.00    -0.310 OA
BRANCH   4   5
HETATM    5  C   UNK N   1      33.974  16.627   5.712  0.00  0.00     0.123 C 
HETATM    6  C   UNK N   1      33.033  17.467   4.874  0.00  0.00     0.040 C 
HETATM    7  C   UNK N   1      33.190  15.540   6.423  0.00  0.00     0.040 C 
ENDBRANCH   4   5
ENDBRANCH   1   4
BRANCH   1   8
HETATM    8  O   UNK N   1      34.808  17.232   9.559  0.00  0.00    -0.310 OA
BRANCH   8   9
HETATM    9  C   UNK N   1      34.809  15.931  10.068  0.00  0.00     0.123 C 
HETATM   10  C   UNK N   1      35.454  15.921  11.439  0.00  0.00     0.040 C 
HETATM   11  C   UNK N   1      35.577  15.017   9.135  0.00  0.00     0.040 C 
ENDBRANCH   8   9
ENDBRANCH   1   8
TORSDOF 4
ENDMDL
MODEL 8
REMARK VINA RESULT:      -3.6      4.855      6.405
REMARK  4 active torsions:
REMARK  status: ('A' for Active; 'I' for Inactive)
REMARK    1  A    between atoms: P_1  and  O_3 
REMARK    2  A    between atoms: P_1  and  O_7 
REMARK    3  A    between atoms: O_3  and  C_4 
REMARK    4  A    between atoms: O_7  and  C_8 
ROOT
HETATM    1  P   UNK N   1      27.831  18.556   6.184  0.00  0.00     0.325 P 
HETATM    2  O   UNK N   1      27.099  17.295   5.642  0.00  0.00    -0.259 OA
HETATM    3  C   UNK N   1      29.065  17.709   5.072  0.00  0.00     0.149 C 
ENDROOT
BRANCH   1   4
HETATM    4  O   UNK N   1      29.204  18.058   7.139  0.00  0.00    -0.310 OA
BRANCH   4   5
HETATM    5  C   UNK N   1      29.012  18.613   8.409  0.00  0.00     0.123 C 
HETATM    6  C   UNK N   1      30.335  18.702   9.142  0.00  0.00     0.040 C 
HETATM    7  C   UNK N   1      28.049  17.748   9.200  0.00  0.00     0.040 C 
ENDBRANCH   4   5
ENDBRANCH   1   4
BRANCH   1   8
HETATM    8  O   UNK N   1      28.255  19.588   4.847  0.00  0.00    -0.310 OA
BRANCH   8   9
HETATM    9  C   UNK N   1      27.349  20.650   4.892  0.00  0.00     0.123 C 
HETATM   10  C   UNK N   1      26.884  20.863   6.319  0.00  0.00     0.040 C 
HETATM   11  C   UNK N   1      26.158  20.346   4.007  0.00  0.00     0.040 C 
ENDBRANCH   8   9
ENDBRANCH   1   8
TORSDOF 4
ENDMDL
MODEL 9
REMARK VINA RESULT:      -3.6      1.823      2.954
REMARK  4 active torsions:
REMARK  status: ('A' for Active; 'I' for Inactive)
REMARK    1  A    between atoms: P_1  and  O_3 
REMARK    2  A    between atoms: P_1  and  O_7 
REMARK    3  A    between atoms: O_3  and  C_4 
REMARK    4  A    between atoms: O_7  and  C_8 
ROOT
HETATM    1  P   UNK N   1      33.977  16.525   6.348  0.00  0.00     0.325 P 
HETATM    2  O   UNK N   1      35.296  15.848   5.879  0.00  0.00    -0.259 OA
HETATM    3  C   UNK N   1      33.690  14.694   6.547  0.00  0.00     0.149 C 
ENDROOT
BRANCH   1   4
HETATM    4  O   UNK N   1      32.675  16.040   5.293  0.00  0.00    -0.310 OA
BRANCH   4   5
HETATM    5  C   UNK N   1      32.324  17.181   4.564  0.00  0.00     0.123 C 
HETATM    6  C   UNK N   1      30.853  17.489   4.758  0.00  0.00     0.040 C 
HETATM    7  C   UNK N   1      32.604  16.948   3.091  0.00  0.00     0.040 C 
ENDBRANCH   4   5
ENDBRANCH   1   4
BRANCH   1   8
HETATM    8  O   UNK N   1      33.698  16.131   8.021  0.00  0.00    -0.310 OA
BRANCH   8   9
HETATM    9  C   UNK N   1      33.460  17.352   8.658  0.00  0.00     0.123 C 
HETATM   10  C   UNK N   1      32.034  17.794   8.397  0.00  0.00     0.040 C 
HETATM   11  C   UNK N   1      34.423  18.398   8.137  0.00  0.00     0.040 C 
ENDBRANCH   8   9
ENDBRANCH   1   8
TORSDOF 4
ENDMDL
