MODEL 1
REMARK VINA RESULT:      -6.1      0.000      0.000
REMARK  3 active torsions:
REMARK  status: ('A' for Active; 'I' for Inactive)
REMARK    1  A    between atoms: O_1  and  C_2 
REMARK    2  A    between atoms: C_2  and  C_4 
REMARK    3  A    between atoms: C_15  and  O_16 
ROOT
HETATM    1  C   UNK N   1      33.911  16.925   8.997  0.00  0.00     0.109 A 
HETATM    2  N   UNK N   1      32.562  16.862   9.137  0.00  0.00    -0.350 N 
ATOM      3  HN  UNK N   1      32.168  16.700  10.063  1.00  0.00     0.166 HD
HETATM    4  C   UNK N   1      31.722  17.009   8.084  0.00  0.00     0.049 A 
HETATM    5  C   UNK N   1      30.350  16.937   8.308  0.00  0.00     0.054 A 
HETATM    6  C   UNK N   1      29.457  17.087   7.255  0.00  0.00     0.037 A 
HETATM    7 Cl   UNK N   1      27.739  16.976   7.564  0.00  0.00    -0.084 Cl
HETATM    8  C   UNK N   1      29.930  17.317   5.964  0.00  0.00     0.048 A 
HETATM    9  C   UNK N   1      31.305  17.394   5.707  0.00  0.00     0.051 A 
HETATM   10 Cl   UNK N   1      31.788  17.696   4.041  0.00  0.00    -0.083 Cl
HETATM   11  C   UNK N   1      32.230  17.234   6.778  0.00  0.00     0.046 A 
HETATM   12  C   UNK N   1      33.639  17.288   6.619  0.00  0.00     0.082 A 
HETATM   13  C   UNK N   1      34.468  17.136   7.734  0.00  0.00     0.074 A 
ENDROOT
BRANCH   1  14
HETATM   14  C   UNK N   1      34.764  16.779  10.187  0.00  0.00     0.193 C 
HETATM   15  O   UNK N   1      35.728  17.510  10.340  0.00  0.00    -0.645 OA
BRANCH  14  16
HETATM   16  O   UNK N   1      34.494  15.832  11.107  0.00  0.00    -0.772 OA
HETATM   17  H   UNK N   1      33.644  15.438  11.139  0.00  0.00     0.167 HD
ENDBRANCH  14  16
ENDBRANCH   1  14
BRANCH  12  18
HETATM   18  O   UNK N   1      34.210  17.482   5.418  0.00  0.00    -0.360 OA
HETATM   19  H   UNK N   1      34.655  18.286   5.233  0.00  0.00     0.217 HD
ENDBRANCH  12  18
TORSDOF 3
ENDMDL
MODEL 2
REMARK VINA RESULT:      -6.0     12.775     13.993
REMARK  3 active torsions:
REMARK  status: ('A' for Active; 'I' for Inactive)
REMARK    1  A    between atoms: O_1  and  C_2 
REMARK    2  A    between atoms: C_2  and  C_4 
REMARK    3  A    between atoms: C_15  and  O_16 
ROOT
HETATM    1  C   UNK N   1      20.672  19.312   1.842  0.00  0.00     0.109 A 
HETATM    2  N   UNK N   1      20.292  18.256   1.078  0.00  0.00    -0.350 N 
ATOM      3  HN  UNK N   1      20.159  18.393   0.077  1.00  0.00     0.166 HD
HETATM    4  C   UNK N   1      20.084  17.025   1.604  0.00  0.00     0.049 A 
HETATM    5  C   UNK N   1      19.701  15.991   0.755  0.00  0.00     0.054 A 
HETATM    6  C   UNK N   1      19.482  14.714   1.255  0.00  0.00     0.037 A 
HETATM    7 Cl   UNK N   1      18.986  13.438   0.167  0.00  0.00    -0.084 Cl
HETATM    8  C   UNK N   1      19.653  14.458   2.615  0.00  0.00     0.048 A 
HETATM    9  C   UNK N   1      20.038  15.478   3.494  0.00  0.00     0.051 A 
HETATM   10 Cl   UNK N   1      20.231  15.037   5.188  0.00  0.00    -0.083 Cl
HETATM   11  C   UNK N   1      20.257  16.792   2.993  0.00  0.00     0.046 A 
HETATM   12  C   UNK N   1      20.641  17.892   3.804  0.00  0.00     0.082 A 
HETATM   13  C   UNK N   1      20.849  19.144   3.217  0.00  0.00     0.074 A 
ENDROOT
BRANCH   1  14
HETATM   14  C   UNK N   1      20.902  20.616   1.202  0.00  0.00     0.193 C 
HETATM   15  O   UNK N   1      21.061  20.683  -0.006  0.00  0.00    -0.645 OA
BRANCH  14  16
HETATM   16  O   UNK N   1      20.950  21.741   1.942  0.00  0.00    -0.772 OA
HETATM   17  H   UNK N   1      20.184  22.271   2.040  0.00  0.00     0.167 HD
ENDBRANCH  14  16
ENDBRANCH   1  14
BRANCH  12  18
HETATM   18  O   UNK N   1      20.813  17.770   5.131  0.00  0.00    -0.360 OA
HETATM   19  H   UNK N   1      20.374  17.088   5.601  0.00  0.00     0.217 HD
ENDBRANCH  12  18
TORSDOF 3
ENDMDL
MODEL 3
REMARK VINA RESULT:      -6.0      3.263      4.779
REMARK  3 active torsions:
REMARK  status: ('A' for Active; 'I' for Inactive)
REMARK    1  A    between atoms: O_1  and  C_2 
REMARK    2  A    between atoms: C_2  and  C_4 
REMARK    3  A    between atoms: C_15  and  O_16 
ROOT
HETATM    1  C   UNK N   1      29.389  17.604   8.323  0.00  0.00     0.109 A 
HETATM    2  N   UNK N   1      29.491  17.552   6.970  0.00  0.00    -0.350 N 
ATOM      3  HN  UNK N   1      28.648  17.656   6.406  1.00  0.00     0.166 HD
HETATM    4  C   UNK N   1      30.679  17.366   6.344  0.00  0.00     0.049 A 
HETATM    5  C   UNK N   1      30.703  17.330   4.953  0.00  0.00     0.054 A 
HETATM    6  C   UNK N   1      31.901  17.147   4.276  0.00  0.00     0.037 A 
HETATM    7 Cl   UNK N   1      31.900  17.089   2.528  0.00  0.00    -0.084 Cl
HETATM    8  C   UNK N   1      33.092  17.003   4.987  0.00  0.00     0.048 A 
HETATM    9  C   UNK N   1      33.099  17.035   6.388  0.00  0.00     0.051 A 
HETATM   10 Cl   UNK N   1      34.660  16.852   7.180  0.00  0.00    -0.083 Cl
HETATM   11  C   UNK N   1      31.875  17.215   7.093  0.00  0.00     0.046 A 
HETATM   12  C   UNK N   1      31.777  17.254   8.508  0.00  0.00     0.082 A 
HETATM   13  C   UNK N   1      30.532  17.452   9.110  0.00  0.00     0.074 A 
ENDROOT
BRANCH   1  14
HETATM   14  C   UNK N   1      28.070  17.830   8.935  0.00  0.00     0.193 C 
HETATM   15  O   UNK N   1      27.560  16.961   9.623  0.00  0.00    -0.645 OA
BRANCH  14  16
HETATM   16  O   UNK N   1      27.413  18.988   8.731  0.00  0.00    -0.772 OA
HETATM   17  H   UNK N   1      27.782  19.795   9.031  0.00  0.00     0.167 HD
ENDBRANCH  14  16
ENDBRANCH   1  14
BRANCH  12  18
HETATM   18  O   UNK N   1      32.854  17.104   9.297  0.00  0.00    -0.360 OA
HETATM   19  H   UNK N   1      33.281  17.856   9.658  0.00  0.00     0.217 HD
ENDBRANCH  12  18
TORSDOF 3
ENDMDL
MODEL 4
REMARK VINA RESULT:      -5.9      2.866      4.122
REMARK  3 active torsions:
REMARK  status: ('A' for Active; 'I' for Inactive)
REMARK    1  A    between atoms: O_1  and  C_2 
REMARK    2  A    between atoms: C_2  and  C_4 
REMARK    3  A    between atoms: C_15  and  O_16 
ROOT
HETATM    1  C   UNK N   1      34.951  14.389  11.625  0.00  0.00     0.109 A 
HETATM    2  N   UNK N   1      34.065  14.024  10.663  0.00  0.00    -0.350 N 
ATOM      3  HN  UNK N   1      33.627  13.105  10.718  1.00  0.00     0.166 HD
HETATM    4  C   UNK N   1      33.744  14.843   9.632  0.00  0.00     0.049 A 
HETATM    5  C   UNK N   1      32.822  14.399   8.688  0.00  0.00     0.054 A 
HETATM    6  C   UNK N   1      32.463  15.211   7.620  0.00  0.00     0.037 A 
HETATM    7 Cl   UNK N   1      31.315  14.621   6.441  0.00  0.00    -0.084 Cl
HETATM    8  C   UNK N   1      33.022  16.481   7.490  0.00  0.00     0.048 A 
HETATM    9  C   UNK N   1      33.952  16.955   8.424  0.00  0.00     0.051 A 
HETATM   10 Cl   UNK N   1      34.585  18.578   8.164  0.00  0.00    -0.083 Cl
HETATM   11  C   UNK N   1      34.333  16.129   9.519  0.00  0.00     0.046 A 
HETATM   12  C   UNK N   1      35.271  16.515  10.511  0.00  0.00     0.082 A 
HETATM   13  C   UNK N   1      35.569  15.639  11.559  0.00  0.00     0.074 A 
ENDROOT
BRANCH   1  14
HETATM   14  C   UNK N   1      35.237  13.458  12.728  0.00  0.00     0.193 C 
HETATM   15  O   UNK N   1      36.337  13.457  13.255  0.00  0.00    -0.645 OA
BRANCH  14  16
HETATM   16  O   UNK N   1      34.294  12.596  13.154  0.00  0.00    -0.772 OA
HETATM   17  H   UNK N   1      34.387  11.678  12.986  0.00  0.00     0.167 HD
ENDBRANCH  14  16
ENDBRANCH   1  14
BRANCH  12  18
HETATM   18  O   UNK N   1      35.890  17.707  10.476  0.00  0.00    -0.360 OA
HETATM   19  H   UNK N   1      35.428  18.469  10.187  0.00  0.00     0.217 HD
ENDBRANCH  12  18
TORSDOF 3
ENDMDL
MODEL 5
REMARK VINA RESULT:      -5.6      4.418      6.222
REMARK  3 active torsions:
REMARK  status: ('A' for Active; 'I' for Inactive)
REMARK    1  A    between atoms: O_1  and  C_2 
REMARK    2  A    between atoms: C_2  and  C_4 
REMARK    3  A    between atoms: C_15  and  O_16 
ROOT
HETATM    1  C   UNK N   1      34.704  16.956   8.924  0.00  0.00     0.109 A 
HETATM    2  N   UNK N   1      35.218  16.881  10.178  0.00  0.00    -0.350 N 
ATOM      3  HN  UNK N   1      35.546  17.734  10.629  1.00  0.00     0.166 HD
HETATM    4  C   UNK N   1      35.309  15.708  10.849  0.00  0.00     0.049 A 
HETATM    5  C   UNK N   1      35.843  15.713  12.134  0.00  0.00     0.054 A 
HETATM    6  C   UNK N   1      35.949  14.531  12.856  0.00  0.00     0.037 A 
HETATM    7 Cl   UNK N   1      36.639  14.565  14.463  0.00  0.00    -0.084 Cl
HETATM    8  C   UNK N   1      35.513  13.330  12.299  0.00  0.00     0.048 A 
HETATM    9  C   UNK N   1      34.972  13.293  11.007  0.00  0.00     0.051 A 
HETATM   10 Cl   UNK N   1      34.447  11.723  10.408  0.00  0.00    -0.083 Cl
HETATM   11  C   UNK N   1      34.866  14.498  10.255  0.00  0.00     0.046 A 
HETATM   12  C   UNK N   1      34.339  14.563   8.939  0.00  0.00     0.082 A 
HETATM   13  C   UNK N   1      34.260  15.796   8.286  0.00  0.00     0.074 A 
ENDROOT
BRANCH   1  14
HETATM   14  C   UNK N   1      34.615  18.267   8.261  0.00  0.00     0.193 C 
HETATM   15  O   UNK N   1      35.334  19.183   8.623  0.00  0.00    -0.645 OA
BRANCH  14  16
HETATM   16  O   UNK N   1      33.733  18.468   7.263  0.00  0.00    -0.772 OA
HETATM   17  H   UNK N   1      33.640  19.321   6.884  0.00  0.00     0.167 HD
ENDBRANCH  14  16
ENDBRANCH   1  14
BRANCH  12  18
HETATM   18  O   UNK N   1      33.910  13.466   8.292  0.00  0.00    -0.360 OA
HETATM   19  H   UNK N   1      33.419  12.812   8.749  0.00  0.00     0.217 HD
ENDBRANCH  12  18
TORSDOF 3
ENDMDL
MODEL 6
REMARK VINA RESULT:      -5.6     12.965     14.786
REMARK  3 active torsions:
REMARK  status: ('A' for Active; 'I' for Inactive)
REMARK    1  A    between atoms: O_1  and  C_2 
REMARK    2  A    between atoms: C_2  and  C_4 
REMARK    3  A    between atoms: C_15  and  O_16 
ROOT
HETATM    1  C   UNK N   1      29.787  22.838  -3.588  0.00  0.00     0.109 A 
HETATM    2  N   UNK N   1      28.789  23.759  -3.596  0.00  0.00    -0.350 N 
ATOM      3  HN  UNK N   1      28.621  24.313  -2.757  1.00  0.00     0.166 HD
HETATM    4  C   UNK N   1      28.009  23.965  -4.685  0.00  0.00     0.049 A 
HETATM    5  C   UNK N   1      27.009  24.931  -4.617  0.00  0.00     0.054 A 
HETATM    6  C   UNK N   1      26.192  25.175  -5.713  0.00  0.00     0.037 A 
HETATM    7 Cl   UNK N   1      24.933  26.384  -5.594  0.00  0.00    -0.084 Cl
HETATM    8  C   UNK N   1      26.373  24.456  -6.894  0.00  0.00     0.048 A 
HETATM    9  C   UNK N   1      27.371  23.477  -6.992  0.00  0.00     0.051 A 
HETATM   10 Cl   UNK N   1      27.513  22.638  -8.533  0.00  0.00    -0.083 Cl
HETATM   11  C   UNK N   1      28.209  23.214  -5.872  0.00  0.00     0.046 A 
HETATM   12  C   UNK N   1      29.240  22.239  -5.870  0.00  0.00     0.082 A 
HETATM   13  C   UNK N   1      30.024  22.063  -4.726  0.00  0.00     0.074 A 
ENDROOT
BRANCH   1  14
HETATM   14  C   UNK N   1      30.610  22.682  -2.379  0.00  0.00     0.193 C 
HETATM   15  O   UNK N   1      30.214  23.119  -1.311  0.00  0.00    -0.645 OA
BRANCH  14  16
HETATM   16  O   UNK N   1      31.807  22.068  -2.443  0.00  0.00    -0.772 OA
HETATM   17  H   UNK N   1      32.464  22.251  -1.800  0.00  0.00     0.167 HD
ENDBRANCH  14  16
ENDBRANCH   1  14
BRANCH  12  18
HETATM   18  O   UNK N   1      29.492  21.470  -6.943  0.00  0.00    -0.360 OA
HETATM   19  H   UNK N   1      29.801  21.859  -7.738  0.00  0.00     0.217 HD
ENDBRANCH  12  18
TORSDOF 3
ENDMDL
MODEL 7
REMARK VINA RESULT:      -5.6      3.538      4.841
REMARK  3 active torsions:
REMARK  status: ('A' for Active; 'I' for Inactive)
REMARK    1  A    between atoms: O_1  and  C_2 
REMARK    2  A    between atoms: C_2  and  C_4 
REMARK    3  A    between atoms: C_15  and  O_16 
ROOT
HETATM    1  C   UNK N   1      29.133  17.613   7.845  0.00  0.00     0.109 A 
HETATM    2  N   UNK N   1      30.337  17.113   8.222  0.00  0.00    -0.350 N 
ATOM      3  HN  UNK N   1      30.500  16.909   9.208  1.00  0.00     0.166 HD
HETATM    4  C   UNK N   1      31.330  16.876   7.331  0.00  0.00     0.049 A 
HETATM    5  C   UNK N   1      32.535  16.358   7.794  0.00  0.00     0.054 A 
HETATM    6  C   UNK N   1      33.574  16.097   6.911  0.00  0.00     0.037 A 
HETATM    7 Cl   UNK N   1      35.084  15.460   7.524  0.00  0.00    -0.084 Cl
HETATM    8  C   UNK N   1      33.414  16.349   5.549  0.00  0.00     0.048 A 
HETATM    9  C   UNK N   1      32.213  16.871   5.053  0.00  0.00     0.051 A 
HETATM   10 Cl   UNK N   1      32.120  17.141   3.315  0.00  0.00    -0.083 Cl
HETATM   11  C   UNK N   1      31.143  17.149   5.951  0.00  0.00     0.046 A 
HETATM   12  C   UNK N   1      29.893  17.685   5.547  0.00  0.00     0.082 A 
HETATM   13  C   UNK N   1      28.896  17.909   6.501  0.00  0.00     0.074 A 
ENDROOT
BRANCH   1  14
HETATM   14  C   UNK N   1      28.092  17.826   8.863  0.00  0.00     0.193 C 
HETATM   15  O   UNK N   1      27.857  16.956   9.685  0.00  0.00    -0.645 OA
BRANCH  14  16
HETATM   16  O   UNK N   1      27.385  18.972   8.887  0.00  0.00    -0.772 OA
HETATM   17  H   UNK N   1      26.491  18.966   9.167  0.00  0.00     0.167 HD
ENDBRANCH  14  16
ENDBRANCH   1  14
BRANCH  12  18
HETATM   18  O   UNK N   1      29.632  17.988   4.264  0.00  0.00    -0.360 OA
HETATM   19  H   UNK N   1      30.078  17.538   3.574  0.00  0.00     0.217 HD
ENDBRANCH  12  18
TORSDOF 3
ENDMDL
MODEL 8
REMARK VINA RESULT:      -5.4      7.307      9.509
REMARK  3 active torsions:
REMARK  status: ('A' for Active; 'I' for Inactive)
REMARK    1  A    between atoms: O_1  and  C_2 
REMARK    2  A    between atoms: C_2  and  C_4 
REMARK    3  A    between atoms: C_15  and  O_16 
ROOT
HETATM    1  C   UNK N   1      36.299  14.230  12.213  0.00  0.00     0.109 A 
HETATM    2  N   UNK N   1      35.872  14.186  13.500  0.00  0.00    -0.350 N 
ATOM      3  HN  UNK N   1      35.356  14.980  13.878  1.00  0.00     0.166 HD
HETATM    4  C   UNK N   1      36.109  13.119  14.301  0.00  0.00     0.049 A 
HETATM    5  C   UNK N   1      35.634  13.146  15.609  0.00  0.00     0.054 A 
HETATM    6  C   UNK N   1      35.853  12.069  16.459  0.00  0.00     0.037 A 
HETATM    7 Cl   UNK N   1      35.259  12.138  18.103  0.00  0.00    -0.084 Cl
HETATM    8  C   UNK N   1      36.547  10.949  16.003  0.00  0.00     0.048 A 
HETATM    9  C   UNK N   1      37.038  10.893  14.692  0.00  0.00     0.051 A 
HETATM   10 Cl   UNK N   1      37.891   9.426  14.224  0.00  0.00    -0.083 Cl
HETATM   11  C   UNK N   1      36.825  11.994  13.815  0.00  0.00     0.046 A 
HETATM   12  C   UNK N   1      37.288  12.035  12.474  0.00  0.00     0.082 A 
HETATM   13  C   UNK N   1      37.016  13.155  11.683  0.00  0.00     0.074 A 
ENDROOT
BRANCH   1  14
HETATM   14  C   UNK N   1      35.987  15.412  11.393  0.00  0.00     0.193 C 
HETATM   15  O   UNK N   1      34.826  15.734  11.205  0.00  0.00    -0.645 OA
BRANCH  14  16
HETATM   16  O   UNK N   1      36.978  16.135  10.835  0.00  0.00    -0.772 OA
HETATM   17  H   UNK N   1      37.562  15.735  10.221  0.00  0.00     0.167 HD
ENDBRANCH  14  16
ENDBRANCH   1  14
BRANCH  12  18
HETATM   18  O   UNK N   1      37.987  11.024  11.933  0.00  0.00    -0.360 OA
HETATM   19  H   UNK N   1      38.886  11.147  11.696  0.00  0.00     0.217 HD
ENDBRANCH  12  18
TORSDOF 3
ENDMDL
MODEL 9
REMARK VINA RESULT:      -5.4     12.689     14.555
REMARK  3 active torsions:
REMARK  status: ('A' for Active; 'I' for Inactive)
REMARK    1  A    between atoms: O_1  and  C_2 
REMARK    2  A    between atoms: C_2  and  C_4 
REMARK    3  A    between atoms: C_15  and  O_16 
ROOT
HETATM    1  C   UNK N   1      30.553  21.965  -3.882  0.00  0.00     0.109 A 
HETATM    2  N   UNK N   1      29.557  22.808  -4.257  0.00  0.00    -0.350 N 
ATOM      3  HN  UNK N   1      29.279  23.557  -3.624  1.00  0.00     0.166 HD
HETATM    4  C   UNK N   1      28.921  22.687  -5.448  0.00  0.00     0.049 A 
HETATM    5  C   UNK N   1      27.914  23.593  -5.763  0.00  0.00     0.054 A 
HETATM    6  C   UNK N   1      27.242  23.504  -6.975  0.00  0.00     0.037 A 
HETATM    7 Cl   UNK N   1      25.969  24.648  -7.338  0.00  0.00    -0.084 Cl
HETATM    8  C   UNK N   1      27.579  22.507  -7.889  0.00  0.00     0.048 A 
HETATM    9  C   UNK N   1      28.588  21.579  -7.600  0.00  0.00     0.051 A 
HETATM   10 Cl   UNK N   1      28.934  20.369  -8.831  0.00  0.00    -0.083 Cl
HETATM   11  C   UNK N   1      29.278  21.657  -6.357  0.00  0.00     0.046 A 
HETATM   12  C   UNK N   1      30.308  20.762  -5.969  0.00  0.00     0.082 A 
HETATM   13  C   UNK N   1      30.940  20.928  -4.733  0.00  0.00     0.074 A 
ENDROOT
BRANCH   1  14
HETATM   14  C   UNK N   1      31.215  22.169  -2.584  0.00  0.00     0.193 C 
HETATM   15  O   UNK N   1      30.813  23.033  -1.823  0.00  0.00    -0.645 OA
BRANCH  14  16
HETATM   16  O   UNK N   1      32.274  21.413  -2.233  0.00  0.00    -0.772 OA
HETATM   17  H   UNK N   1      32.891  21.734  -1.604  0.00  0.00     0.167 HD
ENDBRANCH  14  16
ENDBRANCH   1  14
BRANCH  12  18
HETATM   18  O   UNK N   1      30.701  19.747  -6.758  0.00  0.00    -0.360 OA
HETATM   19  H   UNK N   1      31.107  19.924  -7.584  0.00  0.00     0.217 HD
ENDBRANCH  12  18
TORSDOF 3
ENDMDL
