REMARK  3 active torsions:
REMARK  status: ('A' for Active; 'I' for Inactive)
REMARK    1  A    between atoms: O_1  and  C_2 
REMARK    2  A    between atoms: C_2  and  C_4 
REMARK    3  A    between atoms: C_15  and  O_16 
ROOT
HETATM    1  C   UNK N   1      -1.786   0.770   0.016  0.00  0.00     0.109 A 
HETATM    2  N   UNK N   1      -0.585   1.401   0.060  0.00  0.00    -0.350 N 
ATOM      3  HN  UNK N   1      -0.563   2.419   0.114  1.00  0.00     0.166 HD
HETATM    4  C   UNK N   1       0.587   0.721   0.035  0.00  0.00     0.049 A 
HETATM    5  C   UNK N   1       1.778   1.439   0.089  0.00  0.00     0.054 A 
HETATM    6  C   UNK N   1       2.999   0.778   0.070  0.00  0.00     0.037 A 
HETATM    7 Cl   UNK N   1       4.480   1.707   0.123  0.00  0.00    -0.084 Cl
HETATM    8  C   UNK N   1       3.039  -0.614   0.003  0.00  0.00     0.048 A 
HETATM    9  C   UNK N   1       1.857  -1.364  -0.053  0.00  0.00     0.051 A 
HETATM   10 Cl   UNK N   1       2.028  -3.115  -0.127  0.00  0.00    -0.083 Cl
HETATM   11  C   UNK N   1       0.600  -0.696  -0.042  0.00  0.00     0.046 A 
HETATM   12  C   UNK N   1      -0.650  -1.365  -0.102  0.00  0.00     0.082 A 
HETATM   13  C   UNK N   1      -1.834  -0.623  -0.069  0.00  0.00     0.074 A 
ENDROOT
BRANCH   1  14
HETATM   14  C   UNK N   1      -3.020   1.570   0.069  0.00  0.00     0.193 C 
HETATM   15  O   UNK N   1      -2.956   2.787   0.113  0.00  0.00    -0.645 OA
BRANCH  14  16
HETATM   16  O   UNK N   1      -4.224   0.966   0.082  0.00  0.00    -0.772 OA
HETATM   17  H   UNK N   1      -5.007   1.481   0.090  0.00  0.00     0.167 HD
ENDBRANCH  14  16
ENDBRANCH   1  14
BRANCH  12  18
HETATM   18  O   UNK N   1      -0.735  -2.703  -0.192  0.00  0.00    -0.360 OA
HETATM   19  H   UNK N   1      -1.573  -3.118  -0.255  0.00  0.00     0.217 HD
ENDBRANCH  12  18
TORSDOF 3
