MODEL 1
REMARK VINA RESULT:      -5.3      0.000      0.000
REMARK  8 active torsions:
REMARK  status: ('A' for Active; 'I' for Inactive)
REMARK    1  A    between atoms: C_1  and  O_2 
REMARK    2  A    between atoms: C_1  and  C_3 
REMARK    3  A    between atoms: P_7  and  O_2 
REMARK    4  A    between atoms: P_7  and  O_9 
REMARK    5  A    between atoms: P_7  and  O_10 
REMARK    6  A    between atoms: O_10  and  P_11 
REMARK    7  A    between atoms: P_11  and  O_13 
REMARK    8  A    between atoms: P_11  and  O_14 
ROOT
HETATM    1  P   UNK N   1      20.735  14.390   8.773  0.00  0.00     0.402 P 
HETATM    2  O   UNK N   1      19.495  14.299   9.700  0.00  0.00    -0.631 OA
ENDROOT
BRANCH   1   3
HETATM    3  O   UNK N   1      20.708  12.697   9.166  0.00  0.00    -0.293 OA
BRANCH   3   4
HETATM    4  C   UNK N   1      22.021  12.369   9.518  0.00  0.00     0.208 C 
BRANCH   4   5
HETATM    5  C   UNK N   1      22.115  12.189  11.003  0.00  0.00     0.002 C 
HETATM    6  C   UNK N   1      23.274  12.070  11.663  0.00  0.00    -0.089 C 
HETATM    7  C   UNK N   1      23.251  11.874  13.139  0.00  0.00     0.042 C 
HETATM    8  C   UNK N   1      24.594  12.139  10.966  0.00  0.00     0.042 C 
ENDBRANCH   4   5
ENDBRANCH   3   4
ENDBRANCH   1   3
BRANCH   1   9
HETATM    9  O   UNK N   1      20.456  13.436   7.349  0.00  0.00    -0.307 OA
HETATM   10  H   UNK N   1      20.589  13.697   6.425  0.00  0.00     0.222 HD
ENDBRANCH   1   9
BRANCH   1  11
HETATM   11  O   UNK N   1      19.501  15.105   7.772  0.00  0.00    -0.195 OA
BRANCH  11  12
HETATM   12  P   UNK N   1      19.990  16.762   7.543  0.00  0.00     0.399 P 
HETATM   13  O   UNK N   1      20.211  17.465   8.906  0.00  0.00    -0.631 OA
BRANCH  12  14
HETATM   14  O   UNK N   1      21.299  15.880   8.264  0.00  0.00    -0.307 OA
HETATM   15  H   UNK N   1      22.099  16.156   8.738  0.00  0.00     0.222 HD
ENDBRANCH  12  14
BRANCH  12  16
HETATM   16  O   UNK N   1      18.421  16.748   8.286  0.00  0.00    -0.307 OA
HETATM   17  H   UNK N   1      18.221  17.080   9.175  0.00  0.00     0.222 HD
ENDBRANCH  12  16
ENDBRANCH  11  12
ENDBRANCH   1  11
TORSDOF 8
ENDMDL
MODEL 2
REMARK VINA RESULT:      -5.2     14.151     15.080
REMARK  8 active torsions:
REMARK  status: ('A' for Active; 'I' for Inactive)
REMARK    1  A    between atoms: C_1  and  O_2 
REMARK    2  A    between atoms: C_1  and  C_3 
REMARK    3  A    between atoms: P_7  and  O_2 
REMARK    4  A    between atoms: P_7  and  O_9 
REMARK    5  A    between atoms: P_7  and  O_10 
REMARK    6  A    between atoms: O_10  and  P_11 
REMARK    7  A    between atoms: P_11  and  O_13 
REMARK    8  A    between atoms: P_11  and  O_14 
ROOT
HETATM    1  P   UNK N   1      35.983  13.572  12.469  0.00  0.00     0.402 P 
HETATM    2  O   UNK N   1      36.093  15.020  13.013  0.00  0.00    -0.631 OA
ENDROOT
BRANCH   1   3
HETATM    3  O   UNK N   1      34.890  13.528  13.820  0.00  0.00    -0.293 OA
BRANCH   3   4
HETATM    4  C   UNK N   1      35.499  12.704  14.772  0.00  0.00     0.208 C 
BRANCH   4   5
HETATM    5  C   UNK N   1      35.408  13.345  16.125  0.00  0.00     0.002 C 
HETATM    6  C   UNK N   1      35.269  12.655  17.264  0.00  0.00    -0.089 C 
HETATM    7  C   UNK N   1      35.168  13.395  18.551  0.00  0.00     0.042 C 
HETATM    8  C   UNK N   1      35.224  11.161  17.285  0.00  0.00     0.042 C 
ENDBRANCH   4   5
ENDBRANCH   3   4
ENDBRANCH   1   3
BRANCH   1   9
HETATM    9  O   UNK N   1      34.357  13.285  11.931  0.00  0.00    -0.307 OA
HETATM   10  H   UNK N   1      33.884  13.730  11.212  0.00  0.00     0.222 HD
ENDBRANCH   1   9
BRANCH   1  11
HETATM   11  O   UNK N   1      35.621  14.506  11.043  0.00  0.00    -0.195 OA
BRANCH  11  12
HETATM   12  P   UNK N   1      35.650  16.171  11.557  0.00  0.00     0.399 P 
HETATM   13  O   UNK N   1      35.547  17.125  10.340  0.00  0.00    -0.631 OA
BRANCH  12  14
HETATM   14  O   UNK N   1      34.095  15.816  10.874  0.00  0.00    -0.307 OA
HETATM   15  H   UNK N   1      33.293  16.347  10.746  0.00  0.00     0.222 HD
ENDBRANCH  12  14
BRANCH  12  16
HETATM   16  O   UNK N   1      37.092  15.850  10.645  0.00  0.00    -0.307 OA
HETATM   17  H   UNK N   1      37.151  15.848   9.676  0.00  0.00     0.222 HD
ENDBRANCH  12  16
ENDBRANCH  11  12
ENDBRANCH   1  11
TORSDOF 8
ENDMDL
MODEL 3
REMARK VINA RESULT:      -5.1     14.470     15.509
REMARK  8 active torsions:
REMARK  status: ('A' for Active; 'I' for Inactive)
REMARK    1  A    between atoms: C_1  and  O_2 
REMARK    2  A    between atoms: C_1  and  C_3 
REMARK    3  A    between atoms: P_7  and  O_2 
REMARK    4  A    between atoms: P_7  and  O_9 
REMARK    5  A    between atoms: P_7  and  O_10 
REMARK    6  A    between atoms: O_10  and  P_11 
REMARK    7  A    between atoms: P_11  and  O_13 
REMARK    8  A    between atoms: P_11  and  O_14 
ROOT
HETATM    1  P   UNK N   1      35.600  13.620  12.804  0.00  0.00     0.402 P 
HETATM    2  O   UNK N   1      36.316  12.312  12.378  0.00  0.00    -0.631 OA
ENDROOT
BRANCH   1   3
HETATM    3  O   UNK N   1      36.279  13.080  14.310  0.00  0.00    -0.293 OA
BRANCH   3   4
HETATM    4  C   UNK N   1      35.306  13.343  15.279  0.00  0.00     0.208 C 
BRANCH   4   5
HETATM    5  C   UNK N   1      35.318  12.256  16.313  0.00  0.00     0.002 C 
HETATM    6  C   UNK N   1      35.281  12.488  17.631  0.00  0.00    -0.089 C 
HETATM    7  C   UNK N   1      35.318  11.333  18.571  0.00  0.00     0.042 C 
HETATM    8  C   UNK N   1      35.190  13.871  18.191  0.00  0.00     0.042 C 
ENDBRANCH   4   5
ENDBRANCH   3   4
ENDBRANCH   1   3
BRANCH   1   9
HETATM    9  O   UNK N   1      36.778  14.755  13.384  0.00  0.00    -0.307 OA
HETATM   10  H   UNK N   1      37.162  15.507  12.908  0.00  0.00     0.222 HD
ENDBRANCH   1   9
BRANCH   1  11
HETATM   11  O   UNK N   1      36.615  14.187  11.506  0.00  0.00    -0.195 OA
BRANCH  11  12
HETATM   12  P   UNK N   1      35.591  15.197  10.521  0.00  0.00     0.399 P 
HETATM   13  O   UNK N   1      35.097  16.428  11.322  0.00  0.00    -0.631 OA
BRANCH  12  14
HETATM   14  O   UNK N   1      37.045  16.064  10.901  0.00  0.00    -0.307 OA
HETATM   15  H   UNK N   1      37.526  16.777  10.451  0.00  0.00     0.222 HD
ENDBRANCH  12  14
BRANCH  12  16
HETATM   16  O   UNK N   1      34.630  14.514  11.795  0.00  0.00    -0.307 OA
HETATM   17  H   UNK N   1      33.665  14.408  11.772  0.00  0.00     0.222 HD
ENDBRANCH  12  16
ENDBRANCH  11  12
ENDBRANCH   1  11
TORSDOF 8
ENDMDL
MODEL 4
REMARK VINA RESULT:      -4.7     14.944     16.029
REMARK  8 active torsions:
REMARK  status: ('A' for Active; 'I' for Inactive)
REMARK    1  A    between atoms: C_1  and  O_2 
REMARK    2  A    between atoms: C_1  and  C_3 
REMARK    3  A    between atoms: P_7  and  O_2 
REMARK    4  A    between atoms: P_7  and  O_9 
REMARK    5  A    between atoms: P_7  and  O_10 
REMARK    6  A    between atoms: O_10  and  P_11 
REMARK    7  A    between atoms: P_11  and  O_13 
REMARK    8  A    between atoms: P_11  and  O_14 
ROOT
HETATM    1  P   UNK N   1      36.120  13.216  13.551  0.00  0.00     0.402 P 
HETATM    2  O   UNK N   1      36.554  14.500  14.304  0.00  0.00    -0.631 OA
ENDROOT
BRANCH   1   3
HETATM    3  O   UNK N   1      34.794  13.448  14.650  0.00  0.00    -0.293 OA
BRANCH   3   4
HETATM    4  C   UNK N   1      34.874  12.395  15.568  0.00  0.00     0.208 C 
BRANCH   4   5
HETATM    5  C   UNK N   1      34.887  12.943  16.963  0.00  0.00     0.002 C 
HETATM    6  C   UNK N   1      35.244  12.226  18.037  0.00  0.00    -0.089 C 
HETATM    7  C   UNK N   1      35.200  12.865  19.381  0.00  0.00     0.042 C 
HETATM    8  C   UNK N   1      35.699  10.807  17.927  0.00  0.00     0.042 C 
ENDBRANCH   4   5
ENDBRANCH   3   4
ENDBRANCH   1   3
BRANCH   1   9
HETATM    9  O   UNK N   1      34.651  13.532  12.680  0.00  0.00    -0.307 OA
HETATM   10  H   UNK N   1      34.259  14.394  12.472  0.00  0.00     0.222 HD
ENDBRANCH   1   9
BRANCH   1  11
HETATM   11  O   UNK N   1      36.400  14.315  12.228  0.00  0.00    -0.195 OA
BRANCH  11  12
HETATM   12  P   UNK N   1      36.935  13.321  10.901  0.00  0.00     0.399 P 
HETATM   13  O   UNK N   1      38.476  13.389  10.747  0.00  0.00    -0.631 OA
BRANCH  12  14
HETATM   14  O   UNK N   1      37.537  12.655  12.386  0.00  0.00    -0.307 OA
HETATM   15  H   UNK N   1      38.280  12.893  12.964  0.00  0.00     0.222 HD
ENDBRANCH  12  14
BRANCH  12  16
HETATM   16  O   UNK N   1      37.248  14.982  10.505  0.00  0.00    -0.307 OA
HETATM   17  H   UNK N   1      38.005  15.300   9.989  0.00  0.00     0.222 HD
ENDBRANCH  12  16
ENDBRANCH  11  12
ENDBRANCH   1  11
TORSDOF 8
ENDMDL
MODEL 5
REMARK VINA RESULT:      -4.7     13.612     14.958
REMARK  8 active torsions:
REMARK  status: ('A' for Active; 'I' for Inactive)
REMARK    1  A    between atoms: C_1  and  O_2 
REMARK    2  A    between atoms: C_1  and  C_3 
REMARK    3  A    between atoms: P_7  and  O_2 
REMARK    4  A    between atoms: P_7  and  O_9 
REMARK    5  A    between atoms: P_7  and  O_10 
REMARK    6  A    between atoms: O_10  and  P_11 
REMARK    7  A    between atoms: P_11  and  O_13 
REMARK    8  A    between atoms: P_11  and  O_14 
ROOT
HETATM    1  P   UNK N   1      35.041  15.509  10.948  0.00  0.00     0.402 P 
HETATM    2  O   UNK N   1      35.912  14.268  10.621  0.00  0.00    -0.631 OA
ENDROOT
BRANCH   1   3
HETATM    3  O   UNK N   1      34.333  14.961   9.458  0.00  0.00    -0.293 OA
BRANCH   3   4
HETATM    4  C   UNK N   1      35.229  15.338   8.452  0.00  0.00     0.208 C 
BRANCH   4   5
HETATM    5  C   UNK N   1      34.467  15.829   7.258  0.00  0.00     0.002 C 
HETATM    6  C   UNK N   1      34.109  17.108   7.083  0.00  0.00    -0.089 C 
HETATM    7  C   UNK N   1      33.335  17.483   5.868  0.00  0.00     0.042 C 
HETATM    8  C   UNK N   1      34.474  18.175   8.064  0.00  0.00     0.042 C 
ENDBRANCH   4   5
ENDBRANCH   3   4
ENDBRANCH   1   3
BRANCH   1   9
HETATM    9  O   UNK N   1      33.399  15.006  11.201  0.00  0.00    -0.307 OA
HETATM   10  H   UNK N   1      32.768  14.688  10.538  0.00  0.00     0.222 HD
ENDBRANCH   1   9
BRANCH   1  11
HETATM   11  O   UNK N   1      34.889  14.584  12.416  0.00  0.00    -0.195 OA
BRANCH  11  12
HETATM   12  P   UNK N   1      35.995  13.249  12.243  0.00  0.00     0.399 P 
HETATM   13  O   UNK N   1      36.214  12.534  13.601  0.00  0.00    -0.631 OA
BRANCH  12  14
HETATM   14  O   UNK N   1      34.425  12.634  12.654  0.00  0.00    -0.307 OA
HETATM   15  H   UNK N   1      33.874  11.927  12.281  0.00  0.00     0.222 HD
ENDBRANCH  12  14
BRANCH  12  16
HETATM   16  O   UNK N   1      36.742  14.457  13.240  0.00  0.00    -0.307 OA
HETATM   17  H   UNK N   1      36.269  15.062  13.834  0.00  0.00     0.222 HD
ENDBRANCH  12  16
ENDBRANCH  11  12
ENDBRANCH   1  11
TORSDOF 8
ENDMDL
MODEL 6
REMARK VINA RESULT:      -4.6     13.315     14.254
REMARK  8 active torsions:
REMARK  status: ('A' for Active; 'I' for Inactive)
REMARK    1  A    between atoms: C_1  and  O_2 
REMARK    2  A    between atoms: C_1  and  C_3 
REMARK    3  A    between atoms: P_7  and  O_2 
REMARK    4  A    between atoms: P_7  and  O_9 
REMARK    5  A    between atoms: P_7  and  O_10 
REMARK    6  A    between atoms: O_10  and  P_11 
REMARK    7  A    between atoms: P_11  and  O_13 
REMARK    8  A    between atoms: P_11  and  O_14 
ROOT
HETATM    1  P   UNK N   1      35.067  14.575  11.063  0.00  0.00     0.402 P 
HETATM    2  O   UNK N   1      35.875  15.416  12.085  0.00  0.00    -0.631 OA
ENDROOT
BRANCH   1   3
HETATM    3  O   UNK N   1      34.491  13.944  12.576  0.00  0.00    -0.293 OA
BRANCH   3   4
HETATM    4  C   UNK N   1      35.489  13.075  13.029  0.00  0.00     0.208 C 
BRANCH   4   5
HETATM    5  C   UNK N   1      35.186  12.649  14.434  0.00  0.00     0.002 C 
HETATM    6  C   UNK N   1      35.815  13.142  15.509  0.00  0.00    -0.089 C 
HETATM    7  C   UNK N   1      35.449  12.632  16.859  0.00  0.00     0.042 C 
HETATM    8  C   UNK N   1      36.865  14.199  15.397  0.00  0.00     0.042 C 
ENDBRANCH   4   5
ENDBRANCH   3   4
ENDBRANCH   1   3
BRANCH   1   9
HETATM    9  O   UNK N   1      33.375  14.907  11.258  0.00  0.00    -0.307 OA
HETATM   10  H   UNK N   1      32.915  15.186  12.065  0.00  0.00     0.222 HD
ENDBRANCH   1   9
BRANCH   1  11
HETATM   11  O   UNK N   1      34.686  16.197  10.555  0.00  0.00    -0.195 OA
BRANCH  11  12
HETATM   12  P   UNK N   1      34.752  16.169   8.814  0.00  0.00     0.399 P 
HETATM   13  O   UNK N   1      33.743  15.142   8.241  0.00  0.00    -0.631 OA
BRANCH  12  14
HETATM   14  O   UNK N   1      33.204  16.775   9.312  0.00  0.00    -0.307 OA
HETATM   15  H   UNK N   1      32.684  17.551   9.051  0.00  0.00     0.222 HD
ENDBRANCH  12  14
BRANCH  12  16
HETATM   16  O   UNK N   1      35.319  14.641   9.412  0.00  0.00    -0.307 OA
HETATM   17  H   UNK N   1      36.232  14.318   9.343  0.00  0.00     0.222 HD
ENDBRANCH  12  16
ENDBRANCH  11  12
ENDBRANCH   1  11
TORSDOF 8
ENDMDL
MODEL 7
REMARK VINA RESULT:      -4.6     13.144     14.191
REMARK  8 active torsions:
REMARK  status: ('A' for Active; 'I' for Inactive)
REMARK    1  A    between atoms: C_1  and  O_2 
REMARK    2  A    between atoms: C_1  and  C_3 
REMARK    3  A    between atoms: P_7  and  O_2 
REMARK    4  A    between atoms: P_7  and  O_9 
REMARK    5  A    between atoms: P_7  and  O_10 
REMARK    6  A    between atoms: O_10  and  P_11 
REMARK    7  A    between atoms: P_11  and  O_13 
REMARK    8  A    between atoms: P_11  and  O_14 
ROOT
HETATM    1  P   UNK N   1      34.725  16.542   9.764  0.00  0.00     0.402 P 
HETATM    2  O   UNK N   1      35.464  17.906   9.768  0.00  0.00    -0.631 OA
ENDROOT
BRANCH   1   3
HETATM    3  O   UNK N   1      34.635  17.001   8.089  0.00  0.00    -0.293 OA
BRANCH   3   4
HETATM    4  C   UNK N   1      33.312  16.764   7.703  0.00  0.00     0.208 C 
BRANCH   4   5
HETATM    5  C   UNK N   1      32.391  17.642   8.495  0.00  0.00     0.002 C 
HETATM    6  C   UNK N   1      31.071  17.718   8.279  0.00  0.00    -0.089 C 
HETATM    7  C   UNK N   1      30.252  18.640   9.113  0.00  0.00     0.042 C 
HETATM    8  C   UNK N   1      30.392  16.896   7.232  0.00  0.00     0.042 C 
ENDBRANCH   4   5
ENDBRANCH   3   4
ENDBRANCH   1   3
BRANCH   1   9
HETATM    9  O   UNK N   1      35.604  15.419   8.774  0.00  0.00    -0.307 OA
HETATM   10  H   UNK N   1      36.352  15.605   8.186  0.00  0.00     0.222 HD
ENDBRANCH   1   9
BRANCH   1  11
HETATM   11  O   UNK N   1      36.243  16.111  10.503  0.00  0.00    -0.195 OA
BRANCH  11  12
HETATM   12  P   UNK N   1      35.825  15.183  11.918  0.00  0.00     0.399 P 
HETATM   13  O   UNK N   1      35.121  13.860  11.521  0.00  0.00    -0.631 OA
BRANCH  12  14
HETATM   14  O   UNK N   1      37.027  14.321  11.009  0.00  0.00    -0.307 OA
HETATM   15  H   UNK N   1      37.386  14.435  10.115  0.00  0.00     0.222 HD
ENDBRANCH  12  14
BRANCH  12  16
HETATM   16  O   UNK N   1      34.359  15.700  11.145  0.00  0.00    -0.307 OA
HETATM   17  H   UNK N   1      33.852  16.493  11.383  0.00  0.00     0.222 HD
ENDBRANCH  12  16
ENDBRANCH  11  12
ENDBRANCH   1  11
TORSDOF 8
ENDMDL
MODEL 8
REMARK VINA RESULT:      -4.6     13.467     14.785
REMARK  8 active torsions:
REMARK  status: ('A' for Active; 'I' for Inactive)
REMARK    1  A    between atoms: C_1  and  O_2 
REMARK    2  A    between atoms: C_1  and  C_3 
REMARK    3  A    between atoms: P_7  and  O_2 
REMARK    4  A    between atoms: P_7  and  O_9 
REMARK    5  A    between atoms: P_7  and  O_10 
REMARK    6  A    between atoms: O_10  and  P_11 
REMARK    7  A    between atoms: P_11  and  O_13 
REMARK    8  A    between atoms: P_11  and  O_14 
ROOT
HETATM    1  P   UNK N   1      34.785  16.036  10.062  0.00  0.00     0.402 P 
HETATM    2  O   UNK N   1      35.411  17.454  10.024  0.00  0.00    -0.631 OA
ENDROOT
BRANCH   1   3
HETATM    3  O   UNK N   1      34.880  16.337   8.353  0.00  0.00    -0.293 OA
BRANCH   3   4
HETATM    4  C   UNK N   1      34.022  17.414   8.110  0.00  0.00     0.208 C 
BRANCH   4   5
HETATM    5  C   UNK N   1      33.884  17.624   6.631  0.00  0.00     0.002 C 
HETATM    6  C   UNK N   1      32.762  17.367   5.948  0.00  0.00    -0.089 C 
HETATM    7  C   UNK N   1      32.742  17.593   4.476  0.00  0.00     0.042 C 
HETATM    8  C   UNK N   1      31.522  16.870   6.618  0.00  0.00     0.042 C 
ENDBRANCH   4   5
ENDBRANCH   3   4
ENDBRANCH   1   3
BRANCH   1   9
HETATM    9  O   UNK N   1      35.868  14.912   9.304  0.00  0.00    -0.307 OA
HETATM   10  H   UNK N   1      35.970  14.733   8.356  0.00  0.00     0.222 HD
ENDBRANCH   1   9
BRANCH   1  11
HETATM   11  O   UNK N   1      36.221  15.806  11.022  0.00  0.00    -0.195 OA
BRANCH  11  12
HETATM   12  P   UNK N   1      35.724  14.830  12.377  0.00  0.00     0.399 P 
HETATM   13  O   UNK N   1      35.138  13.478  11.897  0.00  0.00    -0.631 OA
BRANCH  12  14
HETATM   14  O   UNK N   1      37.055  14.054  11.577  0.00  0.00    -0.307 OA
HETATM   15  H   UNK N   1      37.217  13.808  10.652  0.00  0.00     0.222 HD
ENDBRANCH  12  14
BRANCH  12  16
HETATM   16  O   UNK N   1      34.311  15.278  11.475  0.00  0.00    -0.307 OA
HETATM   17  H   UNK N   1      33.407  15.299  11.827  0.00  0.00     0.222 HD
ENDBRANCH  12  16
ENDBRANCH  11  12
ENDBRANCH   1  11
TORSDOF 8
ENDMDL
MODEL 9
REMARK VINA RESULT:      -4.4      7.334      8.653
REMARK  8 active torsions:
REMARK  status: ('A' for Active; 'I' for Inactive)
REMARK    1  A    between atoms: C_1  and  O_2 
REMARK    2  A    between atoms: C_1  and  C_3 
REMARK    3  A    between atoms: P_7  and  O_2 
REMARK    4  A    between atoms: P_7  and  O_9 
REMARK    5  A    between atoms: P_7  and  O_10 
REMARK    6  A    between atoms: O_10  and  P_11 
REMARK    7  A    between atoms: P_11  and  O_13 
REMARK    8  A    between atoms: P_11  and  O_14 
ROOT
HETATM    1  P   UNK N   1      20.563  17.790   2.627  0.00  0.00     0.402 P 
HETATM    2  O   UNK N   1      20.592  18.259   4.105  0.00  0.00    -0.631 OA
ENDROOT
BRANCH   1   3
HETATM    3  O   UNK N   1      19.587  16.580   3.403  0.00  0.00    -0.293 OA
BRANCH   3   4
HETATM    4  C   UNK N   1      20.310  15.387   3.299  0.00  0.00     0.208 C 
BRANCH   4   5
HETATM    5  C   UNK N   1      19.601  14.447   2.371  0.00  0.00     0.002 C 
HETATM    6  C   UNK N   1      20.156  13.945   1.260  0.00  0.00    -0.089 C 
HETATM    7  C   UNK N   1      19.354  13.035   0.397  0.00  0.00     0.042 C 
HETATM    8  C   UNK N   1      21.563  14.259   0.865  0.00  0.00     0.042 C 
ENDBRANCH   4   5
ENDBRANCH   3   4
ENDBRANCH   1   3
BRANCH   1   9
HETATM    9  O   UNK N   1      18.932  17.852   2.038  0.00  0.00    -0.307 OA
HETATM   10  H   UNK N   1      18.384  18.638   1.888  0.00  0.00     0.222 HD
ENDBRANCH   1   9
BRANCH   1  11
HETATM   11  O   UNK N   1      20.013  19.437   2.478  0.00  0.00    -0.195 OA
BRANCH  11  12
HETATM   12  P   UNK N   1      21.407  20.350   1.969  0.00  0.00     0.399 P 
HETATM   13  O   UNK N   1      20.979  21.658   1.256  0.00  0.00    -0.631 OA
BRANCH  12  14
HETATM   14  O   UNK N   1      20.563  21.242   3.195  0.00  0.00    -0.307 OA
HETATM   15  H   UNK N   1      20.856  21.704   3.996  0.00  0.00     0.222 HD
ENDBRANCH  12  14
BRANCH  12  16
HETATM   16  O   UNK N   1      20.561  19.803   0.555  0.00  0.00    -0.307 OA
HETATM   17  H   UNK N   1      20.981  19.495  -0.263  0.00  0.00     0.222 HD
ENDBRANCH  12  16
ENDBRANCH  11  12
ENDBRANCH   1  11
TORSDOF 8
ENDMDL
