REMARK  5 active torsions:
REMARK  status: ('A' for Active; 'I' for Inactive)
REMARK    1  A    between atoms: C_23  and  C_3 
REMARK    2  A    between atoms: C_16  and  N_8 
REMARK    3  A    between atoms: C_23  and  P_25 
REMARK    4  A    between atoms: P_25  and  O_26 
REMARK    5  A    between atoms: P_25  and  O_28 
ROOT
HETATM    1  C   UNK N   1      -1.578  -0.657   0.710  0.00  0.00     0.235 C 
HETATM    2  O   UNK N   1      -1.044  -1.888   0.247  0.00  0.00    -0.356 OA
HETATM    3  C   UNK N   1       0.246  -1.613  -0.232  0.00  0.00     0.177 C 
HETATM    4  C   UNK N   1       0.181  -0.240  -0.825  0.00  0.00     0.161 C 
HETATM    5  C   UNK N   1      -0.683   0.486   0.182  0.00  0.00     0.089 C 
HETATM    6  C   UNK N   1       1.276  -1.638   0.906  0.00  0.00     0.207 C 
HETATM    7  O   UNK N   1       1.700  -0.333   1.259  0.00  0.00    -0.339 OA
HETATM    8  C   UNK N   1       2.298   0.323   0.137  0.00  0.00     0.294 C 
HETATM    9  O   UNK N   1       1.480   0.295  -1.040  0.00  0.00    -0.334 OA
ENDROOT
BRANCH   8  10
HETATM   10  C   UNK N   1       3.669  -0.309  -0.153  0.00  0.00     0.016 A 
HETATM   11  C   UNK N   1       3.749  -1.643  -0.590  0.00  0.00     0.013 A 
HETATM   12  C   UNK N   1       4.986  -2.253  -0.813  0.00  0.00     0.001 A 
HETATM   13  C   UNK N   1       6.165  -1.537  -0.601  0.00  0.00     0.000 A 
HETATM   14  C   UNK N   1       6.107  -0.209  -0.176  0.00  0.00     0.001 A 
HETATM   15  C   UNK N   1       4.869   0.400   0.045  0.00  0.00     0.013 A 
ENDBRANCH   8  10
BRANCH   8  16
HETATM   16  P   UNK N   1       2.471   2.147   0.566  0.00  0.00     0.305 P 
HETATM   17  O   UNK N   1       3.337   2.361   1.836  0.00  0.00    -0.650 OA
BRANCH  16  18
HETATM   18  O   UNK N   1       3.285   3.070  -0.660  0.00  0.00    -0.325 OA
HETATM   19  H   UNK N   1       3.959   2.934  -1.345  0.00  0.00     0.220 HD
ENDBRANCH  16  18
BRANCH  16  20
HETATM   20  O   UNK N   1       0.992   2.991   0.903  0.00  0.00    -0.325 OA
HETATM   21  H   UNK N   1       0.987   3.942   1.091  0.00  0.00     0.220 HD
ENDBRANCH  16  20
ENDBRANCH   8  16
BRANCH   1  22
HETATM   22  N   UNK N   1      -2.994  -0.509   0.307  0.00  0.00    -0.282 N 
HETATM   23  C   UNK N   1      -3.880  -1.574   0.376  0.00  0.00     0.331 A 
HETATM   24  N   UNK N   1      -5.197  -1.398   0.044  0.00  0.00    -0.275 N 
HETATM   25  O   UNK N   1      -3.500  -2.679   0.727  0.00  0.00    -0.246 OA
HETATM   26  C   UNK N   1      -5.672  -0.173  -0.332  0.00  0.00     0.256 A 
HETATM   27  H   UNK N   1      -5.812  -2.167   0.076  0.00  0.00     0.173 HD
HETATM   28  C   UNK N   1      -4.802   0.916  -0.384  0.00  0.00     0.022 A 
HETATM   29  O   UNK N   1      -6.851  -0.041  -0.611  0.00  0.00    -0.267 OA
HETATM   30  C   UNK N   1      -3.462   0.720  -0.065  0.00  0.00     0.110 A 
HETATM   31  C   UNK N   1      -5.278   2.279  -0.757  0.00  0.00     0.056 C 
ENDBRANCH   1  22
TORSDOF 5
