MODEL 1
REMARK VINA RESULT:      -7.6      0.000      0.000
REMARK  5 active torsions:
REMARK  status: ('A' for Active; 'I' for Inactive)
REMARK    1  A    between atoms: C_23  and  C_3 
REMARK    2  A    between atoms: C_16  and  N_8 
REMARK    3  A    between atoms: C_23  and  P_25 
REMARK    4  A    between atoms: P_25  and  O_26 
REMARK    5  A    between atoms: P_25  and  O_28 
ROOT
HETATM    1  C   UNK N   1      22.565  13.352   7.591  0.00  0.00     0.235 C 
HETATM    2  O   UNK N   1      22.757  12.267   6.697  0.00  0.00    -0.356 OA
HETATM    3  C   UNK N   1      21.783  12.393   5.695  0.00  0.00     0.177 C 
HETATM    4  C   UNK N   1      20.572  12.961   6.367  0.00  0.00     0.161 C 
HETATM    5  C   UNK N   1      21.189  13.987   7.290  0.00  0.00     0.089 C 
HETATM    6  C   UNK N   1      22.252  13.342   4.583  0.00  0.00     0.207 C 
HETATM    7  O   UNK N   1      21.591  14.594   4.648  0.00  0.00    -0.339 OA
HETATM    8  C   UNK N   1      20.177  14.424   4.515  0.00  0.00     0.294 C 
HETATM    9  O   UNK N   1      19.634  13.452   5.419  0.00  0.00    -0.334 OA
ENDROOT
BRANCH   8  10
HETATM   10  C   UNK N   1      19.842  14.046   3.063  0.00  0.00     0.016 A 
HETATM   11  C   UNK N   1      18.933  13.006   2.800  0.00  0.00     0.013 A 
HETATM   12  C   UNK N   1      18.651  12.613   1.489  0.00  0.00     0.001 A 
HETATM   13  C   UNK N   1      19.275  13.255   0.419  0.00  0.00     0.000 A 
HETATM   14  C   UNK N   1      20.174  14.295   0.659  0.00  0.00     0.001 A 
HETATM   15  C   UNK N   1      20.454  14.688   1.970  0.00  0.00     0.013 A 
ENDBRANCH   8  10
BRANCH   8  16
HETATM   16  P   UNK N   1      19.357  16.047   4.998  0.00  0.00     0.305 P 
HETATM   17  O   UNK N   1      18.009  15.817   5.732  0.00  0.00    -0.650 OA
BRANCH  16  18
HETATM   18  O   UNK N   1      20.294  16.986   6.120  0.00  0.00    -0.325 OA
HETATM   19  H   UNK N   1      20.483  17.920   6.306  0.00  0.00     0.220 HD
ENDBRANCH  16  18
BRANCH  16  20
HETATM   20  O   UNK N   1      18.960  17.115   3.688  0.00  0.00    -0.325 OA
HETATM   21  H   UNK N   1      18.038  17.301   3.452  0.00  0.00     0.220 HD
ENDBRANCH  16  20
ENDBRANCH   8  16
BRANCH   1  22
HETATM   22  N   UNK N   1      22.696  12.910   8.997  0.00  0.00    -0.282 N 
HETATM   23  C   UNK N   1      23.930  12.870   9.630  0.00  0.00     0.331 A 
HETATM   24  N   UNK N   1      24.018  12.503  10.946  0.00  0.00    -0.275 N 
HETATM   25  O   UNK N   1      24.950  13.153   9.024  0.00  0.00    -0.246 OA
HETATM   26  C   UNK N   1      22.900  12.200  11.671  0.00  0.00     0.256 A 
HETATM   27  H   UNK N   1      24.902  12.458  11.379  0.00  0.00     0.173 HD
HETATM   28  C   UNK N   1      21.647  12.258  11.059  0.00  0.00     0.022 A 
HETATM   29  O   UNK N   1      23.005  11.888  12.844  0.00  0.00    -0.267 OA
HETATM   30  C   UNK N   1      21.573  12.611   9.716  0.00  0.00     0.110 A 
HETATM   31  C   UNK N   1      20.395  11.967  11.815  0.00  0.00     0.056 C 
ENDBRANCH   1  22
TORSDOF 5
ENDMDL
MODEL 2
REMARK VINA RESULT:      -7.5      9.719     12.942
REMARK  5 active torsions:
REMARK  status: ('A' for Active; 'I' for Inactive)
REMARK    1  A    between atoms: C_23  and  C_3 
REMARK    2  A    between atoms: C_16  and  N_8 
REMARK    3  A    between atoms: C_23  and  P_25 
REMARK    4  A    between atoms: P_25  and  O_26 
REMARK    5  A    between atoms: P_25  and  O_28 
ROOT
HETATM    1  C   UNK N   1      29.825  16.648   7.268  0.00  0.00     0.235 C 
HETATM    2  O   UNK N   1      30.111  16.123   5.980  0.00  0.00    -0.356 OA
HETATM    3  C   UNK N   1      31.486  15.845   5.954  0.00  0.00     0.177 C 
HETATM    4  C   UNK N   1      32.136  16.900   6.795  0.00  0.00     0.161 C 
HETATM    5  C   UNK N   1      31.164  17.010   7.948  0.00  0.00     0.089 C 
HETATM    6  C   UNK N   1      31.782  14.458   6.542  0.00  0.00     0.207 C 
HETATM    7  O   UNK N   1      32.360  14.548   7.832  0.00  0.00    -0.339 OA
HETATM    8  C   UNK N   1      33.590  15.278   7.783  0.00  0.00     0.294 C 
HETATM    9  O   UNK N   1      33.471  16.548   7.129  0.00  0.00    -0.334 OA
ENDROOT
BRANCH   8  10
HETATM   10  C   UNK N   1      34.664  14.422   7.093  0.00  0.00     0.016 A 
HETATM   11  C   UNK N   1      35.503  14.997   6.122  0.00  0.00     0.013 A 
HETATM   12  C   UNK N   1      36.454  14.228   5.447  0.00  0.00     0.001 A 
HETATM   13  C   UNK N   1      36.580  12.868   5.732  0.00  0.00     0.000 A 
HETATM   14  C   UNK N   1      35.763  12.279   6.699  0.00  0.00     0.001 A 
HETATM   15  C   UNK N   1      34.814  13.051   7.374  0.00  0.00     0.013 A 
ENDBRANCH   8  10
BRANCH   8  16
HETATM   16  P   UNK N   1      34.084  15.685   9.553  0.00  0.00     0.305 P 
HETATM   17  O   UNK N   1      35.491  15.132   9.900  0.00  0.00    -0.650 OA
BRANCH  16  18
HETATM   18  O   UNK N   1      34.213  17.391   9.857  0.00  0.00    -0.325 OA
HETATM   19  H   UNK N   1      34.838  18.114   9.689  0.00  0.00     0.220 HD
ENDBRANCH  16  18
BRANCH  16  20
HETATM   20  O   UNK N   1      33.050  15.051  10.795  0.00  0.00    -0.325 OA
HETATM   21  H   UNK N   1      32.264  15.535  11.092  0.00  0.00     0.220 HD
ENDBRANCH  16  20
ENDBRANCH   8  16
BRANCH   1  22
HETATM   22  N   UNK N   1      28.898  17.797   7.178  0.00  0.00    -0.282 N 
HETATM   23  C   UNK N   1      28.303  18.336   8.310  0.00  0.00     0.331 A 
HETATM   24  N   UNK N   1      27.487  19.430   8.205  0.00  0.00    -0.275 N 
HETATM   25  O   UNK N   1      28.494  17.841   9.409  0.00  0.00    -0.246 OA
HETATM   26  C   UNK N   1      27.264  20.031   6.998  0.00  0.00     0.256 A 
HETATM   27  H   UNK N   1      27.053  19.791   9.013  0.00  0.00     0.173 HD
HETATM   28  C   UNK N   1      27.872  19.519   5.852  0.00  0.00     0.022 A 
HETATM   29  O   UNK N   1      26.543  21.011   6.934  0.00  0.00    -0.267 OA
HETATM   30  C   UNK N   1      28.682  18.394   5.968  0.00  0.00     0.110 A 
HETATM   31  C   UNK N   1      27.686  20.157   4.517  0.00  0.00     0.056 C 
ENDBRANCH   1  22
TORSDOF 5
ENDMDL
MODEL 3
REMARK VINA RESULT:      -7.5     13.061     16.531
REMARK  5 active torsions:
REMARK  status: ('A' for Active; 'I' for Inactive)
REMARK    1  A    between atoms: C_23  and  C_3 
REMARK    2  A    between atoms: C_16  and  N_8 
REMARK    3  A    between atoms: C_23  and  P_25 
REMARK    4  A    between atoms: P_25  and  O_26 
REMARK    5  A    between atoms: P_25  and  O_28 
ROOT
HETATM    1  C   UNK N   1      34.899  15.836   8.629  0.00  0.00     0.235 C 
HETATM    2  O   UNK N   1      33.925  16.174   9.605  0.00  0.00    -0.356 OA
HETATM    3  C   UNK N   1      34.044  15.229  10.636  0.00  0.00     0.177 C 
HETATM    4  C   UNK N   1      34.422  13.941   9.973  0.00  0.00     0.161 C 
HETATM    5  C   UNK N   1      35.416  14.413   8.936  0.00  0.00     0.089 C 
HETATM    6  C   UNK N   1      35.134  15.636  11.637  0.00  0.00     0.207 C 
HETATM    7  O   UNK N   1      36.301  14.845  11.493  0.00  0.00    -0.339 OA
HETATM    8  C   UNK N   1      36.001  13.462  11.705  0.00  0.00     0.294 C 
HETATM    9  O   UNK N   1      34.900  12.992  10.916  0.00  0.00    -0.334 OA
ENDROOT
BRANCH   8  10
HETATM   10  C   UNK N   1      35.726  13.222  13.198  0.00  0.00     0.016 A 
HETATM   11  C   UNK N   1      36.521  13.857  14.169  0.00  0.00     0.013 A 
HETATM   12  C   UNK N   1      36.321  13.616  15.531  0.00  0.00     0.001 A 
HETATM   13  C   UNK N   1      35.321  12.733  15.943  0.00  0.00     0.000 A 
HETATM   14  C   UNK N   1      34.516  12.100  14.996  0.00  0.00     0.001 A 
HETATM   15  C   UNK N   1      34.716  12.344  13.634  0.00  0.00     0.013 A 
ENDBRANCH   8  10
BRANCH   8  16
HETATM   16  P   UNK N   1      37.482  12.460  11.120  0.00  0.00     0.305 P 
HETATM   17  O   UNK N   1      37.889  11.376  12.153  0.00  0.00    -0.650 OA
BRANCH  16  18
HETATM   18  O   UNK N   1      37.176  11.562   9.665  0.00  0.00    -0.325 OA
HETATM   19  H   UNK N   1      37.229  10.645   9.352  0.00  0.00     0.220 HD
ENDBRANCH  16  18
BRANCH  16  20
HETATM   20  O   UNK N   1      38.941  13.357  10.836  0.00  0.00    -0.325 OA
HETATM   21  H   UNK N   1      39.623  13.029  10.230  0.00  0.00     0.220 HD
ENDBRANCH  16  20
ENDBRANCH   8  16
BRANCH   1  22
HETATM   22  N   UNK N   1      34.344  15.962   7.263  0.00  0.00    -0.282 N 
HETATM   23  C   UNK N   1      34.210  17.198   6.648  0.00  0.00     0.331 A 
HETATM   24  N   UNK N   1      33.741  17.283   5.365  0.00  0.00    -0.275 N 
HETATM   25  O   UNK N   1      34.503  18.224   7.242  0.00  0.00    -0.246 OA
HETATM   26  C   UNK N   1      33.423  16.160   4.654  0.00  0.00     0.256 A 
HETATM   27  H   UNK N   1      33.629  18.168   4.947  0.00  0.00     0.173 HD
HETATM   28  C   UNK N   1      33.574  14.906   5.246  0.00  0.00     0.022 A 
HETATM   29  O   UNK N   1      33.018  16.263   3.509  0.00  0.00    -0.267 OA
HETATM   30  C   UNK N   1      34.032  14.834   6.557  0.00  0.00     0.110 A 
HETATM   31  C   UNK N   1      33.272  13.650   4.501  0.00  0.00     0.056 C 
ENDBRANCH   1  22
TORSDOF 5
ENDMDL
MODEL 4
REMARK VINA RESULT:      -7.4     12.126     13.809
REMARK  5 active torsions:
REMARK  status: ('A' for Active; 'I' for Inactive)
REMARK    1  A    between atoms: C_23  and  C_3 
REMARK    2  A    between atoms: C_16  and  N_8 
REMARK    3  A    between atoms: C_23  and  P_25 
REMARK    4  A    between atoms: P_25  and  O_26 
REMARK    5  A    between atoms: P_25  and  O_28 
ROOT
HETATM    1  C   UNK N   1      35.502  13.609  11.204  0.00  0.00     0.235 C 
HETATM    2  O   UNK N   1      35.160  12.512  10.371  0.00  0.00    -0.356 OA
HETATM    3  C   UNK N   1      34.395  13.032   9.315  0.00  0.00     0.177 C 
HETATM    4  C   UNK N   1      33.601  14.159   9.897  0.00  0.00     0.161 C 
HETATM    5  C   UNK N   1      34.620  14.813  10.804  0.00  0.00     0.089 C 
HETATM    6  C   UNK N   1      35.295  13.559   8.187  0.00  0.00     0.207 C 
HETATM    7  O   UNK N   1      35.328  14.975   8.162  0.00  0.00    -0.339 OA
HETATM    8  C   UNK N   1      34.015  15.507   7.963  0.00  0.00     0.294 C 
HETATM    9  O   UNK N   1      33.045  14.982   8.880  0.00  0.00    -0.334 OA
ENDROOT
BRANCH   8  10
HETATM   10  C   UNK N   1      33.572  15.247   6.514  0.00  0.00     0.016 A 
HETATM   11  C   UNK N   1      32.268  14.793   6.249  0.00  0.00     0.013 A 
HETATM   12  C   UNK N   1      31.859  14.504   4.945  0.00  0.00     0.001 A 
HETATM   13  C   UNK N   1      32.751  14.663   3.883  0.00  0.00     0.000 A 
HETATM   14  C   UNK N   1      34.047  15.121   4.124  0.00  0.00     0.001 A 
HETATM   15  C   UNK N   1      34.454  15.411   5.429  0.00  0.00     0.013 A 
ENDBRANCH   8  10
BRANCH   8  16
HETATM   16  P   UNK N   1      34.083  17.351   8.330  0.00  0.00     0.305 P 
HETATM   17  O   UNK N   1      34.485  18.173   7.076  0.00  0.00    -0.650 OA
BRANCH  16  18
HETATM   18  O   UNK N   1      32.550  18.019   8.799  0.00  0.00    -0.325 OA
HETATM   19  H   UNK N   1      31.903  17.921   9.515  0.00  0.00     0.220 HD
ENDBRANCH  16  18
BRANCH  16  20
HETATM   20  O   UNK N   1      35.217  17.841   9.550  0.00  0.00    -0.325 OA
HETATM   21  H   UNK N   1      36.173  17.792   9.398  0.00  0.00     0.220 HD
ENDBRANCH  16  20
ENDBRANCH   8  16
BRANCH   1  22
HETATM   22  N   UNK N   1      35.367  13.250  12.633  0.00  0.00    -0.282 N 
HETATM   23  C   UNK N   1      35.890  14.057  13.633  0.00  0.00     0.331 A 
HETATM   24  N   UNK N   1      35.709  13.728  14.950  0.00  0.00    -0.275 N 
HETATM   25  O   UNK N   1      36.521  15.064  13.355  0.00  0.00    -0.246 OA
HETATM   26  C   UNK N   1      34.990  12.622  15.308  0.00  0.00     0.256 A 
HETATM   27  H   UNK N   1      36.104  14.297  15.651  0.00  0.00     0.173 HD
HETATM   28  C   UNK N   1      34.435  11.811  14.318  0.00  0.00     0.022 A 
HETATM   29  O   UNK N   1      34.834  12.358  16.488  0.00  0.00    -0.267 OA
HETATM   30  C   UNK N   1      34.644  12.145  12.984  0.00  0.00     0.110 A 
HETATM   31  C   UNK N   1      33.616  10.613  14.658  0.00  0.00     0.056 C 
ENDBRANCH   1  22
TORSDOF 5
ENDMDL
MODEL 5
REMARK VINA RESULT:      -7.3      7.321     10.436
REMARK  5 active torsions:
REMARK  status: ('A' for Active; 'I' for Inactive)
REMARK    1  A    between atoms: C_23  and  C_3 
REMARK    2  A    between atoms: C_16  and  N_8 
REMARK    3  A    between atoms: C_23  and  P_25 
REMARK    4  A    between atoms: P_25  and  O_26 
REMARK    5  A    between atoms: P_25  and  O_28 
ROOT
HETATM    1  C   UNK N   1      25.776  19.052   3.863  0.00  0.00     0.235 C 
HETATM    2  O   UNK N   1      26.400  20.057   4.647  0.00  0.00    -0.356 OA
HETATM    3  C   UNK N   1      27.313  19.403   5.488  0.00  0.00     0.177 C 
HETATM    4  C   UNK N   1      26.691  18.084   5.824  0.00  0.00     0.161 C 
HETATM    5  C   UNK N   1      26.097  17.679   4.494  0.00  0.00     0.089 C 
HETATM    6  C   UNK N   1      28.656  19.177   4.778  0.00  0.00     0.207 C 
HETATM    7  O   UNK N   1      28.832  17.821   4.408  0.00  0.00    -0.339 OA
HETATM    8  C   UNK N   1      28.795  16.975   5.561  0.00  0.00     0.294 C 
HETATM    9  O   UNK N   1      27.642  17.189   6.386  0.00  0.00    -0.334 OA
ENDROOT
BRANCH   8  10
HETATM   10  C   UNK N   1      30.080  17.173   6.381  0.00  0.00     0.016 A 
HETATM   11  C   UNK N   1      29.998  17.493   7.748  0.00  0.00     0.013 A 
HETATM   12  C   UNK N   1      31.151  17.726   8.502  0.00  0.00     0.001 A 
HETATM   13  C   UNK N   1      32.407  17.642   7.899  0.00  0.00     0.000 A 
HETATM   14  C   UNK N   1      32.510  17.317   6.545  0.00  0.00     0.001 A 
HETATM   15  C   UNK N   1      31.356  17.083   5.793  0.00  0.00     0.013 A 
ENDBRANCH   8  10
BRANCH   8  16
HETATM   16  P   UNK N   1      28.642  15.198   4.962  0.00  0.00     0.305 P 
HETATM   17  O   UNK N   1      27.315  14.544   5.431  0.00  0.00    -0.650 OA
BRANCH  16  18
HETATM   18  O   UNK N   1      28.595  15.055   3.231  0.00  0.00    -0.325 OA
HETATM   19  H   UNK N   1      28.997  14.511   2.536  0.00  0.00     0.220 HD
ENDBRANCH  16  18
BRANCH  16  20
HETATM   20  O   UNK N   1      29.878  14.106   5.503  0.00  0.00    -0.325 OA
HETATM   21  H   UNK N   1      29.660  13.218   5.824  0.00  0.00     0.220 HD
ENDBRANCH  16  20
ENDBRANCH   8  16
BRANCH   1  22
HETATM   22  N   UNK N   1      24.323  19.302   3.741  0.00  0.00    -0.282 N 
HETATM   23  C   UNK N   1      23.825  20.272   2.883  0.00  0.00     0.331 A 
HETATM   24  N   UNK N   1      22.474  20.449   2.752  0.00  0.00    -0.275 N 
HETATM   25  O   UNK N   1      24.581  20.981   2.240  0.00  0.00    -0.246 OA
HETATM   26  C   UNK N   1      21.589  19.662   3.435  0.00  0.00     0.256 A 
HETATM   27  H   UNK N   1      22.133  21.156   2.156  0.00  0.00     0.173 HD
HETATM   28  C   UNK N   1      22.070  18.664   4.284  0.00  0.00     0.022 A 
HETATM   29  O   UNK N   1      20.391  19.833   3.292  0.00  0.00    -0.267 OA
HETATM   30  C   UNK N   1      23.445  18.508   4.425  0.00  0.00     0.110 A 
HETATM   31  C   UNK N   1      21.146  17.759   5.026  0.00  0.00     0.056 C 
ENDBRANCH   1  22
TORSDOF 5
ENDMDL
MODEL 6
REMARK VINA RESULT:      -7.1      9.639     11.882
REMARK  5 active torsions:
REMARK  status: ('A' for Active; 'I' for Inactive)
REMARK    1  A    between atoms: C_23  and  C_3 
REMARK    2  A    between atoms: C_16  and  N_8 
REMARK    3  A    between atoms: C_23  and  P_25 
REMARK    4  A    between atoms: P_25  and  O_26 
REMARK    5  A    between atoms: P_25  and  O_28 
ROOT
HETATM    1  C   UNK N   1      33.948  16.444   8.490  0.00  0.00     0.235 C 
HETATM    2  O   UNK N   1      33.869  16.099   7.115  0.00  0.00    -0.356 OA
HETATM    3  C   UNK N   1      32.505  16.035   6.794  0.00  0.00     0.177 C 
HETATM    4  C   UNK N   1      31.817  15.518   8.018  0.00  0.00     0.161 C 
HETATM    5  C   UNK N   1      32.547  16.260   9.115  0.00  0.00     0.089 C 
HETATM    6  C   UNK N   1      31.955  17.423   6.437  0.00  0.00     0.207 C 
HETATM    7  O   UNK N   1      31.145  17.949   7.474  0.00  0.00    -0.339 OA
HETATM    8  C   UNK N   1      30.033  17.086   7.732  0.00  0.00     0.294 C 
HETATM    9  O   UNK N   1      30.412  15.721   7.950  0.00  0.00    -0.334 OA
ENDROOT
BRANCH   8  10
HETATM   10  C   UNK N   1      29.032  17.182   6.569  0.00  0.00     0.016 A 
HETATM   11  C   UNK N   1      28.585  18.440   6.129  0.00  0.00     0.013 A 
HETATM   12  C   UNK N   1      27.639  18.549   5.107  0.00  0.00     0.001 A 
HETATM   13  C   UNK N   1      27.124  17.399   4.508  0.00  0.00     0.000 A 
HETATM   14  C   UNK N   1      27.561  16.141   4.924  0.00  0.00     0.001 A 
HETATM   15  C   UNK N   1      28.509  16.034   5.946  0.00  0.00     0.013 A 
ENDBRANCH   8  10
BRANCH   8  16
HETATM   16  P   UNK N   1      29.245  17.637   9.350  0.00  0.00     0.305 P 
HETATM   17  O   UNK N   1      29.331  16.533  10.438  0.00  0.00    -0.650 OA
BRANCH  16  18
HETATM   18  O   UNK N   1      30.036  19.004  10.073  0.00  0.00    -0.325 OA
HETATM   19  H   UNK N   1      30.518  19.798   9.791  0.00  0.00     0.220 HD
ENDBRANCH  16  18
BRANCH  16  20
HETATM   20  O   UNK N   1      27.559  18.040   9.274  0.00  0.00    -0.325 OA
HETATM   21  H   UNK N   1      27.153  18.633   9.925  0.00  0.00     0.220 HD
ENDBRANCH  16  20
ENDBRANCH   8  16
BRANCH   1  22
HETATM   22  N   UNK N   1      34.991  15.650   9.177  0.00  0.00    -0.282 N 
HETATM   23  C   UNK N   1      35.724  16.177  10.229  0.00  0.00     0.331 A 
HETATM   24  N   UNK N   1      36.649  15.405  10.880  0.00  0.00    -0.275 N 
HETATM   25  O   UNK N   1      35.560  17.332  10.586  0.00  0.00    -0.246 OA
HETATM   26  C   UNK N   1      36.850  14.099  10.530  0.00  0.00     0.256 A 
HETATM   27  H   UNK N   1      37.180  15.797  11.612  0.00  0.00     0.173 HD
HETATM   28  C   UNK N   1      36.105  13.544   9.490  0.00  0.00     0.022 A 
HETATM   29  O   UNK N   1      37.671  13.430  11.133  0.00  0.00    -0.267 OA
HETATM   30  C   UNK N   1      35.183  14.344   8.823  0.00  0.00     0.110 A 
HETATM   31  C   UNK N   1      36.263  12.116   9.092  0.00  0.00     0.056 C 
ENDBRANCH   1  22
TORSDOF 5
ENDMDL
MODEL 7
REMARK VINA RESULT:      -7.1      9.657     12.061
REMARK  5 active torsions:
REMARK  status: ('A' for Active; 'I' for Inactive)
REMARK    1  A    between atoms: C_23  and  C_3 
REMARK    2  A    between atoms: C_16  and  N_8 
REMARK    3  A    between atoms: C_23  and  P_25 
REMARK    4  A    between atoms: P_25  and  O_26 
REMARK    5  A    between atoms: P_25  and  O_28 
ROOT
HETATM    1  C   UNK N   1      29.371  16.905   6.399  0.00  0.00     0.235 C 
HETATM    2  O   UNK N   1      28.977  16.159   5.257  0.00  0.00    -0.356 OA
HETATM    3  C   UNK N   1      30.155  15.793   4.589  0.00  0.00     0.177 C 
HETATM    4  C   UNK N   1      31.111  16.928   4.788  0.00  0.00     0.161 C 
HETATM    5  C   UNK N   1      30.858  17.289   6.235  0.00  0.00     0.089 C 
HETATM    6  C   UNK N   1      30.749  14.506   5.178  0.00  0.00     0.207 C 
HETATM    7  O   UNK N   1      31.900  14.769   5.961  0.00  0.00    -0.339 OA
HETATM    8  C   UNK N   1      32.912  15.400   5.172  0.00  0.00     0.294 C 
HETATM    9  O   UNK N   1      32.441  16.551   4.458  0.00  0.00    -0.334 OA
ENDROOT
BRANCH   8  10
HETATM   10  C   UNK N   1      33.511  14.376   4.195  0.00  0.00     0.016 A 
HETATM   11  C   UNK N   1      33.733  14.733   2.853  0.00  0.00     0.013 A 
HETATM   12  C   UNK N   1      34.231  13.804   1.936  0.00  0.00     0.001 A 
HETATM   13  C   UNK N   1      34.514  12.500   2.347  0.00  0.00     0.000 A 
HETATM   14  C   UNK N   1      34.309  12.129   3.676  0.00  0.00     0.001 A 
HETATM   15  C   UNK N   1      33.812  13.060   4.593  0.00  0.00     0.013 A 
ENDBRANCH   8  10
BRANCH   8  16
HETATM   16  P   UNK N   1      34.225  16.061   6.347  0.00  0.00     0.305 P 
HETATM   17  O   UNK N   1      33.958  15.626   7.813  0.00  0.00    -0.650 OA
BRANCH  16  18
HETATM   18  O   UNK N   1      35.819  15.458   6.011  0.00  0.00    -0.325 OA
HETATM   19  H   UNK N   1      36.314  15.092   5.262  0.00  0.00     0.220 HD
ENDBRANCH  16  18
BRANCH  16  20
HETATM   20  O   UNK N   1      34.370  17.789   6.428  0.00  0.00    -0.325 OA
HETATM   21  H   UNK N   1      34.295  18.338   5.633  0.00  0.00     0.220 HD
ENDBRANCH  16  20
ENDBRANCH   8  16
BRANCH   1  22
HETATM   22  N   UNK N   1      28.493  18.081   6.591  0.00  0.00    -0.282 N 
HETATM   23  C   UNK N   1      28.180  18.549   7.859  0.00  0.00     0.331 A 
HETATM   24  N   UNK N   1      27.406  19.669   8.009  0.00  0.00    -0.275 N 
HETATM   25  O   UNK N   1      28.584  17.970   8.854  0.00  0.00    -0.246 OA
HETATM   26  C   UNK N   1      26.952  20.363   6.923  0.00  0.00     0.256 A 
HETATM   27  H   UNK N   1      27.173  19.979   8.914  0.00  0.00     0.173 HD
HETATM   28  C   UNK N   1      27.276  19.922   5.640  0.00  0.00     0.022 A 
HETATM   29  O   UNK N   1      26.274  21.363   7.084  0.00  0.00    -0.267 OA
HETATM   30  C   UNK N   1      28.045  18.771   5.500  0.00  0.00     0.110 A 
HETATM   31  C   UNK N   1      26.832  20.662   4.424  0.00  0.00     0.056 C 
ENDBRANCH   1  22
TORSDOF 5
ENDMDL
MODEL 8
REMARK VINA RESULT:      -7.0     11.433     13.004
REMARK  5 active torsions:
REMARK  status: ('A' for Active; 'I' for Inactive)
REMARK    1  A    between atoms: C_23  and  C_3 
REMARK    2  A    between atoms: C_16  and  N_8 
REMARK    3  A    between atoms: C_23  and  P_25 
REMARK    4  A    between atoms: P_25  and  O_26 
REMARK    5  A    between atoms: P_25  and  O_28 
ROOT
HETATM    1  C   UNK N   1      35.039  14.531  10.309  0.00  0.00     0.235 C 
HETATM    2  O   UNK N   1      35.599  13.906   9.164  0.00  0.00    -0.356 OA
HETATM    3  C   UNK N   1      34.713  14.143   8.102  0.00  0.00     0.177 C 
HETATM    4  C   UNK N   1      33.341  14.138   8.701  0.00  0.00     0.161 C 
HETATM    5  C   UNK N   1      33.570  14.889   9.993  0.00  0.00     0.089 C 
HETATM    6  C   UNK N   1      34.987  15.504   7.446  0.00  0.00     0.207 C 
HETATM    7  O   UNK N   1      34.000  16.460   7.790  0.00  0.00    -0.339 OA
HETATM    8  C   UNK N   1      32.705  16.021   7.369  0.00  0.00     0.294 C 
HETATM    9  O   UNK N   1      32.383  14.695   7.811  0.00  0.00    -0.334 OA
ENDROOT
BRANCH   8  10
HETATM   10  C   UNK N   1      32.608  16.109   5.837  0.00  0.00     0.016 A 
HETATM   11  C   UNK N   1      32.899  17.320   5.184  0.00  0.00     0.013 A 
HETATM   12  C   UNK N   1      32.771  17.437   3.798  0.00  0.00     0.001 A 
HETATM   13  C   UNK N   1      32.347  16.343   3.042  0.00  0.00     0.000 A 
HETATM   14  C   UNK N   1      32.062  15.130   3.670  0.00  0.00     0.001 A 
HETATM   15  C   UNK N   1      32.192  15.014   5.056  0.00  0.00     0.013 A 
ENDBRANCH   8  10
BRANCH   8  16
HETATM   16  P   UNK N   1      31.428  17.131   8.193  0.00  0.00     0.305 P 
HETATM   17  O   UNK N   1      32.027  18.509   8.582  0.00  0.00    -0.650 OA
BRANCH  16  18
HETATM   18  O   UNK N   1      30.090  17.530   7.159  0.00  0.00    -0.325 OA
HETATM   19  H   UNK N   1      29.648  17.173   6.372  0.00  0.00     0.220 HD
ENDBRANCH  16  18
BRANCH  16  20
HETATM   20  O   UNK N   1      30.736  16.528   9.666  0.00  0.00    -0.325 OA
HETATM   21  H   UNK N   1      29.907  16.025   9.664  0.00  0.00     0.220 HD
ENDBRANCH  16  20
ENDBRANCH   8  16
BRANCH   1  22
HETATM   22  N   UNK N   1      35.174  13.667  11.503  0.00  0.00    -0.282 N 
HETATM   23  C   UNK N   1      35.688  14.157  12.694  0.00  0.00     0.331 A 
HETATM   24  N   UNK N   1      35.757  13.350  13.799  0.00  0.00    -0.275 N 
HETATM   25  O   UNK N   1      36.089  15.306  12.774  0.00  0.00    -0.246 OA
HETATM   26  C   UNK N   1      35.298  12.063  13.762  0.00  0.00     0.256 A 
HETATM   27  H   UNK N   1      36.144  13.703  14.634  0.00  0.00     0.173 HD
HETATM   28  C   UNK N   1      34.755  11.560  12.580  0.00  0.00     0.022 A 
HETATM   29  O   UNK N   1      35.360  11.370  14.763  0.00  0.00    -0.267 OA
HETATM   30  C   UNK N   1      34.710  12.382  11.459  0.00  0.00     0.110 A 
HETATM   31  C   UNK N   1      34.212  10.173  12.498  0.00  0.00     0.056 C 
ENDBRANCH   1  22
TORSDOF 5
ENDMDL
MODEL 9
REMARK VINA RESULT:      -6.9     16.673     18.282
REMARK  5 active torsions:
REMARK  status: ('A' for Active; 'I' for Inactive)
REMARK    1  A    between atoms: C_23  and  C_3 
REMARK    2  A    between atoms: C_16  and  N_8 
REMARK    3  A    between atoms: C_23  and  P_25 
REMARK    4  A    between atoms: P_25  and  O_26 
REMARK    5  A    between atoms: P_25  and  O_28 
ROOT
HETATM    1  C   UNK N   1      31.123  22.990  -3.898  0.00  0.00     0.235 C 
HETATM    2  O   UNK N   1      31.842  24.200  -4.081  0.00  0.00    -0.356 OA
HETATM    3  C   UNK N   1      30.967  25.098  -4.712  0.00  0.00     0.177 C 
HETATM    4  C   UNK N   1      30.112  24.270  -5.620  0.00  0.00     0.161 C 
HETATM    5  C   UNK N   1      29.843  23.054  -4.761  0.00  0.00     0.089 C 
HETATM    6  C   UNK N   1      30.083  25.822  -3.687  0.00  0.00     0.207 C 
HETATM    7  O   UNK N   1      28.753  25.335  -3.703  0.00  0.00    -0.339 OA
HETATM    8  C   UNK N   1      28.166  25.513  -4.996  0.00  0.00     0.294 C 
HETATM    9  O   UNK N   1      28.971  24.992  -6.062  0.00  0.00    -0.334 OA
ENDROOT
BRANCH   8  10
HETATM   10  C   UNK N   1      27.882  27.007  -5.225  0.00  0.00     0.016 A 
HETATM   11  C   UNK N   1      28.284  27.622  -6.424  0.00  0.00     0.013 A 
HETATM   12  C   UNK N   1      28.079  28.988  -6.634  0.00  0.00     0.001 A 
HETATM   13  C   UNK N   1      27.469  29.762  -5.646  0.00  0.00     0.000 A 
HETATM   14  C   UNK N   1      27.055  29.168  -4.453  0.00  0.00     0.001 A 
HETATM   15  C   UNK N   1      27.259  27.802  -4.245  0.00  0.00     0.013 A 
ENDBRANCH   8  10
BRANCH   8  16
HETATM   16  P   UNK N   1      26.578  24.506  -5.048  0.00  0.00     0.305 P 
HETATM   17  O   UNK N   1      26.154  24.025  -3.634  0.00  0.00    -0.650 OA
BRANCH  16  18
HETATM   18  O   UNK N   1      25.207  25.409  -5.615  0.00  0.00    -0.325 OA
HETATM   19  H   UNK N   1      24.238  25.356  -5.585  0.00  0.00     0.220 HD
ENDBRANCH  16  18
BRANCH  16  20
HETATM   20  O   UNK N   1      26.629  23.057  -6.001  0.00  0.00    -0.325 OA
HETATM   21  H   UNK N   1      25.832  22.707  -6.428  0.00  0.00     0.220 HD
ENDBRANCH  16  20
ENDBRANCH   8  16
BRANCH   1  22
HETATM   22  N   UNK N   1      31.969  21.818  -4.214  0.00  0.00    -0.282 N 
HETATM   23  C   UNK N   1      32.656  21.134  -3.222  0.00  0.00     0.331 A 
HETATM   24  N   UNK N   1      33.393  20.023  -3.534  0.00  0.00    -0.275 N 
HETATM   25  O   UNK N   1      32.618  21.514  -2.063  0.00  0.00    -0.246 OA
HETATM   26  C   UNK N   1      33.446  19.548  -4.815  0.00  0.00     0.256 A 
HETATM   27  H   UNK N   1      33.894  19.558  -2.824  0.00  0.00     0.173 HD
HETATM   28  C   UNK N   1      32.743  20.208  -5.822  0.00  0.00     0.022 A 
HETATM   29  O   UNK N   1      34.100  18.551  -5.063  0.00  0.00    -0.267 OA
HETATM   30  C   UNK N   1      32.015  21.348  -5.497  0.00  0.00     0.110 A 
HETATM   31  C   UNK N   1      32.742  19.711  -7.228  0.00  0.00     0.056 C 
ENDBRANCH   1  22
TORSDOF 5
ENDMDL
