REMARK  0 active torsions:
REMARK  status: ('A' for Active; 'I' for Inactive)
ROOT
HETATM    1  N   UNK N   1      -1.175  -1.962   0.000  0.00  0.00    -0.363 N 
ATOM      2  HN  UNK N   1      -0.659  -2.842   0.000  1.00  0.00     0.165 HD
HETATM    3  C   UNK N   1      -2.535  -1.988   0.000  0.00  0.00     0.089 A 
HETATM    4  C   UNK N   1      -3.262  -0.797  -0.000  0.00  0.00     0.024 A 
HETATM    5  C   UNK N   1      -2.590   0.425  -0.000  0.00  0.00    -0.048 A 
HETATM    6  C   UNK N   1      -1.187   0.441  -0.000  0.00  0.00    -0.001 A 
HETATM    7  C   UNK N   1      -0.481   1.650  -0.000  0.00  0.00     0.015 A 
HETATM    8  C   UNK N   1       0.912   1.650   0.000  0.00  0.00     0.015 A 
HETATM    9  C   UNK N   1       1.618   0.441   0.000  0.00  0.00    -0.001 A 
HETATM   10  C   UNK N   1       3.021   0.425   0.000  0.00  0.00    -0.048 A 
HETATM   11  C   UNK N   1       3.693  -0.797   0.000  0.00  0.00     0.024 A 
HETATM   12  C   UNK N   1       2.966  -1.988  -0.000  0.00  0.00     0.089 A 
HETATM   13  N   UNK N   1       1.606  -1.962  -0.000  0.00  0.00    -0.363 N 
ATOM     14  HN  UNK N   1       1.090  -2.842  -0.000  1.00  0.00     0.165 HD
HETATM   15  C   UNK N   1       0.917  -0.787  -0.000  0.00  0.00     0.070 A 
HETATM   16  C   UNK N   1      -0.486  -0.787   0.000  0.00  0.00     0.070 A 
HETATM   17  C   UNK N   1      -3.380   1.692  -0.000  0.00  0.00     0.049 C 
HETATM   18  C   UNK N   1       3.811   1.692   0.000  0.00  0.00     0.049 C 
ENDROOT
TORSDOF 0
