MODEL 1
REMARK VINA RESULT:      -6.7      0.000      0.000
REMARK  0 active torsions:
REMARK  status: ('A' for Active; 'I' for Inactive)
ROOT
HETATM    1  N   UNK N   1      37.266  15.046  15.040  0.00  0.00    -0.363 N 
ATOM      2  HN  UNK N   1      37.783  15.360  14.218  1.00  0.00     0.165 HD
HETATM    3  C   UNK N   1      37.449  15.686  16.226  0.00  0.00     0.089 A 
HETATM    4  C   UNK N   1      36.753  15.274  17.363  0.00  0.00     0.024 A 
HETATM    5  C   UNK N   1      35.865  14.202  17.281  0.00  0.00    -0.048 A 
HETATM    6  C   UNK N   1      35.683  13.548  16.053  0.00  0.00    -0.001 A 
HETATM    7  C   UNK N   1      34.800  12.468  15.936  0.00  0.00     0.015 A 
HETATM    8  C   UNK N   1      34.630  11.830  14.709  0.00  0.00     0.015 A 
HETATM    9  C   UNK N   1      35.341  12.263  13.584  0.00  0.00    -0.001 A 
HETATM   10  C   UNK N   1      35.180  11.630  12.342  0.00  0.00    -0.048 A 
HETATM   11  C   UNK N   1      35.903  12.086  11.240  0.00  0.00     0.024 A 
HETATM   12  C   UNK N   1      36.777  13.165  11.384  0.00  0.00     0.089 A 
HETATM   13  N   UNK N   1      36.926  13.772  12.592  0.00  0.00    -0.363 N 
ATOM     14  HN  UNK N   1      37.569  14.559  12.679  1.00  0.00     0.165 HD
HETATM   15  C   UNK N   1      36.236  13.352  13.688  0.00  0.00     0.070 A 
HETATM   16  C   UNK N   1      36.407  13.995  14.924  0.00  0.00     0.070 A 
HETATM   17  C   UNK N   1      35.126  13.771  18.505  0.00  0.00     0.049 C 
HETATM   18  C   UNK N   1      34.248  10.475  12.175  0.00  0.00     0.049 C 
ENDROOT
TORSDOF 0
ENDMDL
MODEL 2
REMARK VINA RESULT:      -6.5      0.296      4.766
REMARK  0 active torsions:
REMARK  status: ('A' for Active; 'I' for Inactive)
ROOT
HETATM    1  N   UNK N   1      37.090  13.587  12.798  0.00  0.00    -0.363 N 
ATOM      2  HN  UNK N   1      37.705  14.397  12.879  1.00  0.00     0.165 HD
HETATM    3  C   UNK N   1      37.004  12.933  11.608  0.00  0.00     0.089 A 
HETATM    4  C   UNK N   1      36.170  11.823  11.473  0.00  0.00     0.024 A 
HETATM    5  C   UNK N   1      35.420  11.383  12.564  0.00  0.00    -0.048 A 
HETATM    6  C   UNK N   1      35.515  12.064  13.787  0.00  0.00    -0.001 A 
HETATM    7  C   UNK N   1      34.777  11.649  14.901  0.00  0.00     0.015 A 
HETATM    8  C   UNK N   1      34.882  12.336  16.109  0.00  0.00     0.015 A 
HETATM    9  C   UNK N   1      35.727  13.447  16.218  0.00  0.00    -0.001 A 
HETATM   10  C   UNK N   1      35.843  14.149  17.428  0.00  0.00    -0.048 A 
HETATM   11  C   UNK N   1      36.693  15.251  17.502  0.00  0.00     0.024 A 
HETATM   12  C   UNK N   1      37.418  15.645  16.377  0.00  0.00     0.089 A 
HETATM   13  N   UNK N   1      37.299  14.958  15.209  0.00  0.00    -0.363 N 
ATOM     14  HN  UNK N   1      37.836  15.259  14.395  1.00  0.00     0.165 HD
HETATM   15  C   UNK N   1      36.478  13.876  15.100  0.00  0.00     0.070 A 
HETATM   16  C   UNK N   1      36.372  13.185  13.884  0.00  0.00     0.070 A 
HETATM   17  C   UNK N   1      34.531  10.194  12.406  0.00  0.00     0.049 C 
HETATM   18  C   UNK N   1      35.072  13.738  18.639  0.00  0.00     0.049 C 
ENDROOT
TORSDOF 0
ENDMDL
MODEL 3
REMARK VINA RESULT:      -6.3     11.325     12.610
REMARK  0 active torsions:
REMARK  status: ('A' for Active; 'I' for Inactive)
ROOT
HETATM    1  N   UNK N   1      28.678  18.662   9.163  0.00  0.00    -0.363 N 
ATOM      2  HN  UNK N   1      28.076  19.316   9.663  1.00  0.00     0.165 HD
HETATM    3  C   UNK N   1      29.492  17.832   9.869  0.00  0.00     0.089 A 
HETATM    4  C   UNK N   1      30.323  16.928   9.207  0.00  0.00     0.024 A 
HETATM    5  C   UNK N   1      30.318  16.877   7.813  0.00  0.00    -0.048 A 
HETATM    6  C   UNK N   1      29.475  17.736   7.093  0.00  0.00    -0.001 A 
HETATM    7  C   UNK N   1      29.446  17.710   5.694  0.00  0.00     0.015 A 
HETATM    8  C   UNK N   1      28.603  18.570   4.993  0.00  0.00     0.015 A 
HETATM    9  C   UNK N   1      27.779  19.468   5.682  0.00  0.00    -0.001 A 
HETATM   10  C   UNK N   1      26.925  20.340   4.990  0.00  0.00    -0.048 A 
HETATM   11  C   UNK N   1      26.117  21.222   5.707  0.00  0.00     0.024 A 
HETATM   12  C   UNK N   1      26.165  21.228   7.101  0.00  0.00     0.089 A 
HETATM   13  N   UNK N   1      26.996  20.378   7.763  0.00  0.00    -0.363 N 
ATOM     14  HN  UNK N   1      27.019  20.396   8.783  1.00  0.00     0.165 HD
HETATM   15  C   UNK N   1      27.799  19.504   7.095  0.00  0.00     0.070 A 
HETATM   16  C   UNK N   1      28.647  18.638   7.801  0.00  0.00     0.070 A 
HETATM   17  C   UNK N   1      31.213  15.905   7.116  0.00  0.00     0.049 C 
HETATM   18  C   UNK N   1      26.864  20.344   3.498  0.00  0.00     0.049 C 
ENDROOT
TORSDOF 0
ENDMDL
MODEL 4
REMARK VINA RESULT:      -6.3      8.069     10.000
REMARK  0 active torsions:
REMARK  status: ('A' for Active; 'I' for Inactive)
ROOT
HETATM    1  N   UNK N   1      33.138  17.047   9.198  0.00  0.00    -0.363 N 
ATOM      2  HN  UNK N   1      32.835  17.387  10.110  1.00  0.00     0.165 HD
HETATM    3  C   UNK N   1      34.411  16.591   9.047  0.00  0.00     0.089 A 
HETATM    4  C   UNK N   1      34.848  16.122   7.808  0.00  0.00     0.024 A 
HETATM    5  C   UNK N   1      33.976  16.121   6.720  0.00  0.00    -0.048 A 
HETATM    6  C   UNK N   1      32.665  16.594   6.886  0.00  0.00    -0.001 A 
HETATM    7  C   UNK N   1      31.764  16.607   5.814  0.00  0.00     0.015 A 
HETATM    8  C   UNK N   1      30.466  17.080   5.995  0.00  0.00     0.015 A 
HETATM    9  C   UNK N   1      30.052  17.545   7.248  0.00  0.00    -0.001 A 
HETATM   10  C   UNK N   1      28.748  18.024   7.445  0.00  0.00    -0.048 A 
HETATM   11  C   UNK N   1      28.368  18.480   8.707  0.00  0.00     0.024 A 
HETATM   12  C   UNK N   1      29.285  18.456   9.758  0.00  0.00     0.089 A 
HETATM   13  N   UNK N   1      30.547  17.990   9.557  0.00  0.00    -0.363 N 
ATOM     14  HN  UNK N   1      31.205  17.980  10.337  1.00  0.00     0.165 HD
HETATM   15  C   UNK N   1      30.952  17.537   8.338  0.00  0.00     0.070 A 
HETATM   16  C   UNK N   1      32.260  17.061   8.157  0.00  0.00     0.070 A 
HETATM   17  C   UNK N   1      34.457  15.617   5.399  0.00  0.00     0.049 C 
HETATM   18  C   UNK N   1      27.756  18.055   6.329  0.00  0.00     0.049 C 
ENDROOT
TORSDOF 0
ENDMDL
MODEL 5
REMARK VINA RESULT:      -6.3      8.120      9.870
REMARK  0 active torsions:
REMARK  status: ('A' for Active; 'I' for Inactive)
ROOT
HETATM    1  N   UNK N   1      30.517  18.053   9.518  0.00  0.00    -0.363 N 
ATOM      2  HN  UNK N   1      31.191  18.087  10.284  1.00  0.00     0.165 HD
HETATM    3  C   UNK N   1      29.246  18.489   9.730  0.00  0.00     0.089 A 
HETATM    4  C   UNK N   1      28.308  18.451   8.698  0.00  0.00     0.024 A 
HETATM    5  C   UNK N   1      28.676  17.965   7.444  0.00  0.00    -0.048 A 
HETATM    6  C   UNK N   1      29.990  17.518   7.236  0.00  0.00    -0.001 A 
HETATM    7  C   UNK N   1      30.393  17.023   5.990  0.00  0.00     0.015 A 
HETATM    8  C   UNK N   1      31.700  16.583   5.798  0.00  0.00     0.015 A 
HETATM    9  C   UNK N   1      32.623  16.631   6.850  0.00  0.00    -0.001 A 
HETATM   10  C   UNK N   1      33.943  16.191   6.672  0.00  0.00    -0.048 A 
HETATM   11  C   UNK N   1      34.837  16.252   7.741  0.00  0.00     0.024 A 
HETATM   12  C   UNK N   1      34.410  16.749   8.973  0.00  0.00     0.089 A 
HETATM   13  N   UNK N   1      33.128  17.174   9.136  0.00  0.00    -0.363 N 
ATOM     14  HN  UNK N   1      32.833  17.534  10.043  1.00  0.00     0.165 HD
HETATM   15  C   UNK N   1      32.229  17.128   8.114  0.00  0.00     0.070 A 
HETATM   16  C   UNK N   1      30.912  17.571   8.307  0.00  0.00     0.070 A 
HETATM   17  C   UNK N   1      27.663  17.931   6.349  0.00  0.00     0.049 C 
HETATM   18  C   UNK N   1      34.412  15.657   5.359  0.00  0.00     0.049 C 
ENDROOT
TORSDOF 0
ENDMDL
MODEL 6
REMARK VINA RESULT:      -6.1     11.193     12.688
REMARK  0 active torsions:
REMARK  status: ('A' for Active; 'I' for Inactive)
ROOT
HETATM    1  N   UNK N   1      28.025  18.868   4.007  0.00  0.00    -0.363 N 
ATOM      2  HN  UNK N   1      28.429  18.298   3.264  1.00  0.00     0.165 HD
HETATM    3  C   UNK N   1      27.094  19.809   3.692  0.00  0.00     0.089 A 
HETATM    4  C   UNK N   1      26.527  20.600   4.692  0.00  0.00     0.024 A 
HETATM    5  C   UNK N   1      26.918  20.425   6.019  0.00  0.00    -0.048 A 
HETATM    6  C   UNK N   1      27.879  19.453   6.333  0.00  0.00    -0.001 A 
HETATM    7  C   UNK N   1      28.294  19.252   7.655  0.00  0.00     0.015 A 
HETATM    8  C   UNK N   1      29.250  18.282   7.951  0.00  0.00     0.015 A 
HETATM    9  C   UNK N   1      29.803  17.501   6.930  0.00  0.00    -0.001 A 
HETATM   10  C   UNK N   1      30.766  16.521   7.213  0.00  0.00    -0.048 A 
HETATM   11  C   UNK N   1      31.297  15.760   6.172  0.00  0.00     0.024 A 
HETATM   12  C   UNK N   1      30.867  15.980   4.863  0.00  0.00     0.089 A 
HETATM   13  N   UNK N   1      29.933  16.933   4.598  0.00  0.00    -0.363 N 
ATOM     14  HN  UNK N   1      29.629  17.081   3.636  1.00  0.00     0.165 HD
HETATM   15  C   UNK N   1      29.393  17.694   5.591  0.00  0.00     0.070 A 
HETATM   16  C   UNK N   1      28.430  18.671   5.292  0.00  0.00     0.070 A 
HETATM   17  C   UNK N   1      26.303  21.279   7.079  0.00  0.00     0.049 C 
HETATM   18  C   UNK N   1      31.236  16.275   8.609  0.00  0.00     0.049 C 
ENDROOT
TORSDOF 0
ENDMDL
MODEL 7
REMARK VINA RESULT:      -6.1     15.228     17.669
REMARK  0 active torsions:
REMARK  status: ('A' for Active; 'I' for Inactive)
ROOT
HETATM    1  N   UNK N   1      41.128  24.897   0.967  0.00  0.00    -0.363 N 
ATOM      2  HN  UNK N   1      41.714  25.394   1.638  1.00  0.00     0.165 HD
HETATM    3  C   UNK N   1      40.384  25.608   0.078  0.00  0.00     0.089 A 
HETATM    4  C   UNK N   1      39.575  24.950  -0.849  0.00  0.00     0.024 A 
HETATM    5  C   UNK N   1      39.529  23.556  -0.862  0.00  0.00    -0.048 A 
HETATM    6  C   UNK N   1      40.300  22.832   0.059  0.00  0.00    -0.001 A 
HETATM    7  C   UNK N   1      40.277  21.432   0.073  0.00  0.00     0.015 A 
HETATM    8  C   UNK N   1      41.048  20.726   0.994  0.00  0.00     0.015 A 
HETATM    9  C   UNK N   1      41.852  21.410   1.914  0.00  0.00    -0.001 A 
HETATM   10  C   UNK N   1      42.634  20.713   2.847  0.00  0.00    -0.048 A 
HETATM   11  C   UNK N   1      43.423  21.426   3.749  0.00  0.00     0.024 A 
HETATM   12  C   UNK N   1      43.428  22.821   3.714  0.00  0.00     0.089 A 
HETATM   13  N   UNK N   1      42.667  23.487   2.806  0.00  0.00    -0.363 N 
ATOM     14  HN  UNK N   1      42.682  24.507   2.794  1.00  0.00     0.165 HD
HETATM   15  C   UNK N   1      41.884  22.824   1.910  0.00  0.00     0.070 A 
HETATM   16  C   UNK N   1      41.107  23.535   0.983  0.00  0.00     0.070 A 
HETATM   17  C   UNK N   1      38.659  22.865  -1.859  0.00  0.00     0.049 C 
HETATM   18  C   UNK N   1      42.638  19.221   2.895  0.00  0.00     0.049 C 
ENDROOT
TORSDOF 0
ENDMDL
MODEL 8
REMARK VINA RESULT:      -6.1     12.573     14.677
REMARK  0 active torsions:
REMARK  status: ('A' for Active; 'I' for Inactive)
ROOT
HETATM    1  N   UNK N   1      25.166  13.816   8.206  0.00  0.00    -0.363 N 
ATOM      2  HN  UNK N   1      25.879  13.482   8.854  1.00  0.00     0.165 HD
HETATM    3  C   UNK N   1      25.549  14.407   7.042  0.00  0.00     0.089 A 
HETATM    4  C   UNK N   1      24.591  14.872   6.141  0.00  0.00     0.024 A 
HETATM    5  C   UNK N   1      23.235  14.730   6.436  0.00  0.00    -0.048 A 
HETATM    6  C   UNK N   1      22.851  14.120   7.639  0.00  0.00    -0.001 A 
HETATM    7  C   UNK N   1      21.499  13.962   7.966  0.00  0.00     0.015 A 
HETATM    8  C   UNK N   1      21.132  13.354   9.165  0.00  0.00     0.015 A 
HETATM    9  C   UNK N   1      22.113  12.896  10.053  0.00  0.00    -0.001 A 
HETATM   10  C   UNK N   1      21.760  12.282  11.264  0.00  0.00    -0.048 A 
HETATM   11  C   UNK N   1      22.762  11.837  12.125  0.00  0.00     0.024 A 
HETATM   12  C   UNK N   1      24.102  12.006  11.776  0.00  0.00     0.089 A 
HETATM   13  N   UNK N   1      24.435  12.603  10.600  0.00  0.00    -0.363 N 
ATOM     14  HN  UNK N   1      25.419  12.719  10.359  1.00  0.00     0.165 HD
HETATM   15  C   UNK N   1      23.482  13.049   9.734  0.00  0.00     0.070 A 
HETATM   16  C   UNK N   1      23.851  13.662   8.527  0.00  0.00     0.070 A 
HETATM   17  C   UNK N   1      22.220  15.232   5.462  0.00  0.00     0.049 C 
HETATM   18  C   UNK N   1      20.330  12.095  11.650  0.00  0.00     0.049 C 
ENDROOT
TORSDOF 0
ENDMDL
MODEL 9
REMARK VINA RESULT:      -5.8      1.992      2.696
REMARK  0 active torsions:
REMARK  status: ('A' for Active; 'I' for Inactive)
ROOT
HETATM    1  N   UNK N   1      35.253  13.599  17.097  0.00  0.00    -0.363 N 
ATOM      2  HN  UNK N   1      35.254  14.378  16.438  1.00  0.00     0.165 HD
HETATM    3  C   UNK N   1      35.313  13.855  18.431  0.00  0.00     0.089 A 
HETATM    4  C   UNK N   1      35.312  12.806  19.351  0.00  0.00     0.024 A 
HETATM    5  C   UNK N   1      35.251  11.488  18.898  0.00  0.00    -0.048 A 
HETATM    6  C   UNK N   1      35.189  11.234  17.519  0.00  0.00    -0.001 A 
HETATM    7  C   UNK N   1      35.126   9.924  17.031  0.00  0.00     0.015 A 
HETATM    8  C   UNK N   1      35.066   9.687  15.660  0.00  0.00     0.015 A 
HETATM    9  C   UNK N   1      35.067  10.758  14.758  0.00  0.00    -0.001 A 
HETATM   10  C   UNK N   1      35.007  10.536  13.374  0.00  0.00    -0.048 A 
HETATM   11  C   UNK N   1      35.010  11.625  12.503  0.00  0.00     0.024 A 
HETATM   12  C   UNK N   1      35.074  12.922  13.015  0.00  0.00     0.089 A 
HETATM   13  N   UNK N   1      35.132  13.127  14.359  0.00  0.00    -0.363 N 
ATOM     14  HN  UNK N   1      35.178  14.081  14.716  1.00  0.00     0.165 HD
HETATM   15  C   UNK N   1      35.131  12.087  15.238  0.00  0.00     0.070 A 
HETATM   16  C   UNK N   1      35.192  12.325  16.619  0.00  0.00     0.070 A 
HETATM   17  C   UNK N   1      35.251  10.374  19.892  0.00  0.00     0.049 C 
HETATM   18  C   UNK N   1      34.939   9.154  12.813  0.00  0.00     0.049 C 
ENDROOT
TORSDOF 0
ENDMDL
