REMARK  0 active torsions:
REMARK  status: ('A' for Active; 'I' for Inactive)
ROOT
HETATM    1  C   UNK N   1       1.226   0.713  -0.000  0.00  0.00     0.185 A 
HETATM    2  O   UNK N   1       2.281   1.328  -0.000  0.00  0.00    -0.287 OA
HETATM    3  C   UNK N   1       1.231  -0.772   0.000  0.00  0.00    -0.002 A 
HETATM    4  C   UNK N   1       2.546  -1.494   0.000  0.00  0.00     0.053 C 
HETATM    5  C   UNK N   1       0.063  -1.452   0.000  0.00  0.00    -0.002 A 
HETATM    6  C   UNK N   1       0.039  -2.953   0.000  0.00  0.00     0.053 C 
HETATM    7  C   UNK N   1      -1.225  -0.714  -0.000  0.00  0.00     0.185 A 
HETATM    8  O   UNK N   1      -2.281  -1.328  -0.000  0.00  0.00    -0.287 OA
HETATM    9  C   UNK N   1      -1.231   0.772   0.000  0.00  0.00    -0.002 A 
HETATM   10  C   UNK N   1      -2.546   1.493   0.000  0.00  0.00     0.053 C 
HETATM   11  C   UNK N   1      -0.063   1.452   0.000  0.00  0.00    -0.002 A 
HETATM   12  C   UNK N   1      -0.039   2.953   0.000  0.00  0.00     0.053 C 
ENDROOT
TORSDOF 0
