MODEL 1
REMARK VINA RESULT:      -5.4      0.000      0.000
REMARK  0 active torsions:
REMARK  status: ('A' for Active; 'I' for Inactive)
ROOT
HETATM    1  C   UNK N   1      21.387  13.187   9.175  0.00  0.00     0.185 A 
HETATM    2  O   UNK N   1      20.273  13.414   8.727  0.00  0.00    -0.287 OA
HETATM    3  C   UNK N   1      21.539  12.627  10.542  0.00  0.00    -0.002 A 
HETATM    4  C   UNK N   1      20.309  12.348  11.353  0.00  0.00     0.053 C 
HETATM    5  C   UNK N   1      22.771  12.377  11.036  0.00  0.00    -0.002 A 
HETATM    6  C   UNK N   1      22.954  11.811  12.414  0.00  0.00     0.053 C 
HETATM    7  C   UNK N   1      23.973  12.662  10.213  0.00  0.00     0.185 A 
HETATM    8  O   UNK N   1      25.088  12.436  10.659  0.00  0.00    -0.287 OA
HETATM    9  C   UNK N   1      23.822  13.223   8.845  0.00  0.00    -0.002 A 
HETATM   10  C   UNK N   1      25.052  13.502   8.034  0.00  0.00     0.053 C 
HETATM   11  C   UNK N   1      22.589  13.473   8.350  0.00  0.00    -0.002 A 
HETATM   12  C   UNK N   1      22.406  14.039   6.972  0.00  0.00     0.053 C 
ENDROOT
TORSDOF 0
ENDMDL
MODEL 2
REMARK VINA RESULT:      -5.4      0.006      3.320
REMARK  0 active torsions:
REMARK  status: ('A' for Active; 'I' for Inactive)
ROOT
HETATM    1  C   UNK N   1      21.389  13.188   9.173  0.00  0.00     0.185 A 
HETATM    2  O   UNK N   1      20.274  13.412   8.727  0.00  0.00    -0.287 OA
HETATM    3  C   UNK N   1      22.591  13.476   8.350  0.00  0.00    -0.002 A 
HETATM    4  C   UNK N   1      22.409  14.042   6.972  0.00  0.00     0.053 C 
HETATM    5  C   UNK N   1      23.824  13.229   8.844  0.00  0.00    -0.002 A 
HETATM    6  C   UNK N   1      25.056  13.511   8.033  0.00  0.00     0.053 C 
HETATM    7  C   UNK N   1      23.977  12.668  10.210  0.00  0.00     0.185 A 
HETATM    8  O   UNK N   1      25.092  12.444  10.657  0.00  0.00    -0.287 OA
HETATM    9  C   UNK N   1      22.775  12.380  11.035  0.00  0.00    -0.002 A 
HETATM   10  C   UNK N   1      22.958  11.814  12.411  0.00  0.00     0.053 C 
HETATM   11  C   UNK N   1      21.542  12.627  10.541  0.00  0.00    -0.002 A 
HETATM   12  C   UNK N   1      20.310  12.346  11.351  0.00  0.00     0.053 C 
ENDROOT
TORSDOF 0
ENDMDL
MODEL 3
REMARK VINA RESULT:      -5.4      0.042      3.066
REMARK  0 active torsions:
REMARK  status: ('A' for Active; 'I' for Inactive)
ROOT
HETATM    1  C   UNK N   1      23.963  12.688  10.185  0.00  0.00     0.185 A 
HETATM    2  O   UNK N   1      25.081  12.459  10.621  0.00  0.00    -0.287 OA
HETATM    3  C   UNK N   1      22.767  12.392  11.014  0.00  0.00    -0.002 A 
HETATM    4  C   UNK N   1      22.958  11.813  12.385  0.00  0.00     0.053 C 
HETATM    5  C   UNK N   1      21.531  12.645  10.531  0.00  0.00    -0.002 A 
HETATM    6  C   UNK N   1      20.304  12.357  11.347  0.00  0.00     0.053 C 
HETATM    7  C   UNK N   1      21.369  13.219   9.171  0.00  0.00     0.185 A 
HETATM    8  O   UNK N   1      20.251  13.448   8.733  0.00  0.00    -0.287 OA
HETATM    9  C   UNK N   1      22.565  13.514   8.341  0.00  0.00    -0.002 A 
HETATM   10  C   UNK N   1      22.374  14.093   6.971  0.00  0.00     0.053 C 
HETATM   11  C   UNK N   1      23.802  13.261   8.824  0.00  0.00    -0.002 A 
HETATM   12  C   UNK N   1      25.028  13.550   8.008  0.00  0.00     0.053 C 
ENDROOT
TORSDOF 0
ENDMDL
MODEL 4
REMARK VINA RESULT:      -5.3      0.132      4.521
REMARK  0 active torsions:
REMARK  status: ('A' for Active; 'I' for Inactive)
ROOT
HETATM    1  C   UNK N   1      23.996  12.742  10.090  0.00  0.00     0.185 A 
HETATM    2  O   UNK N   1      25.116  12.523  10.523  0.00  0.00    -0.287 OA
HETATM    3  C   UNK N   1      23.823  13.304   8.726  0.00  0.00    -0.002 A 
HETATM    4  C   UNK N   1      25.041  13.595   7.900  0.00  0.00     0.053 C 
HETATM    5  C   UNK N   1      22.582  13.547   8.247  0.00  0.00    -0.002 A 
HETATM    6  C   UNK N   1      22.379  14.115   6.873  0.00  0.00     0.053 C 
HETATM    7  C   UNK N   1      21.393  13.250   9.085  0.00  0.00     0.185 A 
HETATM    8  O   UNK N   1      20.272  13.469   8.652  0.00  0.00    -0.287 OA
HETATM    9  C   UNK N   1      21.565  12.687  10.449  0.00  0.00    -0.002 A 
HETATM   10  C   UNK N   1      20.347  12.397  11.274  0.00  0.00     0.053 C 
HETATM   11  C   UNK N   1      22.806  12.445  10.928  0.00  0.00    -0.002 A 
HETATM   12  C   UNK N   1      23.009  11.877  12.302  0.00  0.00     0.053 C 
ENDROOT
TORSDOF 0
ENDMDL
MODEL 5
REMARK VINA RESULT:      -5.2     20.371     22.407
REMARK  0 active torsions:
REMARK  status: ('A' for Active; 'I' for Inactive)
ROOT
HETATM    1  C   UNK N   1      27.708  28.819  -6.560  0.00  0.00     0.185 A 
HETATM    2  O   UNK N   1      28.427  29.048  -7.520  0.00  0.00    -0.287 OA
HETATM    3  C   UNK N   1      26.841  27.614  -6.552  0.00  0.00    -0.002 A 
HETATM    4  C   UNK N   1      26.866  26.692  -7.736  0.00  0.00     0.053 C 
HETATM    5  C   UNK N   1      26.045  27.360  -5.490  0.00  0.00    -0.002 A 
HETATM    6  C   UNK N   1      25.158  26.149  -5.455  0.00  0.00     0.053 C 
HETATM    7  C   UNK N   1      26.037  28.288  -4.330  0.00  0.00     0.185 A 
HETATM    8  O   UNK N   1      25.318  28.059  -3.370  0.00  0.00    -0.287 OA
HETATM    9  C   UNK N   1      26.905  29.494  -4.337  0.00  0.00    -0.002 A 
HETATM   10  C   UNK N   1      26.879  30.414  -3.154  0.00  0.00     0.053 C 
HETATM   11  C   UNK N   1      27.701  29.747  -5.400  0.00  0.00    -0.002 A 
HETATM   12  C   UNK N   1      28.587  30.958  -5.434  0.00  0.00     0.053 C 
ENDROOT
TORSDOF 0
ENDMDL
MODEL 6
REMARK VINA RESULT:      -5.2     20.391     22.372
REMARK  0 active torsions:
REMARK  status: ('A' for Active; 'I' for Inactive)
ROOT
HETATM    1  C   UNK N   1      26.038  28.283  -4.363  0.00  0.00     0.185 A 
HETATM    2  O   UNK N   1      25.318  28.066  -3.401  0.00  0.00    -0.287 OA
HETATM    3  C   UNK N   1      26.033  27.352  -5.520  0.00  0.00    -0.002 A 
HETATM    4  C   UNK N   1      25.134  26.152  -5.483  0.00  0.00     0.053 C 
HETATM    5  C   UNK N   1      26.831  27.593  -6.584  0.00  0.00    -0.002 A 
HETATM    6  C   UNK N   1      26.846  26.668  -7.767  0.00  0.00     0.053 C 
HETATM    7  C   UNK N   1      27.711  28.788  -6.596  0.00  0.00     0.185 A 
HETATM    8  O   UNK N   1      28.432  29.006  -7.558  0.00  0.00    -0.287 OA
HETATM    9  C   UNK N   1      27.717  29.719  -5.438  0.00  0.00    -0.002 A 
HETATM   10  C   UNK N   1      28.616  30.919  -5.476  0.00  0.00     0.053 C 
HETATM   11  C   UNK N   1      26.919  29.479  -4.374  0.00  0.00    -0.002 A 
HETATM   12  C   UNK N   1      26.904  30.403  -3.191  0.00  0.00     0.053 C 
ENDROOT
TORSDOF 0
ENDMDL
MODEL 7
REMARK VINA RESULT:      -5.2     20.392     22.427
REMARK  0 active torsions:
REMARK  status: ('A' for Active; 'I' for Inactive)
ROOT
HETATM    1  C   UNK N   1      27.722  28.832  -6.562  0.00  0.00     0.185 A 
HETATM    2  O   UNK N   1      28.444  29.062  -7.520  0.00  0.00    -0.287 OA
HETATM    3  C   UNK N   1      27.710  29.757  -5.401  0.00  0.00    -0.002 A 
HETATM    4  C   UNK N   1      28.595  30.968  -5.428  0.00  0.00     0.053 C 
HETATM    5  C   UNK N   1      26.910  29.502  -4.342  0.00  0.00    -0.002 A 
HETATM    6  C   UNK N   1      26.878  30.421  -3.155  0.00  0.00     0.053 C 
HETATM    7  C   UNK N   1      26.043  28.297  -4.340  0.00  0.00     0.185 A 
HETATM    8  O   UNK N   1      25.320  28.066  -3.383  0.00  0.00    -0.287 OA
HETATM    9  C   UNK N   1      26.055  27.371  -5.502  0.00  0.00    -0.002 A 
HETATM   10  C   UNK N   1      25.170  26.160  -5.474  0.00  0.00     0.053 C 
HETATM   11  C   UNK N   1      26.855  27.626  -6.561  0.00  0.00    -0.002 A 
HETATM   12  C   UNK N   1      26.887  26.707  -7.748  0.00  0.00     0.053 C 
ENDROOT
TORSDOF 0
ENDMDL
MODEL 8
REMARK VINA RESULT:      -5.1      1.509      1.920
REMARK  0 active torsions:
REMARK  status: ('A' for Active; 'I' for Inactive)
ROOT
HETATM    1  C   UNK N   1      20.359  14.013   9.536  0.00  0.00     0.185 A 
HETATM    2  O   UNK N   1      19.218  14.305   9.858  0.00  0.00    -0.287 OA
HETATM    3  C   UNK N   1      21.101  12.972  10.291  0.00  0.00    -0.002 A 
HETATM    4  C   UNK N   1      20.427  12.294  11.447  0.00  0.00     0.053 C 
HETATM    5  C   UNK N   1      22.364  12.649   9.934  0.00  0.00    -0.002 A 
HETATM    6  C   UNK N   1      23.137  11.601  10.681  0.00  0.00     0.053 C 
HETATM    7  C   UNK N   1      23.009  13.335   8.786  0.00  0.00     0.185 A 
HETATM    8  O   UNK N   1      24.150  13.043   8.463  0.00  0.00    -0.287 OA
HETATM    9  C   UNK N   1      22.266  14.376   8.030  0.00  0.00    -0.002 A 
HETATM   10  C   UNK N   1      22.941  15.054   6.874  0.00  0.00     0.053 C 
HETATM   11  C   UNK N   1      21.004  14.699   8.387  0.00  0.00    -0.002 A 
HETATM   12  C   UNK N   1      20.230  15.747   7.641  0.00  0.00     0.053 C 
ENDROOT
TORSDOF 0
ENDMDL
MODEL 9
REMARK VINA RESULT:      -5.1      1.508      3.591
REMARK  0 active torsions:
REMARK  status: ('A' for Active; 'I' for Inactive)
ROOT
HETATM    1  C   UNK N   1      20.361  14.013   9.534  0.00  0.00     0.185 A 
HETATM    2  O   UNK N   1      19.220  14.305   9.858  0.00  0.00    -0.287 OA
HETATM    3  C   UNK N   1      21.007  14.698   8.387  0.00  0.00    -0.002 A 
HETATM    4  C   UNK N   1      20.238  15.748   7.640  0.00  0.00     0.053 C 
HETATM    5  C   UNK N   1      22.270  14.374   8.029  0.00  0.00    -0.002 A 
HETATM    6  C   UNK N   1      22.947  15.052   6.873  0.00  0.00     0.053 C 
HETATM    7  C   UNK N   1      23.010  13.333   8.784  0.00  0.00     0.185 A 
HETATM    8  O   UNK N   1      24.151  13.039   8.462  0.00  0.00    -0.287 OA
HETATM    9  C   UNK N   1      22.364  12.646   9.933  0.00  0.00    -0.002 A 
HETATM   10  C   UNK N   1      23.134  11.597  10.679  0.00  0.00     0.053 C 
HETATM   11  C   UNK N   1      21.102  12.970  10.290  0.00  0.00    -0.002 A 
HETATM   12  C   UNK N   1      20.424  12.293  11.446  0.00  0.00     0.053 C 
ENDROOT
TORSDOF 0
ENDMDL
