REMARK  3 active torsions:
REMARK  status: ('A' for Active; 'I' for Inactive)
REMARK    1  A    between atoms: C_2  and  C_8 
REMARK    2  A    between atoms: C_4  and  N_7 
REMARK    3  A    between atoms: N_9  and  C_14 
ROOT
HETATM    1  C   UNK N   1       0.691  -1.116  -0.126  0.00  0.00    -0.002 A 
HETATM    2  C   UNK N   1      -0.519  -1.867   0.017  0.00  0.00    -0.011 A 
HETATM    3  C   UNK N   1      -1.714  -1.163   0.201  0.00  0.00     0.042 A 
HETATM    4  C   UNK N   1      -1.759   0.226   0.284  0.00  0.00     0.033 A 
HETATM    5  C   UNK N   1      -0.568   0.940   0.165  0.00  0.00     0.060 A 
HETATM    6  C   UNK N   1       0.658   0.301  -0.074  0.00  0.00     0.055 A 
HETATM    7  N   UNK N   1       1.859   1.075  -0.264  0.00  0.00    -0.261 N 
HETATM    8  C   UNK N   1       3.048   0.435  -0.519  0.00  0.00     0.328 A 
HETATM    9  N   UNK N   1       3.119  -0.918  -0.566  0.00  0.00    -0.338 N 
HETATM   10  C   UNK N   1       2.001  -1.807  -0.365  0.00  0.00     0.166 A 
HETATM   11  O   UNK N   1       4.061   1.077  -0.748  0.00  0.00    -0.246 OA
HETATM   12  H   UNK N   1       3.997  -1.323  -0.751  0.00  0.00     0.164 HD
ENDROOT
BRANCH   2  13
HETATM   13  C   UNK N   1      -0.595  -3.375  -0.003  0.00  0.00     0.014 A 
HETATM   14  C   UNK N   1       0.555  -4.154   0.213  0.00  0.00     0.018 A 
HETATM   15  C   UNK N   1       0.490  -5.550   0.245  0.00  0.00     0.043 A 
HETATM   16  C   UNK N   1      -0.730  -6.196   0.054  0.00  0.00     0.119 A 
HETATM   17  C   UNK N   1      -1.882  -5.449  -0.177  0.00  0.00     0.085 A 
HETATM   18  F   UNK N   1      -0.797  -7.548   0.092  0.00  0.00    -0.206 F 
HETATM   19  C   UNK N   1      -1.829  -4.053  -0.203  0.00  0.00     0.130 A 
HETATM   20  F   UNK N   1      -2.981  -3.379  -0.448  0.00  0.00    -0.205 F 
ENDBRANCH   2  13
BRANCH   4  21
HETATM   21  N   UNK N   1      -3.009   0.901   0.442  0.00  0.00    -0.378 N 
HETATM   22  C   UNK N   1      -4.238   0.108   0.463  0.00  0.00     0.142 C 
HETATM   23  C   UNK N   1      -5.510   0.933   0.626  0.00  0.00     0.133 C 
HETATM   24  N   UNK N   1      -5.393   2.183  -0.101  0.00  0.00    -0.418 N 
HETATM   25  C   UNK N   1      -4.416   2.964   0.635  0.00  0.00     0.133 C 
HETATM   26  H   UNK N   1      -5.890   2.455  -0.949  0.00  0.00     0.153 HD
HETATM   27  C   UNK N   1      -3.024   2.363   0.462  0.00  0.00     0.142 C 
ENDBRANCH   4  21
BRANCH   7  28
HETATM   28  C   UNK N   1       1.824   2.524  -0.211  0.00  0.00     0.087 A 
HETATM   29  C   UNK N   1       0.945   3.275  -1.045  0.00  0.00     0.063 A 
HETATM   30  C   UNK N   1       0.926   4.670  -0.968  0.00  0.00     0.026 A 
HETATM   31 Cl   UNK N   1      -0.077   2.536  -2.275  0.00  0.00    -0.082 Cl
HETATM   32  C   UNK N   1       1.758   5.346  -0.084  0.00  0.00     0.003 A 
HETATM   33  C   UNK N   1       2.634   4.634   0.728  0.00  0.00     0.026 A 
HETATM   34  C   UNK N   1       2.682   3.239   0.675  0.00  0.00     0.063 A 
HETATM   35 Cl   UNK N   1       3.785   2.435   1.787  0.00  0.00    -0.082 Cl
ENDBRANCH   7  28
TORSDOF 3
