MODEL 1
REMARK VINA RESULT:      -8.0      0.000      0.000
REMARK  3 active torsions:
REMARK  status: ('A' for Active; 'I' for Inactive)
REMARK    1  A    between atoms: C_2  and  C_8 
REMARK    2  A    between atoms: C_4  and  N_7 
REMARK    3  A    between atoms: N_9  and  C_14 
ROOT
HETATM    1  C   UNK N   1      30.577  17.097   7.692  0.00  0.00    -0.002 A 
HETATM    2  C   UNK N   1      31.766  16.312   7.551  0.00  0.00    -0.011 A 
HETATM    3  C   UNK N   1      31.898  15.516   6.408  0.00  0.00     0.042 A 
HETATM    4  C   UNK N   1      30.908  15.437   5.433  0.00  0.00     0.033 A 
HETATM    5  C   UNK N   1      29.747  16.191   5.598  0.00  0.00     0.060 A 
HETATM    6  C   UNK N   1      29.572  17.050   6.693  0.00  0.00     0.055 A 
HETATM    7  N   UNK N   1      28.391  17.870   6.795  0.00  0.00    -0.261 N 
HETATM    8  C   UNK N   1      28.244  18.722   7.863  0.00  0.00     0.328 A 
HETATM    9  N   UNK N   1      29.179  18.786   8.842  0.00  0.00    -0.338 N 
HETATM   10  C   UNK N   1      30.389  18.001   8.875  0.00  0.00     0.166 A 
HETATM   11  O   UNK N   1      27.282  19.471   7.930  0.00  0.00    -0.246 OA
HETATM   12  H   UNK N   1      29.022  19.414   9.584  0.00  0.00     0.164 HD
ENDROOT
BRANCH   2  13
HETATM   13  C   UNK N   1      32.887  16.272   8.561  0.00  0.00     0.014 A 
HETATM   14  C   UNK N   1      33.026  15.179   9.435  0.00  0.00     0.018 A 
HETATM   15  C   UNK N   1      34.088  15.107  10.342  0.00  0.00     0.043 A 
HETATM   16  C   UNK N   1      35.029  16.133  10.397  0.00  0.00     0.119 A 
HETATM   17  C   UNK N   1      34.907  17.233   9.554  0.00  0.00     0.085 A 
HETATM   18  F   UNK N   1      36.062  16.061  11.270  0.00  0.00    -0.206 F 
HETATM   19  C   UNK N   1      33.854  17.312   8.638  0.00  0.00     0.130 A 
HETATM   20  F   UNK N   1      33.778  18.416   7.853  0.00  0.00    -0.205 F 
ENDBRANCH   2  13
BRANCH   4  21
HETATM   21  N   UNK N   1      31.103  14.633   4.267  0.00  0.00    -0.378 N 
HETATM   22  C   UNK N   1      29.934  14.043   3.616  0.00  0.00     0.142 C 
HETATM   23  C   UNK N   1      30.262  13.198   2.390  0.00  0.00     0.133 C 
HETATM   24  N   UNK N   1      31.496  12.466   2.602  0.00  0.00    -0.418 N 
HETATM   25  C   UNK N   1      32.545  13.469   2.582  0.00  0.00     0.133 C 
HETATM   26  H   UNK N   1      31.605  11.461   2.738  0.00  0.00     0.153 HD
HETATM   27  C   UNK N   1      32.468  14.336   3.835  0.00  0.00     0.142 C 
ENDBRANCH   4  21
BRANCH   7  28
HETATM   28  C   UNK N   1      27.363  17.821   5.772  0.00  0.00     0.087 A 
HETATM   29  C   UNK N   1      27.322  18.780   4.718  0.00  0.00     0.063 A 
HETATM   30  C   UNK N   1      26.326  18.706   3.741  0.00  0.00     0.026 A 
HETATM   31 Cl   UNK N   1      28.421  20.154   4.625  0.00  0.00    -0.082 Cl
HETATM   32  C   UNK N   1      25.364  17.704   3.779  0.00  0.00     0.003 A 
HETATM   33  C   UNK N   1      25.377  16.767   4.807  0.00  0.00     0.026 A 
HETATM   34  C   UNK N   1      26.356  16.813   5.802  0.00  0.00     0.063 A 
HETATM   35 Cl   UNK N   1      26.314  15.545   7.023  0.00  0.00    -0.082 Cl
ENDBRANCH   7  28
TORSDOF 3
ENDMDL
MODEL 2
REMARK VINA RESULT:      -8.0      0.061      1.619
REMARK  3 active torsions:
REMARK  status: ('A' for Active; 'I' for Inactive)
REMARK    1  A    between atoms: C_2  and  C_8 
REMARK    2  A    between atoms: C_4  and  N_7 
REMARK    3  A    between atoms: N_9  and  C_14 
ROOT
HETATM    1  C   UNK N   1      30.546  17.105   7.671  0.00  0.00    -0.002 A 
HETATM    2  C   UNK N   1      31.732  16.317   7.525  0.00  0.00    -0.011 A 
HETATM    3  C   UNK N   1      31.852  15.512   6.387  0.00  0.00     0.042 A 
HETATM    4  C   UNK N   1      30.852  15.427   5.422  0.00  0.00     0.033 A 
HETATM    5  C   UNK N   1      29.695  16.185   5.592  0.00  0.00     0.060 A 
HETATM    6  C   UNK N   1      29.532  17.053   6.682  0.00  0.00     0.055 A 
HETATM    7  N   UNK N   1      28.353  17.876   6.789  0.00  0.00    -0.261 N 
HETATM    8  C   UNK N   1      28.218  18.737   7.851  0.00  0.00     0.328 A 
HETATM    9  N   UNK N   1      29.163  18.806   8.821  0.00  0.00    -0.338 N 
HETATM   10  C   UNK N   1      30.371  18.019   8.848  0.00  0.00     0.166 A 
HETATM   11  O   UNK N   1      27.258  19.488   7.922  0.00  0.00    -0.246 OA
HETATM   12  H   UNK N   1      29.014  19.440   9.559  0.00  0.00     0.164 HD
ENDROOT
BRANCH   2  13
HETATM   13  C   UNK N   1      32.863  16.282   8.525  0.00  0.00     0.014 A 
HETATM   14  C   UNK N   1      33.015  15.190   9.397  0.00  0.00     0.018 A 
HETATM   15  C   UNK N   1      34.085  15.123  10.295  0.00  0.00     0.043 A 
HETATM   16  C   UNK N   1      35.022  16.153  10.342  0.00  0.00     0.119 A 
HETATM   17  C   UNK N   1      34.886  17.253   9.499  0.00  0.00     0.085 A 
HETATM   18  F   UNK N   1      36.063  16.087  11.205  0.00  0.00    -0.206 F 
HETATM   19  C   UNK N   1      33.825  17.327   8.593  0.00  0.00     0.130 A 
HETATM   20  F   UNK N   1      33.736  18.430   7.809  0.00  0.00    -0.205 F 
ENDBRANCH   2  13
BRANCH   4  21
HETATM   21  N   UNK N   1      31.035  14.614   4.260  0.00  0.00    -0.378 N 
HETATM   22  C   UNK N   1      29.858  14.026   3.621  0.00  0.00     0.142 C 
HETATM   23  C   UNK N   1      30.173  13.171   2.399  0.00  0.00     0.133 C 
HETATM   24  N   UNK N   1      31.404  12.433   2.608  0.00  0.00    -0.418 N 
HETATM   25  C   UNK N   1      32.459  13.430   2.574  0.00  0.00     0.133 C 
HETATM   26  H   UNK N   1      31.508  11.428   2.751  0.00  0.00     0.153 HD
HETATM   27  C   UNK N   1      32.396  14.305   3.822  0.00  0.00     0.142 C 
ENDBRANCH   4  21
BRANCH   7  28
HETATM   28  C   UNK N   1      27.316  17.822   5.776  0.00  0.00     0.087 A 
HETATM   29  C   UNK N   1      26.304  16.818   5.804  0.00  0.00     0.063 A 
HETATM   30  C   UNK N   1      25.312  16.794   4.820  0.00  0.00     0.026 A 
HETATM   31 Cl   UNK N   1      26.284  15.507   6.981  0.00  0.00    -0.082 Cl
HETATM   32  C   UNK N   1      25.295  17.740   3.803  0.00  0.00     0.003 A 
HETATM   33  C   UNK N   1      26.281  18.719   3.748  0.00  0.00     0.026 A 
HETATM   34  C   UNK N   1      27.290  18.771   4.713  0.00  0.00     0.063 A 
HETATM   35 Cl   UNK N   1      28.454  20.085   4.581  0.00  0.00    -0.082 Cl
ENDBRANCH   7  28
TORSDOF 3
ENDMDL
MODEL 3
REMARK VINA RESULT:      -7.9      8.099      9.866
REMARK  3 active torsions:
REMARK  status: ('A' for Active; 'I' for Inactive)
REMARK    1  A    between atoms: C_2  and  C_8 
REMARK    2  A    between atoms: C_4  and  N_7 
REMARK    3  A    between atoms: N_9  and  C_14 
ROOT
HETATM    1  C   UNK N   1      23.255  12.023   6.731  0.00  0.00    -0.002 A 
HETATM    2  C   UNK N   1      23.142  12.954   7.812  0.00  0.00    -0.011 A 
HETATM    3  C   UNK N   1      22.984  14.309   7.501  0.00  0.00     0.042 A 
HETATM    4  C   UNK N   1      22.968  14.779   6.191  0.00  0.00     0.033 A 
HETATM    5  C   UNK N   1      23.101  13.861   5.151  0.00  0.00     0.060 A 
HETATM    6  C   UNK N   1      23.210  12.482   5.390  0.00  0.00     0.055 A 
HETATM    7  N   UNK N   1      23.274  11.554   4.289  0.00  0.00    -0.261 N 
HETATM    8  C   UNK N   1      23.359  10.206   4.539  0.00  0.00     0.328 A 
HETATM    9  N   UNK N   1      23.414   9.731   5.808  0.00  0.00    -0.338 N 
HETATM   10  C   UNK N   1      23.388  10.552   6.994  0.00  0.00     0.166 A 
HETATM   11  O   UNK N   1      23.347   9.403   3.620  0.00  0.00    -0.246 OA
HETATM   12  H   UNK N   1      23.475   8.756   5.929  0.00  0.00     0.164 HD
ENDROOT
BRANCH   2  13
HETATM   13  C   UNK N   1      23.197  12.576   9.273  0.00  0.00     0.014 A 
HETATM   14  C   UNK N   1      24.430  12.366   9.914  0.00  0.00     0.018 A 
HETATM   15  C   UNK N   1      24.496  12.063  11.277  0.00  0.00     0.043 A 
HETATM   16  C   UNK N   1      23.326  11.958  12.026  0.00  0.00     0.119 A 
HETATM   17  C   UNK N   1      22.090  12.147  11.413  0.00  0.00     0.085 A 
HETATM   18  F   UNK N   1      23.388  11.672  13.349  0.00  0.00    -0.206 F 
HETATM   19  C   UNK N   1      22.013  12.458  10.053  0.00  0.00     0.130 A 
HETATM   20  F   UNK N   1      20.781  12.615   9.507  0.00  0.00    -0.205 F 
ENDBRANCH   2  13
BRANCH   4  21
HETATM   21  N   UNK N   1      22.772  16.170   5.924  0.00  0.00    -0.378 N 
HETATM   22  C   UNK N   1      21.579  16.827   6.457  0.00  0.00     0.142 C 
HETATM   23  C   UNK N   1      21.470  18.305   6.102  0.00  0.00     0.133 C 
HETATM   24  N   UNK N   1      21.958  18.534   4.755  0.00  0.00    -0.418 N 
HETATM   25  C   UNK N   1      23.393  18.335   4.829  0.00  0.00     0.133 C 
HETATM   26  H   UNK N   1      21.410  18.782   3.931  0.00  0.00     0.153 HD
HETATM   27  C   UNK N   1      23.709  16.856   5.035  0.00  0.00     0.142 C 
ENDBRANCH   4  21
BRANCH   7  28
HETATM   28  C   UNK N   1      23.228  12.025   2.918  0.00  0.00     0.087 A 
HETATM   29  C   UNK N   1      24.421  12.329   2.198  0.00  0.00     0.063 A 
HETATM   30  C   UNK N   1      24.348  12.774   0.876  0.00  0.00     0.026 A 
HETATM   31 Cl   UNK N   1      26.023  12.273   2.928  0.00  0.00    -0.082 Cl
HETATM   32  C   UNK N   1      23.121  12.928   0.242  0.00  0.00     0.003 A 
HETATM   33  C   UNK N   1      21.944  12.652   0.931  0.00  0.00     0.026 A 
HETATM   34  C   UNK N   1      21.980  12.209   2.255  0.00  0.00     0.063 A 
HETATM   35 Cl   UNK N   1      20.435  11.833   3.013  0.00  0.00    -0.082 Cl
ENDBRANCH   7  28
TORSDOF 3
ENDMDL
MODEL 4
REMARK VINA RESULT:      -7.8      8.186     10.011
REMARK  3 active torsions:
REMARK  status: ('A' for Active; 'I' for Inactive)
REMARK    1  A    between atoms: C_2  and  C_8 
REMARK    2  A    between atoms: C_4  and  N_7 
REMARK    3  A    between atoms: N_9  and  C_14 
ROOT
HETATM    1  C   UNK N   1      22.989  12.097   6.645  0.00  0.00    -0.002 A 
HETATM    2  C   UNK N   1      22.816  13.043   7.705  0.00  0.00    -0.011 A 
HETATM    3  C   UNK N   1      22.617  14.386   7.364  0.00  0.00     0.042 A 
HETATM    4  C   UNK N   1      22.617  14.830   6.045  0.00  0.00     0.033 A 
HETATM    5  C   UNK N   1      22.810  13.898   5.027  0.00  0.00     0.060 A 
HETATM    6  C   UNK N   1      22.962  12.529   5.295  0.00  0.00     0.055 A 
HETATM    7  N   UNK N   1      23.086  11.584   4.214  0.00  0.00    -0.261 N 
HETATM    8  C   UNK N   1      23.212  10.244   4.493  0.00  0.00     0.328 A 
HETATM    9  N   UNK N   1      23.252   9.796   5.772  0.00  0.00    -0.338 N 
HETATM   10  C   UNK N   1      23.167  10.637   6.941  0.00  0.00     0.166 A 
HETATM   11  O   UNK N   1      23.252   9.424   3.589  0.00  0.00    -0.246 OA
HETATM   12  H   UNK N   1      23.345   8.826   5.913  0.00  0.00     0.164 HD
ENDROOT
BRANCH   2  13
HETATM   13  C   UNK N   1      22.847  12.695   9.174  0.00  0.00     0.014 A 
HETATM   14  C   UNK N   1      21.653  12.483   9.886  0.00  0.00     0.018 A 
HETATM   15  C   UNK N   1      21.669  12.114  11.234  0.00  0.00     0.043 A 
HETATM   16  C   UNK N   1      22.883  11.955  11.900  0.00  0.00     0.119 A 
HETATM   17  C   UNK N   1      24.080  12.173  11.222  0.00  0.00     0.085 A 
HETATM   18  F   UNK N   1      22.901  11.589  13.204  0.00  0.00    -0.206 F 
HETATM   19  C   UNK N   1      24.075  12.535   9.873  0.00  0.00     0.130 A 
HETATM   20  F   UNK N   1      25.271  12.750   9.269  0.00  0.00    -0.205 F 
ENDBRANCH   2  13
BRANCH   4  21
HETATM   21  N   UNK N   1      22.379  16.208   5.746  0.00  0.00    -0.378 N 
HETATM   22  C   UNK N   1      21.493  16.974   6.622  0.00  0.00     0.142 C 
HETATM   23  C   UNK N   1      21.305  18.428   6.201  0.00  0.00     0.133 C 
HETATM   24  N   UNK N   1      21.260  18.529   4.755  0.00  0.00    -0.418 N 
HETATM   25  C   UNK N   1      22.612  18.246   4.309  0.00  0.00     0.133 C 
HETATM   26  H   UNK N   1      20.452  18.750   4.174  0.00  0.00     0.153 HD
HETATM   27  C   UNK N   1      22.936  16.769   4.516  0.00  0.00     0.142 C 
ENDBRANCH   4  21
BRANCH   7  28
HETATM   28  C   UNK N   1      23.058  12.027   2.833  0.00  0.00     0.087 A 
HETATM   29  C   UNK N   1      21.830  12.148   2.119  0.00  0.00     0.063 A 
HETATM   30  C   UNK N   1      21.831  12.585   0.792  0.00  0.00     0.026 A 
HETATM   31 Cl   UNK N   1      20.275  11.670   2.794  0.00  0.00    -0.082 Cl
HETATM   32  C   UNK N   1      23.020  12.907   0.149  0.00  0.00     0.003 A 
HETATM   33  C   UNK N   1      24.230  12.782   0.822  0.00  0.00     0.026 A 
HETATM   34  C   UNK N   1      24.267  12.345   2.148  0.00  0.00     0.063 A 
HETATM   35 Cl   UNK N   1      25.846  12.278   2.923  0.00  0.00    -0.082 Cl
ENDBRANCH   7  28
TORSDOF 3
ENDMDL
MODEL 5
REMARK VINA RESULT:      -7.8      4.646      6.694
REMARK  3 active torsions:
REMARK  status: ('A' for Active; 'I' for Inactive)
REMARK    1  A    between atoms: C_2  and  C_8 
REMARK    2  A    between atoms: C_4  and  N_7 
REMARK    3  A    between atoms: N_9  and  C_14 
ROOT
HETATM    1  C   UNK N   1      34.911  14.351  10.682  0.00  0.00    -0.002 A 
HETATM    2  C   UNK N   1      34.928  13.015  11.195  0.00  0.00    -0.011 A 
HETATM    3  C   UNK N   1      34.394  11.996  10.399  0.00  0.00     0.042 A 
HETATM    4  C   UNK N   1      33.821  12.242   9.154  0.00  0.00     0.033 A 
HETATM    5  C   UNK N   1      33.793  13.552   8.680  0.00  0.00     0.060 A 
HETATM    6  C   UNK N   1      34.358  14.613   9.403  0.00  0.00     0.055 A 
HETATM    7  N   UNK N   1      34.376  15.944   8.850  0.00  0.00    -0.261 N 
HETATM    8  C   UNK N   1      34.953  16.969   9.560  0.00  0.00     0.328 A 
HETATM    9  N   UNK N   1      35.482  16.757  10.791  0.00  0.00    -0.338 N 
HETATM   10  C   UNK N   1      35.502  15.484  11.468  0.00  0.00     0.166 A 
HETATM   11  O   UNK N   1      35.036  18.088   9.079  0.00  0.00    -0.246 OA
HETATM   12  H   UNK N   1      35.881  17.528  11.255  0.00  0.00     0.164 HD
ENDROOT
BRANCH   2  13
HETATM   13  C   UNK N   1      35.472  12.627  12.549  0.00  0.00     0.014 A 
HETATM   14  C   UNK N   1      34.617  12.506  13.658  0.00  0.00     0.018 A 
HETATM   15  C   UNK N   1      35.101  12.102  14.906  0.00  0.00     0.043 A 
HETATM   16  C   UNK N   1      36.455  11.816  15.071  0.00  0.00     0.119 A 
HETATM   17  C   UNK N   1      37.326  11.943  13.992  0.00  0.00     0.085 A 
HETATM   18  F   UNK N   1      36.924  11.417  16.276  0.00  0.00    -0.206 F 
HETATM   19  C   UNK N   1      36.852  12.339  12.739  0.00  0.00     0.130 A 
HETATM   20  F   UNK N   1      37.751  12.459  11.730  0.00  0.00    -0.205 F 
ENDBRANCH   2  13
BRANCH   4  21
HETATM   21  N   UNK N   1      33.316  11.162   8.364  0.00  0.00    -0.378 N 
HETATM   22  C   UNK N   1      33.355  11.280   6.907  0.00  0.00     0.142 C 
HETATM   23  C   UNK N   1      32.782  10.075   6.168  0.00  0.00     0.133 C 
HETATM   24  N   UNK N   1      31.635   9.548   6.884  0.00  0.00    -0.418 N 
HETATM   25  C   UNK N   1      32.178   8.948   8.089  0.00  0.00     0.133 C 
HETATM   26  H   UNK N   1      30.656   9.591   6.602  0.00  0.00     0.153 HD
HETATM   27  C   UNK N   1      32.676  10.034   9.039  0.00  0.00     0.142 C 
ENDBRANCH   4  21
BRANCH   7  28
HETATM   28  C   UNK N   1      33.811  16.212   7.541  0.00  0.00     0.087 A 
HETATM   29  C   UNK N   1      32.549  16.859   7.397  0.00  0.00     0.063 A 
HETATM   30  C   UNK N   1      32.031  17.111   6.124  0.00  0.00     0.026 A 
HETATM   31 Cl   UNK N   1      31.524  17.282   8.766  0.00  0.00    -0.082 Cl
HETATM   32  C   UNK N   1      32.731  16.738   4.983  0.00  0.00     0.003 A 
HETATM   33  C   UNK N   1      33.957  16.092   5.101  0.00  0.00     0.026 A 
HETATM   34  C   UNK N   1      34.503  15.821   6.358  0.00  0.00     0.063 A 
HETATM   35 Cl   UNK N   1      36.086  15.052   6.391  0.00  0.00    -0.082 Cl
ENDBRANCH   7  28
TORSDOF 3
ENDMDL
MODEL 6
REMARK VINA RESULT:      -7.8      4.628      6.860
REMARK  3 active torsions:
REMARK  status: ('A' for Active; 'I' for Inactive)
REMARK    1  A    between atoms: C_2  and  C_8 
REMARK    2  A    between atoms: C_4  and  N_7 
REMARK    3  A    between atoms: N_9  and  C_14 
ROOT
HETATM    1  C   UNK N   1      34.769  14.268   9.923  0.00  0.00    -0.002 A 
HETATM    2  C   UNK N   1      35.998  13.680  10.363  0.00  0.00    -0.011 A 
HETATM    3  C   UNK N   1      37.041  13.563   9.438  0.00  0.00     0.042 A 
HETATM    4  C   UNK N   1      36.912  13.961   8.110  0.00  0.00     0.033 A 
HETATM    5  C   UNK N   1      35.700  14.510   7.693  0.00  0.00     0.060 A 
HETATM    6  C   UNK N   1      34.632  14.706   8.581  0.00  0.00     0.055 A 
HETATM    7  N   UNK N   1      33.419  15.343   8.133  0.00  0.00    -0.261 N 
HETATM    8  C   UNK N   1      32.390  15.548   9.020  0.00  0.00     0.328 A 
HETATM    9  N   UNK N   1      32.482  15.133  10.307  0.00  0.00    -0.338 N 
HETATM   10  C   UNK N   1      33.624  14.459  10.873  0.00  0.00     0.166 A 
HETATM   11  O   UNK N   1      31.382  16.145   8.674  0.00  0.00    -0.246 OA
HETATM   12  H   UNK N   1      31.713  15.305  10.898  0.00  0.00     0.164 HD
ENDROOT
BRANCH   2  13
HETATM   13  C   UNK N   1      36.244  13.163  11.760  0.00  0.00     0.014 A 
HETATM   14  C   UNK N   1      36.392  11.786  11.999  0.00  0.00     0.018 A 
HETATM   15  C   UNK N   1      36.669  11.298  13.280  0.00  0.00     0.043 A 
HETATM   16  C   UNK N   1      36.796  12.181  14.350  0.00  0.00     0.119 A 
HETATM   17  C   UNK N   1      36.639  13.549  14.144  0.00  0.00     0.085 A 
HETATM   18  F   UNK N   1      37.071  11.711  15.590  0.00  0.00    -0.206 F 
HETATM   19  C   UNK N   1      36.371  14.047  12.867  0.00  0.00     0.130 A 
HETATM   20  F   UNK N   1      36.212  15.388  12.729  0.00  0.00    -0.205 F 
ENDBRANCH   2  13
BRANCH   4  21
HETATM   21  N   UNK N   1      38.017  13.848   7.210  0.00  0.00    -0.378 N 
HETATM   22  C   UNK N   1      39.337  13.533   7.756  0.00  0.00     0.142 C 
HETATM   23  C   UNK N   1      40.441  13.448   6.707  0.00  0.00     0.133 C 
HETATM   24  N   UNK N   1      40.233  14.450   5.678  0.00  0.00    -0.418 N 
HETATM   25  C   UNK N   1      39.065  14.006   4.941  0.00  0.00     0.133 C 
HETATM   26  H   UNK N   1      40.789  15.289   5.510  0.00  0.00     0.153 HD
HETATM   27  C   UNK N   1      37.811  14.163   5.797  0.00  0.00     0.142 C 
ENDBRANCH   4  21
BRANCH   7  28
HETATM   28  C   UNK N   1      33.280  15.791   6.760  0.00  0.00     0.087 A 
HETATM   29  C   UNK N   1      32.829  14.910   5.735  0.00  0.00     0.063 A 
HETATM   30  C   UNK N   1      32.697  15.370   4.422  0.00  0.00     0.026 A 
HETATM   31 Cl   UNK N   1      32.516  13.198   6.009  0.00  0.00    -0.082 Cl
HETATM   32  C   UNK N   1      33.000  16.686   4.094  0.00  0.00     0.003 A 
HETATM   33  C   UNK N   1      33.455  17.559   5.076  0.00  0.00     0.026 A 
HETATM   34  C   UNK N   1      33.603  17.132   6.398  0.00  0.00     0.063 A 
HETATM   35 Cl   UNK N   1      34.131  18.334   7.571  0.00  0.00    -0.082 Cl
ENDBRANCH   7  28
TORSDOF 3
ENDMDL
MODEL 7
REMARK VINA RESULT:      -7.7      6.492      9.124
REMARK  3 active torsions:
REMARK  status: ('A' for Active; 'I' for Inactive)
REMARK    1  A    between atoms: C_2  and  C_8 
REMARK    2  A    between atoms: C_4  and  N_7 
REMARK    3  A    between atoms: N_9  and  C_14 
ROOT
HETATM    1  C   UNK N   1      35.463  13.170  12.760  0.00  0.00    -0.002 A 
HETATM    2  C   UNK N   1      35.139  11.991  13.505  0.00  0.00    -0.011 A 
HETATM    3  C   UNK N   1      34.581  10.909  12.816  0.00  0.00     0.042 A 
HETATM    4  C   UNK N   1      34.302  10.953  11.453  0.00  0.00     0.033 A 
HETATM    5  C   UNK N   1      34.603  12.117  10.748  0.00  0.00     0.060 A 
HETATM    6  C   UNK N   1      35.212  13.220  11.365  0.00  0.00     0.055 A 
HETATM    7  N   UNK N   1      35.575  14.380  10.591  0.00  0.00    -0.261 N 
HETATM    8  C   UNK N   1      36.191  15.444  11.206  0.00  0.00     0.328 A 
HETATM    9  N   UNK N   1      36.438  15.435  12.539  0.00  0.00    -0.338 N 
HETATM   10  C   UNK N   1      36.099  14.352  13.430  0.00  0.00     0.166 A 
HETATM   11  O   UNK N   1      36.566  16.405  10.554  0.00  0.00    -0.246 OA
HETATM   12  H   UNK N   1      36.880  16.224  12.927  0.00  0.00     0.164 HD
ENDROOT
BRANCH   2  13
HETATM   13  C   UNK N   1      35.346  11.838  14.993  0.00  0.00     0.014 A 
HETATM   14  C   UNK N   1      34.706  12.702  15.899  0.00  0.00     0.018 A 
HETATM   15  C   UNK N   1      34.850  12.541  17.280  0.00  0.00     0.043 A 
HETATM   16  C   UNK N   1      35.646  11.514  17.783  0.00  0.00     0.119 A 
HETATM   17  C   UNK N   1      36.304  10.654  16.908  0.00  0.00     0.085 A 
HETATM   18  F   UNK N   1      35.782  11.352  19.120  0.00  0.00    -0.206 F 
HETATM   19  C   UNK N   1      36.160  10.801  15.526  0.00  0.00     0.130 A 
HETATM   20  F   UNK N   1      36.837   9.942  14.723  0.00  0.00    -0.205 F 
ENDBRANCH   2  13
BRANCH   4  21
HETATM   21  N   UNK N   1      33.760   9.810  10.788  0.00  0.00    -0.378 N 
HETATM   22  C   UNK N   1      32.709  10.010   9.790  0.00  0.00     0.142 C 
HETATM   23  C   UNK N   1      32.200   8.721   9.154  0.00  0.00     0.133 C 
HETATM   24  N   UNK N   1      32.154   7.659  10.141  0.00  0.00    -0.418 N 
HETATM   25  C   UNK N   1      33.541   7.341  10.426  0.00  0.00     0.133 C 
HETATM   26  H   UNK N   1      31.325   7.228  10.550  0.00  0.00     0.153 HD
HETATM   27  C   UNK N   1      34.191   8.478  11.210  0.00  0.00     0.142 C 
ENDBRANCH   4  21
BRANCH   7  28
HETATM   28  C   UNK N   1      35.319  14.430   9.164  0.00  0.00     0.087 A 
HETATM   29  C   UNK N   1      34.052  14.840   8.653  0.00  0.00     0.063 A 
HETATM   30  C   UNK N   1      33.834  14.886   7.274  0.00  0.00     0.026 A 
HETATM   31 Cl   UNK N   1      32.672  15.204   9.686  0.00  0.00    -0.082 Cl
HETATM   32  C   UNK N   1      34.840  14.537   6.381  0.00  0.00     0.003 A 
HETATM   33  C   UNK N   1      36.078  14.120   6.858  0.00  0.00     0.026 A 
HETATM   34  C   UNK N   1      36.330  14.058   8.231  0.00  0.00     0.063 A 
HETATM   35 Cl   UNK N   1      37.949  13.574   8.725  0.00  0.00    -0.082 Cl
ENDBRANCH   7  28
TORSDOF 3
ENDMDL
MODEL 8
REMARK VINA RESULT:      -7.5      5.262      9.372
REMARK  3 active torsions:
REMARK  status: ('A' for Active; 'I' for Inactive)
REMARK    1  A    between atoms: C_2  and  C_8 
REMARK    2  A    between atoms: C_4  and  N_7 
REMARK    3  A    between atoms: N_9  and  C_14 
ROOT
HETATM    1  C   UNK N   1      25.829  15.363   2.984  0.00  0.00    -0.002 A 
HETATM    2  C   UNK N   1      24.567  14.720   2.776  0.00  0.00    -0.011 A 
HETATM    3  C   UNK N   1      23.469  15.167   3.519  0.00  0.00     0.042 A 
HETATM    4  C   UNK N   1      23.570  16.180   4.469  0.00  0.00     0.033 A 
HETATM    5  C   UNK N   1      24.812  16.780   4.674  0.00  0.00     0.060 A 
HETATM    6  C   UNK N   1      25.942  16.418   3.926  0.00  0.00     0.055 A 
HETATM    7  N   UNK N   1      27.193  17.109   4.114  0.00  0.00    -0.261 N 
HETATM    8  C   UNK N   1      28.285  16.757   3.357  0.00  0.00     0.328 A 
HETATM    9  N   UNK N   1      28.216  15.748   2.455  0.00  0.00    -0.338 N 
HETATM   10  C   UNK N   1      27.037  14.960   2.192  0.00  0.00     0.166 A 
HETATM   11  O   UNK N   1      29.333  17.376   3.457  0.00  0.00    -0.246 OA
HETATM   12  H   UNK N   1      29.030  15.537   1.942  0.00  0.00     0.164 HD
ENDROOT
BRANCH   2  13
HETATM   13  C   UNK N   1      24.340  13.578   1.815  0.00  0.00     0.014 A 
HETATM   14  C   UNK N   1      23.708  13.795   0.579  0.00  0.00     0.018 A 
HETATM   15  C   UNK N   1      23.534  12.756  -0.340  0.00  0.00     0.043 A 
HETATM   16  C   UNK N   1      23.985  11.473  -0.035  0.00  0.00     0.119 A 
HETATM   17  C   UNK N   1      24.600  11.226   1.189  0.00  0.00     0.085 A 
HETATM   18  F   UNK N   1      23.824  10.466  -0.927  0.00  0.00    -0.206 F 
HETATM   19  C   UNK N   1      24.786  12.260   2.111  0.00  0.00     0.130 A 
HETATM   20  F   UNK N   1      25.378  11.956   3.294  0.00  0.00    -0.205 F 
ENDBRANCH   2  13
BRANCH   4  21
HETATM   21  N   UNK N   1      22.413  16.622   5.181  0.00  0.00    -0.378 N 
HETATM   22  C   UNK N   1      22.398  17.981   5.723  0.00  0.00     0.142 C 
HETATM   23  C   UNK N   1      21.118  18.340   6.471  0.00  0.00     0.133 C 
HETATM   24  N   UNK N   1      20.633  17.192   7.214  0.00  0.00    -0.418 N 
HETATM   25  C   UNK N   1      20.158  16.259   6.209  0.00  0.00     0.133 C 
HETATM   26  H   UNK N   1      20.629  17.066   8.226  0.00  0.00     0.153 HD
HETATM   27  C   UNK N   1      21.336  15.667   5.441  0.00  0.00     0.142 C 
ENDBRANCH   4  21
BRANCH   7  28
HETATM   28  C   UNK N   1      27.308  18.187   5.077  0.00  0.00     0.087 A 
HETATM   29  C   UNK N   1      26.880  19.510   4.762  0.00  0.00     0.063 A 
HETATM   30  C   UNK N   1      26.995  20.529   5.711  0.00  0.00     0.026 A 
HETATM   31 Cl   UNK N   1      26.292  19.976   3.168  0.00  0.00    -0.082 Cl
HETATM   32  C   UNK N   1      27.524  20.273   6.970  0.00  0.00     0.003 A 
HETATM   33  C   UNK N   1      27.961  18.993   7.293  0.00  0.00     0.026 A 
HETATM   34  C   UNK N   1      27.865  17.952   6.367  0.00  0.00     0.063 A 
HETATM   35 Cl   UNK N   1      28.393  16.359   6.900  0.00  0.00    -0.082 Cl
ENDBRANCH   7  28
TORSDOF 3
ENDMDL
MODEL 9
REMARK VINA RESULT:      -7.5      3.207      5.663
REMARK  3 active torsions:
REMARK  status: ('A' for Active; 'I' for Inactive)
REMARK    1  A    between atoms: C_2  and  C_8 
REMARK    2  A    between atoms: C_4  and  N_7 
REMARK    3  A    between atoms: N_9  and  C_14 
ROOT
HETATM    1  C   UNK N   1      30.069  15.158   5.231  0.00  0.00    -0.002 A 
HETATM    2  C   UNK N   1      30.287  16.524   5.600  0.00  0.00    -0.011 A 
HETATM    3  C   UNK N   1      29.301  17.461   5.272  0.00  0.00     0.042 A 
HETATM    4  C   UNK N   1      28.146  17.118   4.575  0.00  0.00     0.033 A 
HETATM    5  C   UNK N   1      27.961  15.788   4.204  0.00  0.00     0.060 A 
HETATM    6  C   UNK N   1      28.883  14.788   4.547  0.00  0.00     0.055 A 
HETATM    7  N   UNK N   1      28.625  13.411   4.210  0.00  0.00    -0.261 N 
HETATM    8  C   UNK N   1      29.528  12.440   4.572  0.00  0.00     0.328 A 
HETATM    9  N   UNK N   1      30.677  12.759   5.218  0.00  0.00    -0.338 N 
HETATM   10  C   UNK N   1      31.068  14.097   5.587  0.00  0.00     0.166 A 
HETATM   11  O   UNK N   1      29.293  11.262   4.353  0.00  0.00    -0.246 OA
HETATM   12  H   UNK N   1      31.288  12.023   5.452  0.00  0.00     0.164 HD
ENDROOT
BRANCH   2  13
HETATM   13  C   UNK N   1      31.520  17.030   6.311  0.00  0.00     0.014 A 
HETATM   14  C   UNK N   1      32.722  17.226   5.609  0.00  0.00     0.018 A 
HETATM   15  C   UNK N   1      33.857  17.739   6.245  0.00  0.00     0.043 A 
HETATM   16  C   UNK N   1      33.812  18.060   7.600  0.00  0.00     0.119 A 
HETATM   17  C   UNK N   1      32.638  17.861   8.322  0.00  0.00     0.085 A 
HETATM   18  F   UNK N   1      34.908  18.565   8.216  0.00  0.00    -0.206 F 
HETATM   19  C   UNK N   1      31.497  17.356   7.695  0.00  0.00     0.130 A 
HETATM   20  F   UNK N   1      30.387  17.169   8.453  0.00  0.00    -0.205 F 
ENDBRANCH   2  13
BRANCH   4  21
HETATM   21  N   UNK N   1      27.153  18.107   4.290  0.00  0.00    -0.378 N 
HETATM   22  C   UNK N   1      25.784  17.669   4.016  0.00  0.00     0.142 C 
HETATM   23  C   UNK N   1      24.815  18.807   3.716  0.00  0.00     0.133 C 
HETATM   24  N   UNK N   1      25.479  19.841   2.945  0.00  0.00    -0.418 N 
HETATM   25  C   UNK N   1      26.415  20.462   3.864  0.00  0.00     0.133 C 
HETATM   26  H   UNK N   1      25.322  20.081   1.966  0.00  0.00     0.153 HD
HETATM   27  C   UNK N   1      27.564  19.505   4.170  0.00  0.00     0.142 C 
ENDBRANCH   4  21
BRANCH   7  28
HETATM   28  C   UNK N   1      27.411  13.033   3.511  0.00  0.00     0.087 A 
HETATM   29  C   UNK N   1      26.177  12.870   4.205  0.00  0.00     0.063 A 
HETATM   30  C   UNK N   1      25.021  12.514   3.506  0.00  0.00     0.026 A 
HETATM   31 Cl   UNK N   1      26.035  12.997   5.956  0.00  0.00    -0.082 Cl
HETATM   32  C   UNK N   1      25.053  12.311   2.131  0.00  0.00     0.003 A 
HETATM   33  C   UNK N   1      26.250  12.450   1.437  0.00  0.00     0.026 A 
HETATM   34  C   UNK N   1      27.426  12.802   2.104  0.00  0.00     0.063 A 
HETATM   35 Cl   UNK N   1      28.871  13.007   1.121  0.00  0.00    -0.082 Cl
ENDBRANCH   7  28
TORSDOF 3
ENDMDL
