MODEL 1
REMARK VINA RESULT:      -5.1      0.000      0.000
REMARK  9 active torsions:
REMARK  status: ('A' for Active; 'I' for Inactive)
REMARK    1  A    between atoms: O_1  and  P_2 
REMARK    2  A    between atoms: P_2  and  O_3 
REMARK    3  A    between atoms: P_2  and  O_5 
REMARK    4  A    between atoms: P_6  and  O_5 
REMARK    5  A    between atoms: P_6  and  O_7 
REMARK    6  A    between atoms: P_6  and  S_9 
REMARK    7  A    between atoms: S_9  and  C_10 
REMARK    8  A    between atoms: C_10  and  C_11 
REMARK    9  A    between atoms: C_11  and  C_12 
ROOT
HETATM    1  P   UNK N   1      21.886  19.000   3.475  0.00  0.00     0.312 P 
HETATM    2  O   UNK N   1      20.872  19.802   4.333  0.00  0.00    -0.645 OA
ENDROOT
BRANCH   1   3
HETATM    3  O   UNK N   1      22.219  20.104   2.168  0.00  0.00    -0.209 OA
BRANCH   3   4
HETATM    4  P   UNK N   1      20.682  20.745   1.672  0.00  0.00     0.398 P 
HETATM    5  O   UNK N   1      21.425  20.549   0.326  0.00  0.00    -0.631 OA
BRANCH   4   6
HETATM    6  O   UNK N   1      20.605  22.319   0.945  0.00  0.00    -0.307 OA
HETATM    7  H   UNK N   1      20.135  22.447   0.107  0.00  0.00     0.222 HD
ENDBRANCH   4   6
BRANCH   4   8
HETATM    8  O   UNK N   1      21.513  21.908   2.660  0.00  0.00    -0.307 OA
HETATM    9  H   UNK N   1      22.101  22.604   2.327  0.00  0.00     0.222 HD
ENDBRANCH   4   8
ENDBRANCH   3   4
ENDBRANCH   1   3
BRANCH   1  10
HETATM   10  O   UNK N   1      20.960  17.662   2.870  0.00  0.00    -0.321 OA
HETATM   11  H   UNK N   1      19.996  17.667   2.760  0.00  0.00     0.221 HD
ENDBRANCH   1  10
BRANCH   1  12
HETATM   12  S   UNK N   1      23.583  18.483   4.723  0.00  0.00    -0.051 SA
BRANCH  12  13
HETATM   13  C   UNK N   1      24.774  19.211   3.562  0.00  0.00     0.086 C 
BRANCH  13  14
HETATM   14  C   UNK N   1      25.415  20.444   4.168  0.00  0.00     0.014 C 
BRANCH  14  15
HETATM   15  C   UNK N   1      26.592  20.035   5.034  0.00  0.00    -0.022 C 
HETATM   16  C   UNK N   1      27.018  21.197   5.905  0.00  0.00     0.009 C 
HETATM   17  C   UNK N   1      27.753  19.619   4.151  0.00  0.00     0.009 C 
ENDBRANCH  14  15
ENDBRANCH  13  14
ENDBRANCH  12  13
ENDBRANCH   1  12
TORSDOF 9
ENDMDL
MODEL 2
REMARK VINA RESULT:      -5.0     11.284     11.918
REMARK  9 active torsions:
REMARK  status: ('A' for Active; 'I' for Inactive)
REMARK    1  A    between atoms: O_1  and  P_2 
REMARK    2  A    between atoms: P_2  and  O_3 
REMARK    3  A    between atoms: P_2  and  O_5 
REMARK    4  A    between atoms: P_6  and  O_5 
REMARK    5  A    between atoms: P_6  and  O_7 
REMARK    6  A    between atoms: P_6  and  S_9 
REMARK    7  A    between atoms: S_9  and  C_10 
REMARK    8  A    between atoms: C_10  and  C_11 
REMARK    9  A    between atoms: C_11  and  C_12 
ROOT
HETATM    1  P   UNK N   1      32.901  15.530   8.483  0.00  0.00     0.312 P 
HETATM    2  O   UNK N   1      33.196  14.150   7.839  0.00  0.00    -0.645 OA
ENDROOT
BRANCH   1   3
HETATM    3  O   UNK N   1      34.415  16.368   8.276  0.00  0.00    -0.209 OA
BRANCH   3   4
HETATM    4  P   UNK N   1      34.043  18.064   8.347  0.00  0.00     0.398 P 
HETATM    5  O   UNK N   1      34.690  17.910   6.946  0.00  0.00    -0.631 OA
BRANCH   4   6
HETATM    6  O   UNK N   1      35.334  19.223   8.378  0.00  0.00    -0.307 OA
HETATM    7  H   UNK N   1      36.256  18.927   8.425  0.00  0.00     0.222 HD
ENDBRANCH   4   6
BRANCH   4   8
HETATM    8  O   UNK N   1      35.187  17.661   9.591  0.00  0.00    -0.307 OA
HETATM    9  H   UNK N   1      35.740  18.298  10.068  0.00  0.00     0.222 HD
ENDBRANCH   4   8
ENDBRANCH   3   4
ENDBRANCH   1   3
BRANCH   1  10
HETATM   10  O   UNK N   1      32.673  15.169  10.166  0.00  0.00    -0.321 OA
HETATM   11  H   UNK N   1      33.291  14.650  10.703  0.00  0.00     0.221 HD
ENDBRANCH   1  10
BRANCH   1  12
HETATM   12  S   UNK N   1      31.196  16.409   7.469  0.00  0.00    -0.051 SA
BRANCH  12  13
HETATM   13  C   UNK N   1      30.437  16.955   9.025  0.00  0.00     0.086 C 
BRANCH  13  14
HETATM   14  C   UNK N   1      30.108  18.433   8.961  0.00  0.00     0.014 C 
BRANCH  14  15
HETATM   15  C   UNK N   1      28.604  18.620   8.898  0.00  0.00    -0.022 C 
HETATM   16  C   UNK N   1      27.909  17.324   9.256  0.00  0.00     0.009 C 
HETATM   17  C   UNK N   1      28.201  19.031   7.494  0.00  0.00     0.009 C 
ENDBRANCH  14  15
ENDBRANCH  13  14
ENDBRANCH  12  13
ENDBRANCH   1  12
TORSDOF 9
ENDMDL
MODEL 3
REMARK VINA RESULT:      -4.9     12.161     13.171
REMARK  9 active torsions:
REMARK  status: ('A' for Active; 'I' for Inactive)
REMARK    1  A    between atoms: O_1  and  P_2 
REMARK    2  A    between atoms: P_2  and  O_3 
REMARK    3  A    between atoms: P_2  and  O_5 
REMARK    4  A    between atoms: P_6  and  O_5 
REMARK    5  A    between atoms: P_6  and  O_7 
REMARK    6  A    between atoms: P_6  and  S_9 
REMARK    7  A    between atoms: S_9  and  C_10 
REMARK    8  A    between atoms: C_10  and  C_11 
REMARK    9  A    between atoms: C_11  and  C_12 
ROOT
HETATM    1  P   UNK N   1      32.951  15.640   9.235  0.00  0.00     0.312 P 
HETATM    2  O   UNK N   1      33.189  14.475   8.238  0.00  0.00    -0.645 OA
ENDROOT
BRANCH   1   3
HETATM    3  O   UNK N   1      34.460  16.509   9.156  0.00  0.00    -0.209 OA
BRANCH   3   4
HETATM    4  P   UNK N   1      35.217  16.303  10.707  0.00  0.00     0.398 P 
HETATM    5  O   UNK N   1      35.734  17.693  10.251  0.00  0.00    -0.631 OA
BRANCH   4   6
HETATM    6  O   UNK N   1      36.942  16.136  10.802  0.00  0.00    -0.307 OA
HETATM    7  H   UNK N   1      37.442  16.612  11.482  0.00  0.00     0.222 HD
ENDBRANCH   4   6
BRANCH   4   8
HETATM    8  O   UNK N   1      35.765  15.066   9.617  0.00  0.00    -0.307 OA
HETATM    9  H   UNK N   1      36.688  14.912   9.366  0.00  0.00     0.222 HD
ENDBRANCH   4   8
ENDBRANCH   3   4
ENDBRANCH   1   3
BRANCH   1  10
HETATM   10  O   UNK N   1      32.824  14.855  10.778  0.00  0.00    -0.321 OA
HETATM   11  H   UNK N   1      32.435  15.260  11.568  0.00  0.00     0.221 HD
ENDBRANCH   1  10
BRANCH   1  12
HETATM   12  S   UNK N   1      31.197  16.744   8.592  0.00  0.00    -0.051 SA
BRANCH  12  13
HETATM   13  C   UNK N   1      31.181  15.948   6.961  0.00  0.00     0.086 C 
BRANCH  13  14
HETATM   14  C   UNK N   1      31.258  16.991   5.864  0.00  0.00     0.014 C 
BRANCH  14  15
HETATM   15  C   UNK N   1      32.537  16.804   5.070  0.00  0.00    -0.022 C 
HETATM   16  C   UNK N   1      33.693  17.459   5.795  0.00  0.00     0.009 C 
HETATM   17  C   UNK N   1      32.383  17.436   3.699  0.00  0.00     0.009 C 
ENDBRANCH  14  15
ENDBRANCH  13  14
ENDBRANCH  12  13
ENDBRANCH   1  12
TORSDOF 9
ENDMDL
MODEL 4
REMARK VINA RESULT:      -4.9     16.300     17.165
REMARK  9 active torsions:
REMARK  status: ('A' for Active; 'I' for Inactive)
REMARK    1  A    between atoms: O_1  and  P_2 
REMARK    2  A    between atoms: P_2  and  O_3 
REMARK    3  A    between atoms: P_2  and  O_5 
REMARK    4  A    between atoms: P_6  and  O_5 
REMARK    5  A    between atoms: P_6  and  O_7 
REMARK    6  A    between atoms: P_6  and  S_9 
REMARK    7  A    between atoms: S_9  and  C_10 
REMARK    8  A    between atoms: C_10  and  C_11 
REMARK    9  A    between atoms: C_11  and  C_12 
ROOT
HETATM    1  P   UNK N   1      35.519  13.298  12.333  0.00  0.00     0.312 P 
HETATM    2  O   UNK N   1      35.248  12.662  10.945  0.00  0.00    -0.645 OA
ENDROOT
BRANCH   1   3
HETATM    3  O   UNK N   1      34.725  14.844  12.194  0.00  0.00    -0.209 OA
BRANCH   3   4
HETATM    4  P   UNK N   1      34.743  15.246  10.503  0.00  0.00     0.398 P 
HETATM    5  O   UNK N   1      35.311  16.526  11.169  0.00  0.00    -0.631 OA
BRANCH   4   6
HETATM    6  O   UNK N   1      33.698  16.498   9.909  0.00  0.00    -0.307 OA
HETATM    7  H   UNK N   1      34.046  17.186   9.322  0.00  0.00     0.222 HD
ENDBRANCH   4   6
BRANCH   4   8
HETATM    8  O   UNK N   1      33.109  14.966  11.023  0.00  0.00    -0.307 OA
HETATM    9  H   UNK N   1      32.398  14.616  10.464  0.00  0.00     0.222 HD
ENDBRANCH   4   8
ENDBRANCH   3   4
ENDBRANCH   1   3
BRANCH   1  10
HETATM   10  O   UNK N   1      37.238  13.540  12.357  0.00  0.00    -0.321 OA
HETATM   11  H   UNK N   1      37.892  12.825  12.337  0.00  0.00     0.221 HD
ENDBRANCH   1  10
BRANCH   1  12
HETATM   12  S   UNK N   1      34.732  11.974  13.861  0.00  0.00    -0.051 SA
BRANCH  12  13
HETATM   13  C   UNK N   1      36.231  12.107  14.876  0.00  0.00     0.086 C 
BRANCH  13  14
HETATM   14  C   UNK N   1      36.106  13.259  15.854  0.00  0.00     0.014 C 
BRANCH  14  15
HETATM   15  C   UNK N   1      35.128  12.892  16.954  0.00  0.00    -0.022 C 
HETATM   16  C   UNK N   1      35.175  13.932  18.052  0.00  0.00     0.009 C 
HETATM   17  C   UNK N   1      35.497  11.538  17.532  0.00  0.00     0.009 C 
ENDBRANCH  14  15
ENDBRANCH  13  14
ENDBRANCH  12  13
ENDBRANCH   1  12
TORSDOF 9
ENDMDL
MODEL 5
REMARK VINA RESULT:      -4.9     11.124     11.754
REMARK  9 active torsions:
REMARK  status: ('A' for Active; 'I' for Inactive)
REMARK    1  A    between atoms: O_1  and  P_2 
REMARK    2  A    between atoms: P_2  and  O_3 
REMARK    3  A    between atoms: P_2  and  O_5 
REMARK    4  A    between atoms: P_6  and  O_5 
REMARK    5  A    between atoms: P_6  and  O_7 
REMARK    6  A    between atoms: P_6  and  S_9 
REMARK    7  A    between atoms: S_9  and  C_10 
REMARK    8  A    between atoms: C_10  and  C_11 
REMARK    9  A    between atoms: C_11  and  C_12 
ROOT
HETATM    1  P   UNK N   1      32.221  15.709   8.589  0.00  0.00     0.312 P 
HETATM    2  O   UNK N   1      32.165  14.303   7.936  0.00  0.00    -0.645 OA
ENDROOT
BRANCH   1   3
HETATM    3  O   UNK N   1      33.804  16.271   8.124  0.00  0.00    -0.209 OA
BRANCH   3   4
HETATM    4  P   UNK N   1      33.710  18.006   8.087  0.00  0.00     0.398 P 
HETATM    5  O   UNK N   1      34.678  17.687   6.918  0.00  0.00    -0.631 OA
BRANCH   4   6
HETATM    6  O   UNK N   1      35.116  18.948   8.470  0.00  0.00    -0.307 OA
HETATM    7  H   UNK N   1      35.888  18.529   8.880  0.00  0.00     0.222 HD
ENDBRANCH   4   6
BRANCH   4   8
HETATM    8  O   UNK N   1      34.392  17.487   9.598  0.00  0.00    -0.307 OA
HETATM    9  H   UNK N   1      33.894  17.089  10.328  0.00  0.00     0.222 HD
ENDBRANCH   4   8
ENDBRANCH   3   4
ENDBRANCH   1   3
BRANCH   1  10
HETATM   10  O   UNK N   1      32.210  15.382  10.294  0.00  0.00    -0.321 OA
HETATM   11  H   UNK N   1      32.539  14.564  10.697  0.00  0.00     0.221 HD
ENDBRANCH   1  10
BRANCH   1  12
HETATM   12  S   UNK N   1      30.553  16.879   7.844  0.00  0.00    -0.051 SA
BRANCH  12  13
HETATM   13  C   UNK N   1      30.656  16.140   6.190  0.00  0.00     0.086 C 
BRANCH  13  14
HETATM   14  C   UNK N   1      30.973  17.201   5.155  0.00  0.00     0.014 C 
BRANCH  14  15
HETATM   15  C   UNK N   1      32.300  16.886   4.491  0.00  0.00    -0.022 C 
HETATM   16  C   UNK N   1      32.207  17.152   3.004  0.00  0.00     0.009 C 
HETATM   17  C   UNK N   1      32.649  15.427   4.716  0.00  0.00     0.009 C 
ENDBRANCH  14  15
ENDBRANCH  13  14
ENDBRANCH  12  13
ENDBRANCH   1  12
TORSDOF 9
ENDMDL
MODEL 6
REMARK VINA RESULT:      -4.8     12.268     13.205
REMARK  9 active torsions:
REMARK  status: ('A' for Active; 'I' for Inactive)
REMARK    1  A    between atoms: O_1  and  P_2 
REMARK    2  A    between atoms: P_2  and  O_3 
REMARK    3  A    between atoms: P_2  and  O_5 
REMARK    4  A    between atoms: P_6  and  O_5 
REMARK    5  A    between atoms: P_6  and  O_7 
REMARK    6  A    between atoms: P_6  and  S_9 
REMARK    7  A    between atoms: S_9  and  C_10 
REMARK    8  A    between atoms: C_10  and  C_11 
REMARK    9  A    between atoms: C_11  and  C_12 
ROOT
HETATM    1  P   UNK N   1      33.265  15.156   8.963  0.00  0.00     0.312 P 
HETATM    2  O   UNK N   1      33.786  13.719   8.700  0.00  0.00    -0.645 OA
ENDROOT
BRANCH   1   3
HETATM    3  O   UNK N   1      34.741  16.083   9.007  0.00  0.00    -0.209 OA
BRANCH   3   4
HETATM    4  P   UNK N   1      35.359  15.932  10.624  0.00  0.00     0.398 P 
HETATM    5  O   UNK N   1      35.617  17.425  10.293  0.00  0.00    -0.631 OA
BRANCH   4   6
HETATM    6  O   UNK N   1      37.060  16.112  10.911  0.00  0.00    -0.307 OA
HETATM    7  H   UNK N   1      37.379  16.456  11.760  0.00  0.00     0.222 HD
ENDBRANCH   4   6
BRANCH   4   8
HETATM    8  O   UNK N   1      36.263  14.908   9.552  0.00  0.00    -0.307 OA
HETATM    9  H   UNK N   1      35.901  14.452   8.777  0.00  0.00     0.222 HD
ENDBRANCH   4   8
ENDBRANCH   3   4
ENDBRANCH   1   3
BRANCH   1  10
HETATM   10  O   UNK N   1      32.594  15.075  10.562  0.00  0.00    -0.321 OA
HETATM   11  H   UNK N   1      32.669  14.307  11.149  0.00  0.00     0.221 HD
ENDBRANCH   1  10
BRANCH   1  12
HETATM   12  S   UNK N   1      31.873  15.682   7.384  0.00  0.00    -0.051 SA
BRANCH  12  13
HETATM   13  C   UNK N   1      30.946  16.817   8.455  0.00  0.00     0.086 C 
BRANCH  13  14
HETATM   14  C   UNK N   1      29.884  17.547   7.656  0.00  0.00     0.014 C 
BRANCH  14  15
HETATM   15  C   UNK N   1      28.963  18.300   8.598  0.00  0.00    -0.022 C 
HETATM   16  C   UNK N   1      29.765  18.890   9.738  0.00  0.00     0.009 C 
HETATM   17  C   UNK N   1      27.921  17.350   9.159  0.00  0.00     0.009 C 
ENDBRANCH  14  15
ENDBRANCH  13  14
ENDBRANCH  12  13
ENDBRANCH   1  12
TORSDOF 9
ENDMDL
MODEL 7
REMARK VINA RESULT:      -4.8     14.060     15.196
REMARK  9 active torsions:
REMARK  status: ('A' for Active; 'I' for Inactive)
REMARK    1  A    between atoms: O_1  and  P_2 
REMARK    2  A    between atoms: P_2  and  O_3 
REMARK    3  A    between atoms: P_2  and  O_5 
REMARK    4  A    between atoms: P_6  and  O_5 
REMARK    5  A    between atoms: P_6  and  O_7 
REMARK    6  A    between atoms: P_6  and  S_9 
REMARK    7  A    between atoms: S_9  and  C_10 
REMARK    8  A    between atoms: C_10  and  C_11 
REMARK    9  A    between atoms: C_11  and  C_12 
ROOT
HETATM    1  P   UNK N   1      35.445  15.789  10.558  0.00  0.00     0.312 P 
HETATM    2  O   UNK N   1      35.347  17.257  11.052  0.00  0.00    -0.645 OA
ENDROOT
BRANCH   1   3
HETATM    3  O   UNK N   1      34.764  14.902  11.895  0.00  0.00    -0.209 OA
BRANCH   3   4
HETATM    4  P   UNK N   1      35.978  13.760  12.386  0.00  0.00     0.398 P 
HETATM    5  O   UNK N   1      34.685  13.185  13.021  0.00  0.00    -0.631 OA
BRANCH   4   6
HETATM    6  O   UNK N   1      36.392  13.618  14.065  0.00  0.00    -0.307 OA
HETATM    7  H   UNK N   1      36.257  14.366  14.667  0.00  0.00     0.222 HD
ENDBRANCH   4   6
BRANCH   4   8
HETATM    8  O   UNK N   1      36.339  15.322  13.054  0.00  0.00    -0.307 OA
HETATM    9  H   UNK N   1      36.967  15.491  13.773  0.00  0.00     0.222 HD
ENDBRANCH   4   8
ENDBRANCH   3   4
ENDBRANCH   1   3
BRANCH   1  10
HETATM   10  O   UNK N   1      37.153  15.485  10.482  0.00  0.00    -0.321 OA
HETATM   11  H   UNK N   1      37.753  15.534  11.242  0.00  0.00     0.221 HD
ENDBRANCH   1  10
BRANCH   1  12
HETATM   12  S   UNK N   1      34.374  15.624   8.679  0.00  0.00    -0.051 SA
BRANCH  12  13
HETATM   13  C   UNK N   1      34.445  17.412   8.377  0.00  0.00     0.086 C 
BRANCH  13  14
HETATM   14  C   UNK N   1      33.123  17.908   7.824  0.00  0.00     0.014 C 
BRANCH  14  15
HETATM   15  C   UNK N   1      32.686  17.020   6.674  0.00  0.00    -0.022 C 
HETATM   16  C   UNK N   1      33.356  17.470   5.394  0.00  0.00     0.009 C 
HETATM   17  C   UNK N   1      31.180  17.108   6.508  0.00  0.00     0.009 C 
ENDBRANCH  14  15
ENDBRANCH  13  14
ENDBRANCH  12  13
ENDBRANCH   1  12
TORSDOF 9
ENDMDL
MODEL 8
REMARK VINA RESULT:      -4.8     16.605     17.390
REMARK  9 active torsions:
REMARK  status: ('A' for Active; 'I' for Inactive)
REMARK    1  A    between atoms: O_1  and  P_2 
REMARK    2  A    between atoms: P_2  and  O_3 
REMARK    3  A    between atoms: P_2  and  O_5 
REMARK    4  A    between atoms: P_6  and  O_5 
REMARK    5  A    between atoms: P_6  and  O_7 
REMARK    6  A    between atoms: P_6  and  S_9 
REMARK    7  A    between atoms: S_9  and  C_10 
REMARK    8  A    between atoms: C_10  and  C_11 
REMARK    9  A    between atoms: C_11  and  C_12 
ROOT
HETATM    1  P   UNK N   1      36.522  13.366  11.734  0.00  0.00     0.312 P 
HETATM    2  O   UNK N   1      37.964  13.045  11.260  0.00  0.00    -0.645 OA
ENDROOT
BRANCH   1   3
HETATM    3  O   UNK N   1      35.924  14.375  10.445  0.00  0.00    -0.209 OA
BRANCH   3   4
HETATM    4  P   UNK N   1      35.395  15.852  11.194  0.00  0.00     0.398 P 
HETATM    5  O   UNK N   1      34.515  15.775   9.919  0.00  0.00    -0.631 OA
BRANCH   4   6
HETATM    6  O   UNK N   1      35.704  17.368  10.408  0.00  0.00    -0.307 OA
HETATM    7  H   UNK N   1      36.021  18.128  10.920  0.00  0.00     0.222 HD
ENDBRANCH   4   6
BRANCH   4   8
HETATM    8  O   UNK N   1      37.073  15.979  10.765  0.00  0.00    -0.307 OA
HETATM    9  H   UNK N   1      37.587  15.295  10.309  0.00  0.00     0.222 HD
ENDBRANCH   4   8
ENDBRANCH   3   4
ENDBRANCH   1   3
BRANCH   1  10
HETATM   10  O   UNK N   1      36.753  14.333  13.157  0.00  0.00    -0.321 OA
HETATM   11  H   UNK N   1      37.439  14.173  13.823  0.00  0.00     0.221 HD
ENDBRANCH   1  10
BRANCH   1  12
HETATM   12  S   UNK N   1      35.465  11.495  12.029  0.00  0.00    -0.051 SA
BRANCH  12  13
HETATM   13  C   UNK N   1      34.836  12.001  13.655  0.00  0.00     0.086 C 
BRANCH  13  14
HETATM   14  C   UNK N   1      33.859  10.971  14.187  0.00  0.00     0.014 C 
BRANCH  14  15
HETATM   15  C   UNK N   1      34.366  10.421  15.507  0.00  0.00    -0.022 C 
HETATM   16  C   UNK N   1      35.057  11.517  16.289  0.00  0.00     0.009 C 
HETATM   17  C   UNK N   1      35.350   9.296  15.246  0.00  0.00     0.009 C 
ENDBRANCH  14  15
ENDBRANCH  13  14
ENDBRANCH  12  13
ENDBRANCH   1  12
TORSDOF 9
ENDMDL
MODEL 9
REMARK VINA RESULT:      -4.7     16.327     17.182
REMARK  9 active torsions:
REMARK  status: ('A' for Active; 'I' for Inactive)
REMARK    1  A    between atoms: O_1  and  P_2 
REMARK    2  A    between atoms: P_2  and  O_3 
REMARK    3  A    between atoms: P_2  and  O_5 
REMARK    4  A    between atoms: P_6  and  O_5 
REMARK    5  A    between atoms: P_6  and  O_7 
REMARK    6  A    between atoms: P_6  and  S_9 
REMARK    7  A    between atoms: S_9  and  C_10 
REMARK    8  A    between atoms: C_10  and  C_11 
REMARK    9  A    between atoms: C_11  and  C_12 
ROOT
HETATM    1  P   UNK N   1      36.567  13.439  10.817  0.00  0.00     0.312 P 
HETATM    2  O   UNK N   1      36.358  12.152   9.976  0.00  0.00    -0.645 OA
ENDROOT
BRANCH   1   3
HETATM    3  O   UNK N   1      36.225  14.697   9.660  0.00  0.00    -0.209 OA
BRANCH   3   4
HETATM    4  P   UNK N   1      35.253  15.871  10.495  0.00  0.00     0.398 P 
HETATM    5  O   UNK N   1      34.959  16.177   9.003  0.00  0.00    -0.631 OA
BRANCH   4   6
HETATM    6  O   UNK N   1      35.636  17.558  10.353  0.00  0.00    -0.307 OA
HETATM    7  H   UNK N   1      35.745  17.962   9.479  0.00  0.00     0.222 HD
ENDBRANCH   4   6
BRANCH   4   8
HETATM    8  O   UNK N   1      36.932  16.141  10.849  0.00  0.00    -0.307 OA
HETATM    9  H   UNK N   1      37.516  15.510  11.297  0.00  0.00     0.222 HD
ENDBRANCH   4   8
ENDBRANCH   3   4
ENDBRANCH   1   3
BRANCH   1  10
HETATM   10  O   UNK N   1      38.266  13.438  11.173  0.00  0.00    -0.321 OA
HETATM   11  H   UNK N   1      38.743  14.182  11.571  0.00  0.00     0.221 HD
ENDBRANCH   1  10
BRANCH   1  12
HETATM   12  S   UNK N   1      35.245  13.360  12.535  0.00  0.00    -0.051 SA
BRANCH  12  13
HETATM   13  C   UNK N   1      36.595  12.925  13.668  0.00  0.00     0.086 C 
BRANCH  13  14
HETATM   14  C   UNK N   1      36.520  13.768  14.926  0.00  0.00     0.014 C 
BRANCH  14  15
HETATM   15  C   UNK N   1      36.055  12.911  16.088  0.00  0.00    -0.022 C 
HETATM   16  C   UNK N   1      36.400  11.460  15.828  0.00  0.00     0.009 C 
HETATM   17  C   UNK N   1      34.552  13.045  16.250  0.00  0.00     0.009 C 
ENDBRANCH  14  15
ENDBRANCH  13  14
ENDBRANCH  12  13
ENDBRANCH   1  12
TORSDOF 9
ENDMDL
