MODEL 1
REMARK VINA RESULT:      -6.6      0.000      0.000
REMARK  7 active torsions:
REMARK  status: ('A' for Active; 'I' for Inactive)
REMARK       I    between atoms: C_1  and  N_21 
REMARK    1  A    between atoms: C_2  and  N_24 
REMARK    2  A    between atoms: C_5  and  N_27 
REMARK    3  A    between atoms: C_8  and  C_9 
REMARK    4  A    between atoms: C_8  and  N_27 
REMARK    5  A    between atoms: C_11  and  O_28 
REMARK    6  A    between atoms: C_12  and  O_29 
REMARK    7  A    between atoms: C_13  and  O_30 
ROOT
HETATM    1  C   UNK N   1      36.441  14.510  12.931  0.00  0.00     0.679 A 
HETATM    2  C   UNK N   1      36.249  13.471  10.810  0.00  0.00     0.128 A 
HETATM    3  C   UNK N   1      35.763  14.666  10.267  0.00  0.00     0.055 A 
HETATM    4  C   UNK N   1      35.380  14.773   8.928  0.00  0.00     0.050 A 
HETATM    5  C   UNK N   1      34.840  15.975   8.445  0.00  0.00     0.046 A 
HETATM    6  C   UNK N   1      34.727  17.062   9.329  0.00  0.00     0.119 A 
HETATM    7  C   UNK N   1      35.631  15.782  11.111  0.00  0.00     0.135 A 
HETATM    8  N   UNK N   1      35.976  15.682  12.421  0.00  0.00    -0.176 N 
ATOM      9  HN  UNK N   1      35.885  16.495  13.029  1.00  0.00     0.186 HD
HETATM   10  N   UNK N   1      36.770  14.421  14.297  0.00  0.00    -0.234 N 
HETATM   11  N   UNK N   1      36.573  13.419  12.130  0.00  0.00    -0.176 N 
ATOM     12  HN  UNK N   1      36.921  12.545  12.526  1.00  0.00     0.186 HD
HETATM   13  N   UNK N   1      35.135  16.949  10.623  0.00  0.00    -0.349 N 
ATOM     14  HN  UNK N   1      35.066  17.759  11.239  1.00  0.00     0.167 HD
HETATM   15  H   UNK N   1      37.070  13.564  14.677  0.00  0.00     0.174 HD
HETATM   16  H   UNK N   1      36.701  15.216  14.873  0.00  0.00     0.174 HD
ENDROOT
BRANCH   5  17
HETATM   17  N   UNK N   1      34.319  16.054   7.117  0.00  0.00    -0.380 N 
HETATM   18  C   UNK N   1      34.046  14.837   6.386  0.00  0.00     0.150 C 
BRANCH  17  19
HETATM   19  C   UNK N   1      33.688  17.288   6.681  0.00  0.00     0.161 C 
BRANCH  19  20
HETATM   20  C   UNK N   1      32.194  17.250   6.582  0.00  0.00    -0.035 A 
HETATM   21  C   UNK N   1      31.397  17.417   7.713  0.00  0.00     0.048 A 
HETATM   22  C   UNK N   1      30.000  17.526   7.610  0.00  0.00     0.104 A 
HETATM   23  C   UNK N   1      29.394  17.497   6.323  0.00  0.00     0.135 A 
HETATM   24  C   UNK N   1      30.205  17.334   5.184  0.00  0.00     0.104 A 
HETATM   25  C   UNK N   1      31.598  17.214   5.323  0.00  0.00     0.048 A 
BRANCH  22  26
HETATM   26  O   UNK N   1      29.244  17.669   8.726  0.00  0.00    -0.353 OA
HETATM   27  C   UNK N   1      29.579  18.502   9.771  0.00  0.00     0.210 C 
ENDBRANCH  22  26
BRANCH  23  28
HETATM   28  O   UNK N   1      28.052  17.630   6.131  0.00  0.00    -0.351 OA
HETATM   29  C   UNK N   1      27.369  18.820   6.027  0.00  0.00     0.210 C 
ENDBRANCH  23  28
BRANCH  24  30
HETATM   30  O   UNK N   1      29.622  17.320   3.959  0.00  0.00    -0.353 OA
HETATM   31  C   UNK N   1      29.408  16.168   3.234  0.00  0.00     0.210 C 
ENDBRANCH  24  30
ENDBRANCH  19  20
ENDBRANCH  17  19
ENDBRANCH   5  17
BRANCH   2  32
HETATM   32  N   UNK N   1      36.381  12.315  10.012  0.00  0.00    -0.384 N 
HETATM   33  H   UNK N   1      36.756  11.490  10.398  0.00  0.00     0.157 HD
HETATM   34  H   UNK N   1      36.099  12.333   9.069  0.00  0.00     0.157 HD
ENDBRANCH   2  32
TORSDOF 7
ENDMDL
MODEL 2
REMARK VINA RESULT:      -6.6      1.382      2.863
REMARK  7 active torsions:
REMARK  status: ('A' for Active; 'I' for Inactive)
REMARK       I    between atoms: C_1  and  N_21 
REMARK    1  A    between atoms: C_2  and  N_24 
REMARK    2  A    between atoms: C_5  and  N_27 
REMARK    3  A    between atoms: C_8  and  C_9 
REMARK    4  A    between atoms: C_8  and  N_27 
REMARK    5  A    between atoms: C_11  and  O_28 
REMARK    6  A    between atoms: C_12  and  O_29 
REMARK    7  A    between atoms: C_13  and  O_30 
ROOT
HETATM    1  C   UNK N   1      36.671  12.870  13.023  0.00  0.00     0.679 A 
HETATM    2  C   UNK N   1      35.038  12.581  11.332  0.00  0.00     0.128 A 
HETATM    3  C   UNK N   1      35.162  13.930  10.980  0.00  0.00     0.055 A 
HETATM    4  C   UNK N   1      34.389  14.509   9.970  0.00  0.00     0.050 A 
HETATM    5  C   UNK N   1      34.504  15.881   9.696  0.00  0.00     0.046 A 
HETATM    6  C   UNK N   1      35.429  16.637  10.436  0.00  0.00     0.119 A 
HETATM    7  C   UNK N   1      36.073  14.729  11.691  0.00  0.00     0.135 A 
HETATM    8  N   UNK N   1      36.810  14.182  12.693  0.00  0.00    -0.176 N 
ATOM      9  HN  UNK N   1      37.475  14.762  13.203  1.00  0.00     0.186 HD
HETATM   10  N   UNK N   1      37.428  12.329  14.081  0.00  0.00    -0.234 N 
HETATM   11  N   UNK N   1      35.792  12.083  12.347  0.00  0.00    -0.176 N 
ATOM     12  HN  UNK N   1      35.696  11.100  12.607  1.00  0.00     0.186 HD
HETATM   13  N   UNK N   1      36.197  16.049  11.395  0.00  0.00    -0.349 N 
ATOM     14  HN  UNK N   1      36.878  16.613  11.902  1.00  0.00     0.167 HD
HETATM   15  H   UNK N   1      37.301  11.390  14.347  0.00  0.00     0.174 HD
HETATM   16  H   UNK N   1      38.084  12.890  14.553  0.00  0.00     0.174 HD
ENDROOT
BRANCH   5  17
HETATM   17  N   UNK N   1      33.625  16.511   8.762  0.00  0.00    -0.380 N 
HETATM   18  C   UNK N   1      33.939  17.833   8.269  0.00  0.00     0.150 C 
BRANCH  17  19
HETATM   19  C   UNK N   1      32.687  15.691   8.016  0.00  0.00     0.161 C 
BRANCH  19  20
HETATM   20  C   UNK N   1      31.613  16.439   7.285  0.00  0.00    -0.035 A 
HETATM   21  C   UNK N   1      31.574  16.457   5.892  0.00  0.00     0.048 A 
HETATM   22  C   UNK N   1      30.496  17.033   5.201  0.00  0.00     0.104 A 
HETATM   23  C   UNK N   1      29.410  17.580   5.941  0.00  0.00     0.135 A 
HETATM   24  C   UNK N   1      29.453  17.554   7.347  0.00  0.00     0.104 A 
HETATM   25  C   UNK N   1      30.554  16.982   8.007  0.00  0.00     0.048 A 
BRANCH  22  26
HETATM   26  O   UNK N   1      30.489  17.055   3.846  0.00  0.00    -0.353 OA
HETATM   27  C   UNK N   1      30.270  15.940   3.068  0.00  0.00     0.210 C 
ENDBRANCH  22  26
BRANCH  23  28
HETATM   28  O   UNK N   1      28.311  18.127   5.350  0.00  0.00    -0.351 OA
HETATM   29  C   UNK N   1      28.219  19.406   4.853  0.00  0.00     0.210 C 
ENDBRANCH  23  28
BRANCH  24  30
HETATM   30  O   UNK N   1      28.408  18.066   8.046  0.00  0.00    -0.353 OA
HETATM   31  C   UNK N   1      28.155  17.760   9.364  0.00  0.00     0.210 C 
ENDBRANCH  24  30
ENDBRANCH  19  20
ENDBRANCH  17  19
ENDBRANCH   5  17
BRANCH   2  32
HETATM   32  N   UNK N   1      34.123  11.740  10.663  0.00  0.00    -0.384 N 
HETATM   33  H   UNK N   1      34.440  10.917  10.225  0.00  0.00     0.157 HD
HETATM   34  H   UNK N   1      33.168  11.976  10.636  0.00  0.00     0.157 HD
ENDBRANCH   2  32
TORSDOF 7
ENDMDL
MODEL 3
REMARK VINA RESULT:      -6.5      1.320      2.873
REMARK  7 active torsions:
REMARK  status: ('A' for Active; 'I' for Inactive)
REMARK       I    between atoms: C_1  and  N_21 
REMARK    1  A    between atoms: C_2  and  N_24 
REMARK    2  A    between atoms: C_5  and  N_27 
REMARK    3  A    between atoms: C_8  and  C_9 
REMARK    4  A    between atoms: C_8  and  N_27 
REMARK    5  A    between atoms: C_11  and  O_28 
REMARK    6  A    between atoms: C_12  and  O_29 
REMARK    7  A    between atoms: C_13  and  O_30 
ROOT
HETATM    1  C   UNK N   1      36.633  13.535  12.493  0.00  0.00     0.679 A 
HETATM    2  C   UNK N   1      37.135  14.094  10.246  0.00  0.00     0.128 A 
HETATM    3  C   UNK N   1      35.813  14.513  10.054  0.00  0.00     0.055 A 
HETATM    4  C   UNK N   1      35.354  14.984   8.821  0.00  0.00     0.050 A 
HETATM    5  C   UNK N   1      34.004  15.333   8.661  0.00  0.00     0.046 A 
HETATM    6  C   UNK N   1      33.148  15.226   9.769  0.00  0.00     0.119 A 
HETATM    7  C   UNK N   1      34.917  14.424  11.132  0.00  0.00     0.135 A 
HETATM    8  N   UNK N   1      35.346  13.942  12.328  0.00  0.00    -0.176 N 
ATOM      9  HN  UNK N   1      34.695  13.885  13.110  1.00  0.00     0.186 HD
HETATM   10  N   UNK N   1      37.051  13.017  13.734  0.00  0.00    -0.234 N 
HETATM   11  N   UNK N   1      37.514  13.611  11.459  0.00  0.00    -0.176 N 
ATOM     12  HN  UNK N   1      38.476  13.300  11.597  1.00  0.00     0.186 HD
HETATM   13  N   UNK N   1      33.619  14.794  10.971  0.00  0.00    -0.349 N 
ATOM     14  HN  UNK N   1      32.984  14.747  11.768  1.00  0.00     0.167 HD
HETATM   15  H   UNK N   1      37.971  12.686  13.845  0.00  0.00     0.174 HD
HETATM   16  H   UNK N   1      36.423  12.986  14.491  0.00  0.00     0.174 HD
ENDROOT
BRANCH   5  17
HETATM   17  N   UNK N   1      33.494  15.685   7.373  0.00  0.00    -0.380 N 
HETATM   18  C   UNK N   1      34.389  16.233   6.379  0.00  0.00     0.150 C 
BRANCH  17  19
HETATM   19  C   UNK N   1      32.229  15.121   6.939  0.00  0.00     0.161 C 
BRANCH  19  20
HETATM   20  C   UNK N   1      31.171  16.115   6.567  0.00  0.00    -0.035 A 
HETATM   21  C   UNK N   1      30.684  16.189   5.264  0.00  0.00     0.048 A 
HETATM   22  C   UNK N   1      29.595  17.016   4.939  0.00  0.00     0.104 A 
HETATM   23  C   UNK N   1      28.962  17.766   5.969  0.00  0.00     0.135 A 
HETATM   24  C   UNK N   1      29.454  17.682   7.285  0.00  0.00     0.104 A 
HETATM   25  C   UNK N   1      30.554  16.856   7.572  0.00  0.00     0.048 A 
BRANCH  22  26
HETATM   26  O   UNK N   1      29.152  17.087   3.660  0.00  0.00    -0.353 OA
HETATM   27  C   UNK N   1      29.287  16.061   2.750  0.00  0.00     0.210 C 
ENDBRANCH  22  26
BRANCH  23  28
HETATM   28  O   UNK N   1      27.881  18.565   5.747  0.00  0.00    -0.351 OA
HETATM   29  C   UNK N   1      27.920  19.857   5.276  0.00  0.00     0.210 C 
ENDBRANCH  23  28
BRANCH  24  30
HETATM   30  O   UNK N   1      28.837  18.390   8.264  0.00  0.00    -0.353 OA
HETATM   31  C   UNK N   1      29.312  18.473   9.554  0.00  0.00     0.210 C 
ENDBRANCH  24  30
ENDBRANCH  19  20
ENDBRANCH  17  19
ENDBRANCH   5  17
BRANCH   2  32
HETATM   32  N   UNK N   1      38.070  14.142   9.191  0.00  0.00    -0.384 N 
HETATM   33  H   UNK N   1      38.615  14.951   9.052  0.00  0.00     0.157 HD
HETATM   34  H   UNK N   1      38.178  13.367   8.593  0.00  0.00     0.157 HD
ENDBRANCH   2  32
TORSDOF 7
ENDMDL
MODEL 4
REMARK VINA RESULT:      -6.4      6.820     11.253
REMARK  7 active torsions:
REMARK  status: ('A' for Active; 'I' for Inactive)
REMARK       I    between atoms: C_1  and  N_21 
REMARK    1  A    between atoms: C_2  and  N_24 
REMARK    2  A    between atoms: C_5  and  N_27 
REMARK    3  A    between atoms: C_8  and  C_9 
REMARK    4  A    between atoms: C_8  and  N_27 
REMARK    5  A    between atoms: C_11  and  O_28 
REMARK    6  A    between atoms: C_12  and  O_29 
REMARK    7  A    between atoms: C_13  and  O_30 
ROOT
HETATM    1  C   UNK N   1      20.422  18.997   3.014  0.00  0.00     0.679 A 
HETATM    2  C   UNK N   1      21.848  17.789   4.470  0.00  0.00     0.128 A 
HETATM    3  C   UNK N   1      22.897  18.666   4.172  0.00  0.00     0.055 A 
HETATM    4  C   UNK N   1      24.175  18.509   4.715  0.00  0.00     0.050 A 
HETATM    5  C   UNK N   1      25.211  19.377   4.337  0.00  0.00     0.046 A 
HETATM    6  C   UNK N   1      24.922  20.412   3.433  0.00  0.00     0.119 A 
HETATM    7  C   UNK N   1      22.658  19.717   3.271  0.00  0.00     0.135 A 
HETATM    8  N   UNK N   1      21.427  19.863   2.716  0.00  0.00    -0.176 N 
ATOM      9  HN  UNK N   1      21.255  20.631   2.068  1.00  0.00     0.186 HD
HETATM   10  N   UNK N   1      19.160  19.152   2.409  0.00  0.00    -0.234 N 
HETATM   11  N   UNK N   1      20.636  17.971   3.882  0.00  0.00    -0.176 N 
ATOM     12  HN  UNK N   1      19.873  17.328   4.096  1.00  0.00     0.186 HD
HETATM   13  N   UNK N   1      23.663  20.569   2.937  0.00  0.00    -0.349 N 
ATOM     14  HN  UNK N   1      23.471  21.342   2.301  1.00  0.00     0.167 HD
HETATM   15  H   UNK N   1      18.442  18.504   2.594  0.00  0.00     0.174 HD
HETATM   16  H   UNK N   1      18.995  19.909   1.803  0.00  0.00     0.174 HD
ENDROOT
BRANCH   5  17
HETATM   17  N   UNK N   1      26.550  19.145   4.779  0.00  0.00    -0.380 N 
HETATM   18  C   UNK N   1      27.416  20.271   5.048  0.00  0.00     0.150 C 
BRANCH  17  19
HETATM   19  C   UNK N   1      26.890  17.851   5.345  0.00  0.00     0.161 C 
BRANCH  19  20
HETATM   20  C   UNK N   1      28.293  17.716   5.853  0.00  0.00    -0.035 A 
HETATM   21  C   UNK N   1      28.572  17.793   7.216  0.00  0.00     0.048 A 
HETATM   22  C   UNK N   1      29.858  17.526   7.713  0.00  0.00     0.104 A 
HETATM   23  C   UNK N   1      30.885  17.140   6.807  0.00  0.00     0.135 A 
HETATM   24  C   UNK N   1      30.597  17.057   5.432  0.00  0.00     0.104 A 
HETATM   25  C   UNK N   1      29.302  17.345   4.967  0.00  0.00     0.048 A 
BRANCH  22  26
HETATM   26  O   UNK N   1      30.110  17.627   9.041  0.00  0.00    -0.353 OA
HETATM   27  C   UNK N   1      29.731  18.708   9.807  0.00  0.00     0.210 C 
ENDBRANCH  22  26
BRANCH  23  28
HETATM   28  O   UNK N   1      32.150  16.831   7.208  0.00  0.00    -0.351 OA
HETATM   29  C   UNK N   1      33.145  17.735   7.497  0.00  0.00     0.210 C 
ENDBRANCH  23  28
BRANCH  24  30
HETATM   30  O   UNK N   1      31.577  16.675   4.576  0.00  0.00    -0.353 OA
HETATM   31  C   UNK N   1      32.262  17.554   3.766  0.00  0.00     0.210 C 
ENDBRANCH  24  30
ENDBRANCH  19  20
ENDBRANCH  17  19
ENDBRANCH   5  17
BRANCH   2  32
HETATM   32  N   UNK N   1      22.040  16.704   5.351  0.00  0.00    -0.384 N 
HETATM   33  H   UNK N   1      21.768  16.781   6.295  0.00  0.00     0.157 HD
HETATM   34  H   UNK N   1      22.446  15.869   5.023  0.00  0.00     0.157 HD
ENDBRANCH   2  32
TORSDOF 7
ENDMDL
MODEL 5
REMARK VINA RESULT:      -6.4     11.009     14.526
REMARK  7 active torsions:
REMARK  status: ('A' for Active; 'I' for Inactive)
REMARK       I    between atoms: C_1  and  N_21 
REMARK    1  A    between atoms: C_2  and  N_24 
REMARK    2  A    between atoms: C_5  and  N_27 
REMARK    3  A    between atoms: C_8  and  C_9 
REMARK    4  A    between atoms: C_8  and  N_27 
REMARK    5  A    between atoms: C_11  and  O_28 
REMARK    6  A    between atoms: C_12  and  O_29 
REMARK    7  A    between atoms: C_13  and  O_30 
ROOT
HETATM    1  C   UNK N   1      18.805  15.472   0.158  0.00  0.00     0.679 A 
HETATM    2  C   UNK N   1      20.425  14.728   1.718  0.00  0.00     0.128 A 
HETATM    3  C   UNK N   1      20.630  16.048   2.136  0.00  0.00     0.055 A 
HETATM    4  C   UNK N   1      21.571  16.381   3.114  0.00  0.00     0.050 A 
HETATM    5  C   UNK N   1      21.785  17.725   3.455  0.00  0.00     0.046 A 
HETATM    6  C   UNK N   1      21.015  18.710   2.814  0.00  0.00     0.119 A 
HETATM    7  C   UNK N   1      19.885  17.070   1.525  0.00  0.00     0.135 A 
HETATM    8  N   UNK N   1      18.986  16.760   0.553  0.00  0.00    -0.176 N 
ATOM      9  HN  UNK N   1      18.442  17.503   0.116  1.00  0.00     0.186 HD
HETATM   10  N   UNK N   1      17.886  15.176  -0.867  0.00  0.00    -0.234 N 
HETATM   11  N   UNK N   1      19.520  14.470   0.736  0.00  0.00    -0.176 N 
ATOM     12  HN  UNK N   1      19.376  13.508   0.429  1.00  0.00     0.186 HD
HETATM   13  N   UNK N   1      20.080  18.365   1.886  0.00  0.00    -0.349 N 
ATOM     14  HN  UNK N   1      19.517  19.095   1.452  1.00  0.00     0.167 HD
HETATM   15  H   UNK N   1      17.781  14.250  -1.182  0.00  0.00     0.174 HD
HETATM   16  H   UNK N   1      17.348  15.896  -1.269  0.00  0.00     0.174 HD
ENDROOT
BRANCH   5  17
HETATM   17  N   UNK N   1      22.837  18.088   4.352  0.00  0.00    -0.380 N 
HETATM   18  C   UNK N   1      24.034  18.710   3.831  0.00  0.00     0.150 C 
BRANCH  17  19
HETATM   19  C   UNK N   1      22.541  18.217   5.768  0.00  0.00     0.161 C 
BRANCH  19  20
HETATM   20  C   UNK N   1      21.891  17.027   6.404  0.00  0.00    -0.035 A 
HETATM   21  C   UNK N   1      22.606  15.850   6.620  0.00  0.00     0.048 A 
HETATM   22  C   UNK N   1      22.049  14.782   7.343  0.00  0.00     0.104 A 
HETATM   23  C   UNK N   1      20.742  14.919   7.888  0.00  0.00     0.135 A 
HETATM   24  C   UNK N   1      20.027  16.112   7.672  0.00  0.00     0.104 A 
HETATM   25  C   UNK N   1      20.609  17.156   6.932  0.00  0.00     0.048 A 
BRANCH  22  26
HETATM   26  O   UNK N   1      22.756  13.639   7.523  0.00  0.00    -0.353 OA
HETATM   27  C   UNK N   1      23.884  13.560   8.310  0.00  0.00     0.210 C 
ENDBRANCH  22  26
BRANCH  23  28
HETATM   28  O   UNK N   1      20.142  13.946   8.629  0.00  0.00    -0.351 OA
HETATM   29  C   UNK N   1      20.372  13.694   9.962  0.00  0.00     0.210 C 
ENDBRANCH  23  28
BRANCH  24  30
HETATM   30  O   UNK N   1      18.787  16.241   8.206  0.00  0.00    -0.353 OA
HETATM   31  C   UNK N   1      18.485  17.125   9.218  0.00  0.00     0.210 C 
ENDBRANCH  24  30
ENDBRANCH  19  20
ENDBRANCH  17  19
ENDBRANCH   5  17
BRANCH   2  32
HETATM   32  N   UNK N   1      21.162  13.667   2.285  0.00  0.00    -0.384 N 
HETATM   33  H   UNK N   1      21.207  12.798   1.824  0.00  0.00     0.157 HD
HETATM   34  H   UNK N   1      21.632  13.796   3.140  0.00  0.00     0.157 HD
ENDBRANCH   2  32
TORSDOF 7
ENDMDL
MODEL 6
REMARK VINA RESULT:      -6.3      1.463      2.921
REMARK  7 active torsions:
REMARK  status: ('A' for Active; 'I' for Inactive)
REMARK       I    between atoms: C_1  and  N_21 
REMARK    1  A    between atoms: C_2  and  N_24 
REMARK    2  A    between atoms: C_5  and  N_27 
REMARK    3  A    between atoms: C_8  and  C_9 
REMARK    4  A    between atoms: C_8  and  N_27 
REMARK    5  A    between atoms: C_11  and  O_28 
REMARK    6  A    between atoms: C_12  and  O_29 
REMARK    7  A    between atoms: C_13  and  O_30 
ROOT
HETATM    1  C   UNK N   1      36.042  14.495  12.464  0.00  0.00     0.679 A 
HETATM    2  C   UNK N   1      34.761  13.598  10.685  0.00  0.00     0.128 A 
HETATM    3  C   UNK N   1      34.697  14.863  10.091  0.00  0.00     0.055 A 
HETATM    4  C   UNK N   1      33.996  15.094   8.905  0.00  0.00     0.050 A 
HETATM    5  C   UNK N   1      33.907  16.393   8.381  0.00  0.00     0.046 A 
HETATM    6  C   UNK N   1      34.561  17.435   9.060  0.00  0.00     0.119 A 
HETATM    7  C   UNK N   1      35.334  15.939  10.732  0.00  0.00     0.135 A 
HETATM    8  N   UNK N   1      35.996  15.732  11.900  0.00  0.00    -0.176 N 
ATOM      9  HN  UNK N   1      36.462  16.513  12.360  1.00  0.00     0.186 HD
HETATM   10  N   UNK N   1      36.714  14.307  13.688  0.00  0.00    -0.234 N 
HETATM   11  N   UNK N   1      35.429  13.443  11.859  0.00  0.00    -0.176 N 
ATOM     12  HN  UNK N   1      35.470  12.520  12.294  1.00  0.00     0.186 HD
HETATM   13  N   UNK N   1      35.266  17.187  10.198  0.00  0.00    -0.349 N 
ATOM     14  HN  UNK N   1      35.752  17.955  10.660  1.00  0.00     0.167 HD
HETATM   15  H   UNK N   1      36.716  13.421  14.117  0.00  0.00     0.174 HD
HETATM   16  H   UNK N   1      37.181  15.061  14.113  0.00  0.00     0.174 HD
ENDROOT
BRANCH   5  17
HETATM   17  N   UNK N   1      33.082  16.663   7.247  0.00  0.00    -0.380 N 
HETATM   18  C   UNK N   1      33.622  17.417   6.137  0.00  0.00     0.150 C 
BRANCH  17  19
HETATM   19  C   UNK N   1      31.895  15.854   7.031  0.00  0.00     0.161 C 
BRANCH  19  20
HETATM   20  C   UNK N   1      30.863  16.450   6.123  0.00  0.00    -0.035 A 
HETATM   21  C   UNK N   1      30.693  15.977   4.823  0.00  0.00     0.048 A 
HETATM   22  C   UNK N   1      29.637  16.430   4.015  0.00  0.00     0.104 A 
HETATM   23  C   UNK N   1      28.707  17.365   4.548  0.00  0.00     0.135 A 
HETATM   24  C   UNK N   1      28.880  17.835   5.864  0.00  0.00     0.104 A 
HETATM   25  C   UNK N   1      29.956  17.372   6.640  0.00  0.00     0.048 A 
BRANCH  22  26
HETATM   26  O   UNK N   1      29.504  15.969   2.747  0.00  0.00    -0.353 OA
HETATM   27  C   UNK N   1      29.265  14.648   2.438  0.00  0.00     0.210 C 
ENDBRANCH  22  26
BRANCH  23  28
HETATM   28  O   UNK N   1      27.636  17.829   3.845  0.00  0.00    -0.351 OA
HETATM   29  C   UNK N   1      26.428  17.187   3.705  0.00  0.00     0.210 C 
ENDBRANCH  23  28
BRANCH  24  30
HETATM   30  O   UNK N   1      27.982  18.717   6.370  0.00  0.00    -0.353 OA
HETATM   31  C   UNK N   1      28.064  19.236   7.643  0.00  0.00     0.210 C 
ENDBRANCH  24  30
ENDBRANCH  19  20
ENDBRANCH  17  19
ENDBRANCH   5  17
BRANCH   2  32
HETATM   32  N   UNK N   1      34.121  12.488  10.094  0.00  0.00    -0.384 N 
HETATM   33  H   UNK N   1      33.657  12.589   9.231  0.00  0.00     0.157 HD
HETATM   34  H   UNK N   1      34.138  11.613  10.544  0.00  0.00     0.157 HD
ENDBRANCH   2  32
TORSDOF 7
ENDMDL
MODEL 7
REMARK VINA RESULT:      -6.2      1.694      3.070
REMARK  7 active torsions:
REMARK  status: ('A' for Active; 'I' for Inactive)
REMARK       I    between atoms: C_1  and  N_21 
REMARK    1  A    between atoms: C_2  and  N_24 
REMARK    2  A    between atoms: C_5  and  N_27 
REMARK    3  A    between atoms: C_8  and  C_9 
REMARK    4  A    between atoms: C_8  and  N_27 
REMARK    5  A    between atoms: C_11  and  O_28 
REMARK    6  A    between atoms: C_12  and  O_29 
REMARK    7  A    between atoms: C_13  and  O_30 
ROOT
HETATM    1  C   UNK N   1      36.683  12.855  13.445  0.00  0.00     0.679 A 
HETATM    2  C   UNK N   1      35.027  12.512  11.786  0.00  0.00     0.128 A 
HETATM    3  C   UNK N   1      35.156  13.845  11.379  0.00  0.00     0.055 A 
HETATM    4  C   UNK N   1      34.375  14.390  10.357  0.00  0.00     0.050 A 
HETATM    5  C   UNK N   1      34.496  15.749  10.028  0.00  0.00     0.046 A 
HETATM    6  C   UNK N   1      35.435  16.526  10.726  0.00  0.00     0.119 A 
HETATM    7  C   UNK N   1      36.081  14.665  12.048  0.00  0.00     0.135 A 
HETATM    8  N   UNK N   1      36.827  14.152  13.061  0.00  0.00    -0.176 N 
ATOM      9  HN  UNK N   1      37.502  14.747  13.540  1.00  0.00     0.186 HD
HETATM   10  N   UNK N   1      37.449  12.352  14.513  0.00  0.00    -0.234 N 
HETATM   11  N   UNK N   1      35.790  12.049  12.811  0.00  0.00    -0.176 N 
ATOM     12  HN  UNK N   1      35.691  11.078  13.111  1.00  0.00     0.186 HD
HETATM   13  N   UNK N   1      36.210  15.971  11.698  0.00  0.00    -0.349 N 
ATOM     14  HN  UNK N   1      36.902  16.550  12.174  1.00  0.00     0.167 HD
HETATM   15  H   UNK N   1      37.320  11.425  14.818  0.00  0.00     0.174 HD
HETATM   16  H   UNK N   1      38.115  12.926  14.955  0.00  0.00     0.174 HD
ENDROOT
BRANCH   5  17
HETATM   17  N   UNK N   1      33.609  16.348   9.081  0.00  0.00    -0.380 N 
HETATM   18  C   UNK N   1      34.044  17.505   8.332  0.00  0.00     0.150 C 
BRANCH  17  19
HETATM   19  C   UNK N   1      32.485  15.575   8.582  0.00  0.00     0.161 C 
BRANCH  19  20
HETATM   20  C   UNK N   1      31.922  16.025   7.269  0.00  0.00    -0.035 A 
HETATM   21  C   UNK N   1      32.393  15.497   6.069  0.00  0.00     0.048 A 
HETATM   22  C   UNK N   1      31.775  15.806   4.845  0.00  0.00     0.104 A 
HETATM   23  C   UNK N   1      30.630  16.650   4.839  0.00  0.00     0.135 A 
HETATM   24  C   UNK N   1      30.155  17.176   6.055  0.00  0.00     0.104 A 
HETATM   25  C   UNK N   1      30.805  16.858   7.260  0.00  0.00     0.048 A 
BRANCH  22  26
HETATM   26  O   UNK N   1      32.263  15.295   3.688  0.00  0.00    -0.353 OA
HETATM   27  C   UNK N   1      33.362  15.808   3.034  0.00  0.00     0.210 C 
ENDBRANCH  22  26
BRANCH  23  28
HETATM   28  O   UNK N   1      29.952  16.972   3.702  0.00  0.00    -0.351 OA
HETATM   29  C   UNK N   1      28.999  16.193   3.087  0.00  0.00     0.210 C 
ENDBRANCH  23  28
BRANCH  24  30
HETATM   30  O   UNK N   1      29.055  17.969   6.044  0.00  0.00    -0.353 OA
HETATM   31  C   UNK N   1      27.898  17.672   6.729  0.00  0.00     0.210 C 
ENDBRANCH  24  30
ENDBRANCH  19  20
ENDBRANCH  17  19
ENDBRANCH   5  17
BRANCH   2  32
HETATM   32  N   UNK N   1      34.098  11.652  11.163  0.00  0.00    -0.384 N 
HETATM   33  H   UNK N   1      33.538  11.053  11.708  0.00  0.00     0.157 HD
HETATM   34  H   UNK N   1      34.009  11.651  10.182  0.00  0.00     0.157 HD
ENDBRANCH   2  32
TORSDOF 7
ENDMDL
MODEL 8
REMARK VINA RESULT:      -6.2      5.791      9.342
REMARK  7 active torsions:
REMARK  status: ('A' for Active; 'I' for Inactive)
REMARK       I    between atoms: C_1  and  N_21 
REMARK    1  A    between atoms: C_2  and  N_24 
REMARK    2  A    between atoms: C_5  and  N_27 
REMARK    3  A    between atoms: C_8  and  C_9 
REMARK    4  A    between atoms: C_8  and  N_27 
REMARK    5  A    between atoms: C_11  and  O_28 
REMARK    6  A    between atoms: C_12  and  O_29 
REMARK    7  A    between atoms: C_13  and  O_30 
ROOT
HETATM    1  C   UNK N   1      34.557  10.480  20.724  0.00  0.00     0.679 A 
HETATM    2  C   UNK N   1      35.101  10.103  18.449  0.00  0.00     0.128 A 
HETATM    3  C   UNK N   1      35.306  11.475  18.269  0.00  0.00     0.055 A 
HETATM    4  C   UNK N   1      35.656  12.019  17.030  0.00  0.00     0.050 A 
HETATM    5  C   UNK N   1      35.790  13.409  16.885  0.00  0.00     0.046 A 
HETATM    6  C   UNK N   1      35.595  14.222  18.013  0.00  0.00     0.119 A 
HETATM    7  C   UNK N   1      35.123  12.332  19.368  0.00  0.00     0.135 A 
HETATM    8  N   UNK N   1      34.757  11.817  20.571  0.00  0.00    -0.176 N 
ATOM      9  HN  UNK N   1      34.631  12.440  21.367  1.00  0.00     0.186 HD
HETATM   10  N   UNK N   1      34.155   9.970  21.973  0.00  0.00    -0.234 N 
HETATM   11  N   UNK N   1      34.727   9.637  19.670  0.00  0.00    -0.176 N 
ATOM     12  HN  UNK N   1      34.571   8.636  19.799  1.00  0.00     0.186 HD
HETATM   13  N   UNK N   1      35.286  13.673  19.220  0.00  0.00    -0.349 N 
ATOM     14  HN  UNK N   1      35.173  14.282  20.030  1.00  0.00     0.167 HD
HETATM   15  H   UNK N   1      33.972   9.009  22.077  0.00  0.00     0.174 HD
HETATM   16  H   UNK N   1      34.057  10.575  22.743  0.00  0.00     0.174 HD
ENDROOT
BRANCH   5  17
HETATM   17  N   UNK N   1      36.012  13.985  15.596  0.00  0.00    -0.380 N 
HETATM   18  C   UNK N   1      37.125  14.886  15.402  0.00  0.00     0.150 C 
BRANCH  17  19
HETATM   19  C   UNK N   1      35.405  13.362  14.433  0.00  0.00     0.161 C 
BRANCH  19  20
HETATM   20  C   UNK N   1      36.149  13.539  13.144  0.00  0.00    -0.035 A 
HETATM   21  C   UNK N   1      36.909  12.501  12.608  0.00  0.00     0.048 A 
HETATM   22  C   UNK N   1      37.492  12.607  11.334  0.00  0.00     0.104 A 
HETATM   23  C   UNK N   1      37.273  13.786  10.567  0.00  0.00     0.135 A 
HETATM   24  C   UNK N   1      36.500  14.828  11.111  0.00  0.00     0.104 A 
HETATM   25  C   UNK N   1      35.943  14.694  12.395  0.00  0.00     0.048 A 
BRANCH  22  26
HETATM   26  O   UNK N   1      38.243  11.592  10.842  0.00  0.00    -0.353 OA
HETATM   27  C   UNK N   1      37.709  10.446  10.296  0.00  0.00     0.210 C 
ENDBRANCH  22  26
BRANCH  23  28
HETATM   28  O   UNK N   1      37.773  13.956   9.311  0.00  0.00    -0.351 OA
HETATM   29  C   UNK N   1      37.192  13.507   8.148  0.00  0.00     0.210 C 
ENDBRANCH  23  28
BRANCH  24  30
HETATM   30  O   UNK N   1      36.285  15.944  10.369  0.00  0.00    -0.353 OA
HETATM   31  C   UNK N   1      35.257  16.828  10.609  0.00  0.00     0.210 C 
ENDBRANCH  24  30
ENDBRANCH  19  20
ENDBRANCH  17  19
ENDBRANCH   5  17
BRANCH   2  32
HETATM   32  N   UNK N   1      35.251   9.201  17.374  0.00  0.00    -0.384 N 
HETATM   33  H   UNK N   1      34.535   9.111  16.703  0.00  0.00     0.157 HD
HETATM   34  H   UNK N   1      36.071   8.663  17.294  0.00  0.00     0.157 HD
ENDBRANCH   2  32
TORSDOF 7
ENDMDL
MODEL 9
REMARK VINA RESULT:      -6.1      7.406      9.971
REMARK  7 active torsions:
REMARK  status: ('A' for Active; 'I' for Inactive)
REMARK       I    between atoms: C_1  and  N_21 
REMARK    1  A    between atoms: C_2  and  N_24 
REMARK    2  A    between atoms: C_5  and  N_27 
REMARK    3  A    between atoms: C_8  and  C_9 
REMARK    4  A    between atoms: C_8  and  N_27 
REMARK    5  A    between atoms: C_11  and  O_28 
REMARK    6  A    between atoms: C_12  and  O_29 
REMARK    7  A    between atoms: C_13  and  O_30 
ROOT
HETATM    1  C   UNK N   1      22.812  12.165  11.679  0.00  0.00     0.679 A 
HETATM    2  C   UNK N   1      21.467  13.260  10.065  0.00  0.00     0.128 A 
HETATM    3  C   UNK N   1      22.585  13.416   9.237  0.00  0.00     0.055 A 
HETATM    4  C   UNK N   1      22.513  14.074   8.007  0.00  0.00     0.050 A 
HETATM    5  C   UNK N   1      23.675  14.260   7.241  0.00  0.00     0.046 A 
HETATM    6  C   UNK N   1      24.888  13.746   7.727  0.00  0.00     0.119 A 
HETATM    7  C   UNK N   1      23.823  12.919   9.680  0.00  0.00     0.135 A 
HETATM    8  N   UNK N   1      23.909  12.301  10.887  0.00  0.00    -0.176 N 
ATOM      9  HN  UNK N   1      24.807  11.937  11.203  1.00  0.00     0.186 HD
HETATM   10  N   UNK N   1      22.928  11.542  12.937  0.00  0.00    -0.234 N 
HETATM   11  N   UNK N   1      21.606  12.642  11.268  0.00  0.00    -0.176 N 
ATOM     12  HN  UNK N   1      20.791  12.534  11.873  1.00  0.00     0.186 HD
HETATM   13  N   UNK N   1      24.934  13.080   8.914  0.00  0.00    -0.349 N 
ATOM     14  HN  UNK N   1      25.821  12.695   9.235  1.00  0.00     0.167 HD
HETATM   15  H   UNK N   1      22.144  11.476  13.528  0.00  0.00     0.174 HD
HETATM   16  H   UNK N   1      23.794  11.172  13.224  0.00  0.00     0.174 HD
ENDROOT
BRANCH   5  17
HETATM   17  N   UNK N   1      23.639  15.049   6.049  0.00  0.00    -0.380 N 
HETATM   18  C   UNK N   1      22.601  16.041   5.884  0.00  0.00     0.150 C 
BRANCH  17  19
HETATM   19  C   UNK N   1      24.837  15.148   5.235  0.00  0.00     0.161 C 
BRANCH  19  20
HETATM   20  C   UNK N   1      25.571  16.452   5.320  0.00  0.00    -0.035 A 
HETATM   21  C   UNK N   1      26.642  16.615   6.197  0.00  0.00     0.048 A 
HETATM   22  C   UNK N   1      27.424  17.781   6.183  0.00  0.00     0.104 A 
HETATM   23  C   UNK N   1      27.133  18.800   5.233  0.00  0.00     0.135 A 
HETATM   24  C   UNK N   1      26.054  18.627   4.346  0.00  0.00     0.104 A 
HETATM   25  C   UNK N   1      25.283  17.453   4.397  0.00  0.00     0.048 A 
BRANCH  22  26
HETATM   26  O   UNK N   1      28.449  17.925   7.058  0.00  0.00    -0.353 OA
HETATM   27  C   UNK N   1      29.716  17.434   6.834  0.00  0.00     0.210 C 
ENDBRANCH  22  26
BRANCH  23  28
HETATM   28  O   UNK N   1      27.862  19.946   5.128  0.00  0.00    -0.351 OA
HETATM   29  C   UNK N   1      27.662  21.095   5.859  0.00  0.00     0.210 C 
ENDBRANCH  23  28
BRANCH  24  30
HETATM   30  O   UNK N   1      25.791  19.597   3.434  0.00  0.00    -0.353 OA
HETATM   31  C   UNK N   1      24.580  20.246   3.346  0.00  0.00     0.210 C 
ENDBRANCH  24  30
ENDBRANCH  19  20
ENDBRANCH  17  19
ENDBRANCH   5  17
BRANCH   2  32
HETATM   32  N   UNK N   1      20.205  13.759   9.678  0.00  0.00    -0.384 N 
HETATM   33  H   UNK N   1      19.561  13.169   9.223  0.00  0.00     0.157 HD
HETATM   34  H   UNK N   1      19.969  14.696   9.863  0.00  0.00     0.157 HD
ENDBRANCH   2  32
TORSDOF 7
ENDMDL
