MODEL 1
REMARK VINA RESULT:      -5.6      0.000      0.000
REMARK  3 active torsions:
REMARK  status: ('A' for Active; 'I' for Inactive)
REMARK       I    between atoms: N_6  and  C_7 
REMARK    1  A    between atoms: C_7  and  C_9 
REMARK    2  A    between atoms: C_9  and  O_11 
REMARK    3  A    between atoms: O_11  and  C_12 
ROOT
HETATM    1  C   UNK N   1      31.724  17.791   8.458  0.00  0.00     0.126 C 
HETATM    2  C   UNK N   1      30.220  17.907   8.219  0.00  0.00     0.020 C 
HETATM    3  C   UNK N   1      29.756  16.889   7.206  0.00  0.00     0.003 C 
HETATM    4  C   UNK N   1      30.423  17.242   5.902  0.00  0.00     0.020 C 
HETATM    5  C   UNK N   1      31.932  17.068   6.016  0.00  0.00     0.126 C 
HETATM    6  N   UNK N   1      32.525  17.582   7.253  0.00  0.00    -0.344 N 
HETATM    7  C   UNK N   1      33.886  17.761   7.276  0.00  0.00     0.319 C 
HETATM    8  O   UNK N   1      34.534  17.536   6.263  0.00  0.00    -0.262 OA
ENDROOT
BRANCH   7   9
HETATM    9  C   UNK N   1      34.647  18.224   8.475  0.00  0.00     0.351 C 
HETATM   10  O   UNK N   1      35.297  19.261   8.464  0.00  0.00    -0.254 OA
BRANCH   9  11
HETATM   11  O   UNK N   1      34.600  17.457   9.592  0.00  0.00    -0.314 OA
BRANCH  11  12
HETATM   12  C   UNK N   1      35.117  16.187   9.666  0.00  0.00     0.175 C 
HETATM   13  C   UNK N   1      35.917  16.060  10.947  0.00  0.00     0.034 C 
ENDBRANCH  11  12
ENDBRANCH   9  11
ENDBRANCH   7   9
TORSDOF 3
ENDMDL
MODEL 2
REMARK VINA RESULT:      -5.1     11.033     13.112
REMARK  3 active torsions:
REMARK  status: ('A' for Active; 'I' for Inactive)
REMARK       I    between atoms: N_6  and  C_7 
REMARK    1  A    between atoms: C_7  and  C_9 
REMARK    2  A    between atoms: C_9  and  O_11 
REMARK    3  A    between atoms: O_11  and  C_12 
ROOT
HETATM    1  C   UNK N   1      23.237  13.446   9.205  0.00  0.00     0.126 C 
HETATM    2  C   UNK N   1      24.607  13.141   9.809  0.00  0.00     0.020 C 
HETATM    3  C   UNK N   1      24.597  11.809  10.519  0.00  0.00     0.003 C 
HETATM    4  C   UNK N   1      23.641  11.943  11.676  0.00  0.00     0.020 C 
HETATM    5  C   UNK N   1      22.223  12.161  11.167  0.00  0.00     0.126 C 
HETATM    6  N   UNK N   1      22.099  13.112  10.061  0.00  0.00    -0.344 N 
HETATM    7  C   UNK N   1      20.846  13.601   9.783  0.00  0.00     0.319 C 
HETATM    8  O   UNK N   1      19.906  13.268  10.492  0.00  0.00    -0.262 OA
ENDROOT
BRANCH   7   9
HETATM    9  C   UNK N   1      20.545  14.533   8.656  0.00  0.00     0.351 C 
HETATM   10  O   UNK N   1      20.134  14.128   7.578  0.00  0.00    -0.254 OA
BRANCH   9  11
HETATM   11  O   UNK N   1      20.743  15.860   8.858  0.00  0.00    -0.314 OA
BRANCH  11  12
HETATM   12  C   UNK N   1      20.079  16.843   8.167  0.00  0.00     0.175 C 
HETATM   13  C   UNK N   1      18.832  17.225   8.939  0.00  0.00     0.034 C 
ENDBRANCH  11  12
ENDBRANCH   9  11
ENDBRANCH   7   9
TORSDOF 3
ENDMDL
MODEL 3
REMARK VINA RESULT:      -5.1      2.171      4.848
REMARK  3 active torsions:
REMARK  status: ('A' for Active; 'I' for Inactive)
REMARK       I    between atoms: N_6  and  C_7 
REMARK    1  A    between atoms: C_7  and  C_9 
REMARK    2  A    between atoms: C_9  and  O_11 
REMARK    3  A    between atoms: O_11  and  C_12 
ROOT
HETATM    1  C   UNK N   1      33.748  15.667   9.318  0.00  0.00     0.126 C 
HETATM    2  C   UNK N   1      34.163  14.386  10.039  0.00  0.00     0.020 C 
HETATM    3  C   UNK N   1      34.696  14.693  11.417  0.00  0.00     0.003 C 
HETATM    4  C   UNK N   1      35.955  15.499  11.223  0.00  0.00     0.020 C 
HETATM    5  C   UNK N   1      35.628  16.844  10.587  0.00  0.00     0.126 C 
HETATM    6  N   UNK N   1      34.668  16.792   9.482  0.00  0.00    -0.344 N 
HETATM    7  C   UNK N   1      34.587  17.890   8.662  0.00  0.00     0.319 C 
HETATM    8  O   UNK N   1      35.342  18.834   8.853  0.00  0.00    -0.262 OA
ENDROOT
BRANCH   7   9
HETATM    9  C   UNK N   1      33.622  18.015   7.528  0.00  0.00     0.351 C 
HETATM   10  O   UNK N   1      32.431  18.222   7.716  0.00  0.00    -0.254 OA
BRANCH   9  11
HETATM   11  O   UNK N   1      34.106  17.891   6.267  0.00  0.00    -0.314 OA
BRANCH  11  12
HETATM   12  C   UNK N   1      33.710  16.908   5.393  0.00  0.00     0.175 C 
HETATM   13  C   UNK N   1      32.874  17.539   4.297  0.00  0.00     0.034 C 
ENDBRANCH  11  12
ENDBRANCH   9  11
ENDBRANCH   7   9
TORSDOF 3
ENDMDL
MODEL 4
REMARK VINA RESULT:      -4.8      1.762      4.490
REMARK  3 active torsions:
REMARK  status: ('A' for Active; 'I' for Inactive)
REMARK       I    between atoms: N_6  and  C_7 
REMARK    1  A    between atoms: C_7  and  C_9 
REMARK    2  A    between atoms: C_9  and  O_11 
REMARK    3  A    between atoms: O_11  and  C_12 
ROOT
HETATM    1  C   UNK N   1      34.933  16.324  10.253  0.00  0.00     0.126 C 
HETATM    2  C   UNK N   1      34.922  15.160  11.242  0.00  0.00     0.020 C 
HETATM    3  C   UNK N   1      35.903  14.091  10.825  0.00  0.00     0.003 C 
HETATM    4  C   UNK N   1      35.409  13.540   9.512  0.00  0.00     0.020 C 
HETATM    5  C   UNK N   1      35.469  14.613   8.433  0.00  0.00     0.126 C 
HETATM    6  N   UNK N   1      34.994  15.935   8.845  0.00  0.00    -0.344 N 
HETATM    7  C   UNK N   1      34.708  16.842   7.854  0.00  0.00     0.319 C 
HETATM    8  O   UNK N   1      34.811  16.499   6.685  0.00  0.00    -0.262 OA
ENDROOT
BRANCH   7   9
HETATM    9  C   UNK N   1      34.269  18.247   8.110  0.00  0.00     0.351 C 
HETATM   10  O   UNK N   1      35.069  19.135   8.369  0.00  0.00    -0.254 OA
BRANCH   9  11
HETATM   11  O   UNK N   1      32.941  18.518   8.049  0.00  0.00    -0.314 OA
BRANCH  11  12
HETATM   12  C   UNK N   1      31.968  17.664   8.505  0.00  0.00     0.175 C 
HETATM   13  C   UNK N   1      31.032  17.334   7.359  0.00  0.00     0.034 C 
ENDBRANCH  11  12
ENDBRANCH   9  11
ENDBRANCH   7   9
TORSDOF 3
ENDMDL
MODEL 5
REMARK VINA RESULT:      -4.7     15.708     17.174
REMARK  3 active torsions:
REMARK  status: ('A' for Active; 'I' for Inactive)
REMARK       I    between atoms: N_6  and  C_7 
REMARK    1  A    between atoms: C_7  and  C_9 
REMARK    2  A    between atoms: C_9  and  O_11 
REMARK    3  A    between atoms: O_11  and  C_12 
ROOT
HETATM    1  C   UNK N   1      26.870  26.553  -5.730  0.00  0.00     0.126 C 
HETATM    2  C   UNK N   1      26.501  28.026  -5.900  0.00  0.00     0.020 C 
HETATM    3  C   UNK N   1      26.827  28.809  -4.652  0.00  0.00     0.003 C 
HETATM    4  C   UNK N   1      25.938  28.271  -3.560  0.00  0.00     0.020 C 
HETATM    5  C   UNK N   1      26.296  26.822  -3.255  0.00  0.00     0.126 C 
HETATM    6  N   UNK N   1      26.529  25.979  -4.429  0.00  0.00    -0.344 N 
HETATM    7  C   UNK N   1      26.521  24.618  -4.244  0.00  0.00     0.319 C 
HETATM    8  O   UNK N   1      26.275  24.170  -3.133  0.00  0.00    -0.262 OA
ENDROOT
BRANCH   7   9
HETATM    9  C   UNK N   1      26.797  23.627  -5.326  0.00  0.00     0.351 C 
HETATM   10  O   UNK N   1      27.937  23.298  -5.623  0.00  0.00    -0.254 OA
BRANCH   9  11
HETATM   11  O   UNK N   1      25.737  23.093  -5.983  0.00  0.00    -0.314 OA
BRANCH  11  12
HETATM   12  C   UNK N   1      25.817  22.543  -7.238  0.00  0.00     0.175 C 
HETATM   13  C   UNK N   1      24.771  21.453  -7.361  0.00  0.00     0.034 C 
ENDBRANCH  11  12
ENDBRANCH   9  11
ENDBRANCH   7   9
TORSDOF 3
ENDMDL
MODEL 6
REMARK VINA RESULT:      -4.7     15.356     16.601
REMARK  3 active torsions:
REMARK  status: ('A' for Active; 'I' for Inactive)
REMARK       I    between atoms: N_6  and  C_7 
REMARK    1  A    between atoms: C_7  and  C_9 
REMARK    2  A    between atoms: C_9  and  O_11 
REMARK    3  A    between atoms: O_11  and  C_12 
ROOT
HETATM    1  C   UNK N   1      28.391  23.259  -5.552  0.00  0.00     0.126 C 
HETATM    2  C   UNK N   1      29.064  22.136  -6.339  0.00  0.00     0.020 C 
HETATM    3  C   UNK N   1      28.647  22.169  -7.788  0.00  0.00     0.003 C 
HETATM    4  C   UNK N   1      27.167  21.884  -7.819  0.00  0.00     0.020 C 
HETATM    5  C   UNK N   1      26.399  23.005  -7.131  0.00  0.00     0.126 C 
HETATM    6  N   UNK N   1      26.982  23.477  -5.874  0.00  0.00    -0.344 N 
HETATM    7  C   UNK N   1      26.183  24.231  -5.049  0.00  0.00     0.319 C 
HETATM    8  O   UNK N   1      25.019  24.432  -5.369  0.00  0.00    -0.262 OA
ENDROOT
BRANCH   7   9
HETATM    9  C   UNK N   1      26.644  24.832  -3.762  0.00  0.00     0.351 C 
HETATM   10  O   UNK N   1      26.715  24.174  -2.734  0.00  0.00    -0.254 OA
BRANCH   9  11
HETATM   11  O   UNK N   1      26.987  26.144  -3.761  0.00  0.00    -0.314 OA
BRANCH  11  12
HETATM   12  C   UNK N   1      26.222  27.131  -3.189  0.00  0.00     0.175 C 
HETATM   13  C   UNK N   1      25.516  27.899  -4.288  0.00  0.00     0.034 C 
ENDBRANCH  11  12
ENDBRANCH   9  11
ENDBRANCH   7   9
TORSDOF 3
ENDMDL
MODEL 7
REMARK VINA RESULT:      -4.6     12.000     13.887
REMARK  3 active torsions:
REMARK  status: ('A' for Active; 'I' for Inactive)
REMARK       I    between atoms: N_6  and  C_7 
REMARK    1  A    between atoms: C_7  and  C_9 
REMARK    2  A    between atoms: C_9  and  O_11 
REMARK    3  A    between atoms: O_11  and  C_12 
ROOT
HETATM    1  C   UNK N   1      29.857  21.674  -4.578  0.00  0.00     0.126 C 
HETATM    2  C   UNK N   1      30.727  21.082  -5.685  0.00  0.00     0.020 C 
HETATM    3  C   UNK N   1      31.734  20.111  -5.118  0.00  0.00     0.003 C 
HETATM    4  C   UNK N   1      32.655  20.912  -4.234  0.00  0.00     0.020 C 
HETATM    5  C   UNK N   1      31.889  21.472  -3.042  0.00  0.00     0.126 C 
HETATM    6  N   UNK N   1      30.576  22.038  -3.358  0.00  0.00    -0.344 N 
HETATM    7  C   UNK N   1      29.991  22.846  -2.414  0.00  0.00     0.319 C 
HETATM    8  O   UNK N   1      30.602  23.097  -1.384  0.00  0.00    -0.262 OA
ENDROOT
BRANCH   7   9
HETATM    9  C   UNK N   1      28.635  23.454  -2.561  0.00  0.00     0.351 C 
HETATM   10  O   UNK N   1      27.698  23.117  -1.850  0.00  0.00    -0.254 OA
BRANCH   9  11
HETATM   11  O   UNK N   1      28.464  24.401  -3.516  0.00  0.00    -0.314 OA
BRANCH  11  12
HETATM   12  C   UNK N   1      27.236  24.790  -3.992  0.00  0.00     0.175 C 
HETATM   13  C   UNK N   1      26.913  23.978  -5.230  0.00  0.00     0.034 C 
ENDBRANCH  11  12
ENDBRANCH   9  11
ENDBRANCH   7   9
TORSDOF 3
ENDMDL
MODEL 8
REMARK VINA RESULT:      -4.6     13.582     15.948
REMARK  3 active torsions:
REMARK  status: ('A' for Active; 'I' for Inactive)
REMARK       I    between atoms: N_6  and  C_7 
REMARK    1  A    between atoms: C_7  and  C_9 
REMARK    2  A    between atoms: C_9  and  O_11 
REMARK    3  A    between atoms: O_11  and  C_12 
ROOT
HETATM    1  C   UNK N   1      29.014  23.249  -5.047  0.00  0.00     0.126 C 
HETATM    2  C   UNK N   1      30.510  22.957  -4.946  0.00  0.00     0.020 C 
HETATM    3  C   UNK N   1      30.819  22.148  -3.710  0.00  0.00     0.003 C 
HETATM    4  C   UNK N   1      30.474  23.017  -2.528  0.00  0.00     0.020 C 
HETATM    5  C   UNK N   1      28.976  23.289  -2.493  0.00  0.00     0.126 C 
HETATM    6  N   UNK N   1      28.373  23.618  -3.786  0.00  0.00    -0.344 N 
HETATM    7  C   UNK N   1      27.126  24.193  -3.776  0.00  0.00     0.319 C 
HETATM    8  O   UNK N   1      26.597  24.450  -2.703  0.00  0.00    -0.262 OA
ENDROOT
BRANCH   7   9
HETATM    9  C   UNK N   1      26.355  24.535  -5.008  0.00  0.00     0.351 C 
HETATM   10  O   UNK N   1      25.553  23.755  -5.504  0.00  0.00    -0.254 OA
BRANCH   9  11
HETATM   11  O   UNK N   1      26.568  25.750  -5.573  0.00  0.00    -0.314 OA
BRANCH  11  12
HETATM   12  C   UNK N   1      25.688  26.352  -6.439  0.00  0.00     0.175 C 
HETATM   13  C   UNK N   1      24.725  27.205  -5.639  0.00  0.00     0.034 C 
ENDBRANCH  11  12
ENDBRANCH   9  11
ENDBRANCH   7   9
TORSDOF 3
ENDMDL
MODEL 9
REMARK VINA RESULT:      -4.6     14.076     15.915
REMARK  3 active torsions:
REMARK  status: ('A' for Active; 'I' for Inactive)
REMARK       I    between atoms: N_6  and  C_7 
REMARK    1  A    between atoms: C_7  and  C_9 
REMARK    2  A    between atoms: C_9  and  O_11 
REMARK    3  A    between atoms: O_11  and  C_12 
ROOT
HETATM    1  C   UNK N   1      27.738  26.818  -5.384  0.00  0.00     0.126 C 
HETATM    2  C   UNK N   1      27.151  28.136  -5.888  0.00  0.00     0.020 C 
HETATM    3  C   UNK N   1      26.762  29.027  -4.734  0.00  0.00     0.003 C 
HETATM    4  C   UNK N   1      25.653  28.320  -3.997  0.00  0.00     0.020 C 
HETATM    5  C   UNK N   1      26.170  27.028  -3.378  0.00  0.00     0.126 C 
HETATM    6  N   UNK N   1      27.038  26.228  -4.244  0.00  0.00    -0.344 N 
HETATM    7  C   UNK N   1      27.260  24.921  -3.885  0.00  0.00     0.319 C 
HETATM    8  O   UNK N   1      26.693  24.470  -2.900  0.00  0.00    -0.262 OA
ENDROOT
BRANCH   7   9
HETATM    9  C   UNK N   1      28.162  23.993  -4.630  0.00  0.00     0.351 C 
HETATM   10  O   UNK N   1      27.763  23.328  -5.576  0.00  0.00    -0.254 OA
BRANCH   9  11
HETATM   11  O   UNK N   1      29.454  23.903  -4.226  0.00  0.00    -0.314 OA
BRANCH  11  12
HETATM   12  C   UNK N   1      29.993  22.783  -3.642  0.00  0.00     0.175 C 
HETATM   13  C   UNK N   1      29.939  22.945  -2.136  0.00  0.00     0.034 C 
ENDBRANCH  11  12
ENDBRANCH   9  11
ENDBRANCH   7   9
TORSDOF 3
ENDMDL
