MODEL 1
REMARK VINA RESULT:      -5.2      0.000      0.000
REMARK  6 active torsions:
REMARK  status: ('A' for Active; 'I' for Inactive)
REMARK    1  A    between atoms: C_1  and  C_7 
REMARK    2  A    between atoms: C_7  and  P_13 
REMARK    3  A    between atoms: C_9  and  O_14 
REMARK    4  A    between atoms: C_11  and  O_15 
REMARK    5  A    between atoms: P_13  and  O_14 
REMARK    6  A    between atoms: P_13  and  O_15 
ROOT
HETATM    1  C   UNK N   1      25.643  25.981  -7.972  0.00  0.00     0.170 C 
ENDROOT
BRANCH   1   2
HETATM    2  C   UNK N   1      25.906  26.891  -6.817  0.00  0.00    -0.047 A 
HETATM    3  C   UNK N   1      24.920  27.038  -5.834  0.00  0.00     0.008 A 
HETATM    4  C   UNK N   1      25.135  27.877  -4.739  0.00  0.00     0.007 A 
HETATM    5  C   UNK N   1      26.339  28.579  -4.621  0.00  0.00    -0.062 A 
HETATM    6  C   UNK N   1      27.330  28.433  -5.599  0.00  0.00     0.007 A 
HETATM    7  C   UNK N   1      26.562  29.476  -3.457  0.00  0.00     0.048 C 
HETATM    8  C   UNK N   1      27.117  27.587  -6.693  0.00  0.00     0.008 A 
ENDBRANCH   1   2
BRANCH   1   9
HETATM    9  P   UNK N   1      25.771  24.173  -7.504  0.00  0.00     0.333 P 
HETATM   10  O   UNK N   1      27.227  23.700  -7.758  0.00  0.00    -0.258 OA
BRANCH   9  11
HETATM   11  O   UNK N   1      25.516  23.826  -5.810  0.00  0.00    -0.314 OA
BRANCH  11  12
HETATM   12  C   UNK N   1      26.773  23.805  -5.201  0.00  0.00     0.174 C 
HETATM   13  C   UNK N   1      26.703  24.509  -3.862  0.00  0.00     0.034 C 
ENDBRANCH  11  12
ENDBRANCH   9  11
BRANCH   9  14
HETATM   14  O   UNK N   1      24.832  23.084  -8.493  0.00  0.00    -0.314 OA
BRANCH  14  15
HETATM   15  C   UNK N   1      24.750  21.891  -7.773  0.00  0.00     0.174 C 
HETATM   16  C   UNK N   1      25.563  20.821  -8.472  0.00  0.00     0.034 C 
ENDBRANCH  14  15
ENDBRANCH   9  14
ENDBRANCH   1   9
TORSDOF 6
ENDMDL
MODEL 2
REMARK VINA RESULT:      -5.2      1.638      3.606
REMARK  6 active torsions:
REMARK  status: ('A' for Active; 'I' for Inactive)
REMARK    1  A    between atoms: C_1  and  C_7 
REMARK    2  A    between atoms: C_7  and  P_13 
REMARK    3  A    between atoms: C_9  and  O_14 
REMARK    4  A    between atoms: C_11  and  O_15 
REMARK    5  A    between atoms: P_13  and  O_14 
REMARK    6  A    between atoms: P_13  and  O_15 
ROOT
HETATM    1  C   UNK N   1      25.134  26.139  -5.752  0.00  0.00     0.170 C 
ENDROOT
BRANCH   1   2
HETATM    2  C   UNK N   1      25.879  27.389  -5.415  0.00  0.00    -0.047 A 
HETATM    3  C   UNK N   1      26.855  27.856  -6.305  0.00  0.00     0.008 A 
HETATM    4  C   UNK N   1      27.566  29.023  -6.022  0.00  0.00     0.007 A 
HETATM    5  C   UNK N   1      27.310  29.731  -4.844  0.00  0.00    -0.062 A 
HETATM    6  C   UNK N   1      26.335  29.271  -3.952  0.00  0.00     0.007 A 
HETATM    7  C   UNK N   1      28.074  30.970  -4.544  0.00  0.00     0.048 C 
HETATM    8  C   UNK N   1      25.616  28.105  -4.238  0.00  0.00     0.008 A 
ENDBRANCH   1   2
BRANCH   1   9
HETATM    9  P   UNK N   1      26.050  24.594  -5.227  0.00  0.00     0.333 P 
HETATM   10  O   UNK N   1      25.974  24.477  -3.682  0.00  0.00    -0.258 OA
BRANCH   9  11
HETATM   11  O   UNK N   1      25.353  23.093  -5.788  0.00  0.00    -0.314 OA
BRANCH  11  12
HETATM   12  C   UNK N   1      25.883  22.842  -7.056  0.00  0.00     0.174 C 
HETATM   13  C   UNK N   1      25.142  21.690  -7.701  0.00  0.00     0.034 C 
ENDBRANCH  11  12
ENDBRANCH   9  11
BRANCH   9  14
HETATM   14  O   UNK N   1      27.769  24.613  -5.530  0.00  0.00    -0.314 OA
BRANCH  14  15
HETATM   15  C   UNK N   1      28.377  24.691  -4.275  0.00  0.00     0.174 C 
HETATM   16  C   UNK N   1      29.164  25.981  -4.173  0.00  0.00     0.034 C 
ENDBRANCH  14  15
ENDBRANCH   9  14
ENDBRANCH   1   9
TORSDOF 6
ENDMDL
MODEL 3
REMARK VINA RESULT:      -5.1     24.568     26.861
REMARK  6 active torsions:
REMARK  status: ('A' for Active; 'I' for Inactive)
REMARK    1  A    between atoms: C_1  and  C_7 
REMARK    2  A    between atoms: C_7  and  P_13 
REMARK    3  A    between atoms: C_9  and  O_14 
REMARK    4  A    between atoms: C_11  and  O_15 
REMARK    5  A    between atoms: P_13  and  O_14 
REMARK    6  A    between atoms: P_13  and  O_15 
ROOT
HETATM    1  C   UNK N   1      34.216  11.521  14.042  0.00  0.00     0.170 C 
ENDROOT
BRANCH   1   2
HETATM    2  C   UNK N   1      34.569  11.690  15.483  0.00  0.00    -0.047 A 
HETATM    3  C   UNK N   1      34.607  12.982  16.023  0.00  0.00     0.008 A 
HETATM    4  C   UNK N   1      34.930  13.176  17.367  0.00  0.00     0.007 A 
HETATM    5  C   UNK N   1      35.222  12.077  18.182  0.00  0.00    -0.062 A 
HETATM    6  C   UNK N   1      35.183  10.784  17.649  0.00  0.00     0.007 A 
HETATM    7  C   UNK N   1      35.570  12.287  19.611  0.00  0.00     0.048 C 
HETATM    8  C   UNK N   1      34.853  10.588  16.303  0.00  0.00     0.008 A 
ENDBRANCH   1   2
BRANCH   1   9
HETATM    9  P   UNK N   1      35.345  12.489  12.907  0.00  0.00     0.333 P 
HETATM   10  O   UNK N   1      35.480  11.716  11.569  0.00  0.00    -0.258 OA
BRANCH   9  11
HETATM   11  O   UNK N   1      34.740  14.055  12.419  0.00  0.00    -0.314 OA
BRANCH  11  12
HETATM   12  C   UNK N   1      35.826  14.933  12.417  0.00  0.00     0.174 C 
HETATM   13  C   UNK N   1      35.685  15.917  11.275  0.00  0.00     0.034 C 
ENDBRANCH  11  12
ENDBRANCH   9  11
BRANCH   9  14
HETATM   14  O   UNK N   1      37.000  12.622  13.446  0.00  0.00    -0.314 OA
BRANCH  14  15
HETATM   15  C   UNK N   1      37.595  11.392  13.158  0.00  0.00     0.174 C 
HETATM   16  C   UNK N   1      38.072  10.747  14.442  0.00  0.00     0.034 C 
ENDBRANCH  14  15
ENDBRANCH   9  14
ENDBRANCH   1   9
TORSDOF 6
ENDMDL
MODEL 4
REMARK VINA RESULT:      -5.0      0.872      3.014
REMARK  6 active torsions:
REMARK  status: ('A' for Active; 'I' for Inactive)
REMARK    1  A    between atoms: C_1  and  C_7 
REMARK    2  A    between atoms: C_7  and  P_13 
REMARK    3  A    between atoms: C_9  and  O_14 
REMARK    4  A    between atoms: C_11  and  O_15 
REMARK    5  A    between atoms: P_13  and  O_14 
REMARK    6  A    between atoms: P_13  and  O_15 
ROOT
HETATM    1  C   UNK N   1      25.775  26.072  -7.449  0.00  0.00     0.170 C 
ENDROOT
BRANCH   1   2
HETATM    2  C   UNK N   1      26.060  27.115  -6.420  0.00  0.00    -0.047 A 
HETATM    3  C   UNK N   1      25.210  27.222  -5.312  0.00  0.00     0.008 A 
HETATM    4  C   UNK N   1      25.450  28.184  -4.329  0.00  0.00     0.007 A 
HETATM    5  C   UNK N   1      26.541  29.050  -4.449  0.00  0.00    -0.062 A 
HETATM    6  C   UNK N   1      27.396  28.946  -5.553  0.00  0.00     0.007 A 
HETATM    7  C   UNK N   1      26.791  30.077  -3.404  0.00  0.00     0.048 C 
HETATM    8  C   UNK N   1      27.160  27.978  -6.535  0.00  0.00     0.008 A 
ENDBRANCH   1   2
BRANCH   1   9
HETATM    9  P   UNK N   1      26.207  24.348  -6.862  0.00  0.00     0.333 P 
HETATM   10  O   UNK N   1      25.225  23.954  -5.727  0.00  0.00    -0.258 OA
BRANCH   9  11
HETATM   11  O   UNK N   1      25.991  23.085  -8.050  0.00  0.00    -0.314 OA
BRANCH  11  12
HETATM   12  C   UNK N   1      25.380  22.009  -7.399  0.00  0.00     0.174 C 
HETATM   13  C   UNK N   1      25.539  20.754  -8.231  0.00  0.00     0.034 C 
ENDBRANCH  11  12
ENDBRANCH   9  11
BRANCH   9  14
HETATM   14  O   UNK N   1      27.767  24.196  -6.094  0.00  0.00    -0.314 OA
BRANCH  14  15
HETATM   15  C   UNK N   1      27.511  24.094  -4.726  0.00  0.00     0.174 C 
HETATM   16  C   UNK N   1      28.147  25.262  -4.001  0.00  0.00     0.034 C 
ENDBRANCH  14  15
ENDBRANCH   9  14
ENDBRANCH   1   9
TORSDOF 6
ENDMDL
MODEL 5
REMARK VINA RESULT:      -5.0     24.563     26.857
REMARK  6 active torsions:
REMARK  status: ('A' for Active; 'I' for Inactive)
REMARK    1  A    between atoms: C_1  and  C_7 
REMARK    2  A    between atoms: C_7  and  P_13 
REMARK    3  A    between atoms: C_9  and  O_14 
REMARK    4  A    between atoms: C_11  and  O_15 
REMARK    5  A    between atoms: P_13  and  O_14 
REMARK    6  A    between atoms: P_13  and  O_15 
ROOT
HETATM    1  C   UNK N   1      36.676  14.059  14.882  0.00  0.00     0.170 C 
ENDROOT
BRANCH   1   2
HETATM    2  C   UNK N   1      36.244  13.064  15.908  0.00  0.00    -0.047 A 
HETATM    3  C   UNK N   1      36.652  11.731  15.773  0.00  0.00     0.008 A 
HETATM    4  C   UNK N   1      36.269  10.777  16.717  0.00  0.00     0.007 A 
HETATM    5  C   UNK N   1      35.470  11.148  17.803  0.00  0.00    -0.062 A 
HETATM    6  C   UNK N   1      35.061  12.479  17.946  0.00  0.00     0.007 A 
HETATM    7  C   UNK N   1      35.059  10.128  18.803  0.00  0.00     0.048 C 
HETATM    8  C   UNK N   1      35.450  13.437  17.003  0.00  0.00     0.008 A 
ENDBRANCH   1   2
BRANCH   1   9
HETATM    9  P   UNK N   1      36.051  13.640  13.169  0.00  0.00     0.333 P 
HETATM   10  O   UNK N   1      35.854  14.962  12.380  0.00  0.00    -0.258 OA
BRANCH   9  11
HETATM   11  O   UNK N   1      37.164  12.729  12.176  0.00  0.00    -0.314 OA
BRANCH  11  12
HETATM   12  C   UNK N   1      37.304  13.425  10.972  0.00  0.00     0.174 C 
HETATM   13  C   UNK N   1      38.679  13.167  10.391  0.00  0.00     0.034 C 
ENDBRANCH  11  12
ENDBRANCH   9  11
BRANCH   9  14
HETATM   14  O   UNK N   1      34.463  12.918  13.116  0.00  0.00    -0.314 OA
BRANCH  14  15
HETATM   15  C   UNK N   1      34.664  11.580  12.770  0.00  0.00     0.174 C 
HETATM   16  C   UNK N   1      33.889  10.689  13.718  0.00  0.00     0.034 C 
ENDBRANCH  14  15
ENDBRANCH   9  14
ENDBRANCH   1   9
TORSDOF 6
ENDMDL
MODEL 6
REMARK VINA RESULT:      -5.0     24.160     26.489
REMARK  6 active torsions:
REMARK  status: ('A' for Active; 'I' for Inactive)
REMARK    1  A    between atoms: C_1  and  C_7 
REMARK    2  A    between atoms: C_7  and  P_13 
REMARK    3  A    between atoms: C_9  and  O_14 
REMARK    4  A    between atoms: C_11  and  O_15 
REMARK    5  A    between atoms: P_13  and  O_14 
REMARK    6  A    between atoms: P_13  and  O_15 
ROOT
HETATM    1  C   UNK N   1      36.729  14.179  14.778  0.00  0.00     0.170 C 
ENDROOT
BRANCH   1   2
HETATM    2  C   UNK N   1      36.307  13.117  15.739  0.00  0.00    -0.047 A 
HETATM    3  C   UNK N   1      36.762  11.807  15.541  0.00  0.00     0.008 A 
HETATM    4  C   UNK N   1      36.391  10.791  16.424  0.00  0.00     0.007 A 
HETATM    5  C   UNK N   1      35.558  11.078  17.511  0.00  0.00    -0.062 A 
HETATM    6  C   UNK N   1      35.103  12.385  17.715  0.00  0.00     0.007 A 
HETATM    7  C   UNK N   1      35.161   9.993  18.445  0.00  0.00     0.048 C 
HETATM    8  C   UNK N   1      35.480  13.405  16.834  0.00  0.00     0.008 A 
ENDBRANCH   1   2
BRANCH   1   9
HETATM    9  P   UNK N   1      36.032  13.910  13.062  0.00  0.00     0.333 P 
HETATM   10  O   UNK N   1      37.015  13.010  12.267  0.00  0.00    -0.258 OA
BRANCH   9  11
HETATM   11  O   UNK N   1      34.525  13.027  13.004  0.00  0.00    -0.314 OA
BRANCH  11  12
HETATM   12  C   UNK N   1      34.824  11.733  12.570  0.00  0.00     0.174 C 
HETATM   13  C   UNK N   1      34.062  10.726  13.406  0.00  0.00     0.034 C 
ENDBRANCH  11  12
ENDBRANCH   9  11
BRANCH   9  14
HETATM   14  O   UNK N   1      35.932  15.343  12.070  0.00  0.00    -0.314 OA
BRANCH  14  15
HETATM   15  C   UNK N   1      34.775  15.195  11.303  0.00  0.00     0.174 C 
HETATM   16  C   UNK N   1      35.153  14.857   9.875  0.00  0.00     0.034 C 
ENDBRANCH  14  15
ENDBRANCH   9  14
ENDBRANCH   1   9
TORSDOF 6
ENDMDL
MODEL 7
REMARK VINA RESULT:      -5.0     25.551     27.816
REMARK  6 active torsions:
REMARK  status: ('A' for Active; 'I' for Inactive)
REMARK    1  A    between atoms: C_1  and  C_7 
REMARK    2  A    between atoms: C_7  and  P_13 
REMARK    3  A    between atoms: C_9  and  O_14 
REMARK    4  A    between atoms: C_11  and  O_15 
REMARK    5  A    between atoms: P_13  and  O_14 
REMARK    6  A    between atoms: P_13  and  O_15 
ROOT
HETATM    1  C   UNK N   1      34.841  12.664  15.121  0.00  0.00     0.170 C 
ENDROOT
BRANCH   1   2
HETATM    2  C   UNK N   1      35.092  12.196  16.517  0.00  0.00    -0.047 A 
HETATM    3  C   UNK N   1      35.434  10.855  16.729  0.00  0.00     0.008 A 
HETATM    4  C   UNK N   1      35.680  10.386  18.021  0.00  0.00     0.007 A 
HETATM    5  C   UNK N   1      35.582  11.255  19.112  0.00  0.00    -0.062 A 
HETATM    6  C   UNK N   1      35.244  12.598  18.906  0.00  0.00     0.007 A 
HETATM    7  C   UNK N   1      35.839  10.751  20.486  0.00  0.00     0.048 C 
HETATM    8  C   UNK N   1      35.004  13.070  17.611  0.00  0.00     0.008 A 
ENDBRANCH   1   2
BRANCH   1   9
HETATM    9  P   UNK N   1      36.375  13.367  14.313  0.00  0.00     0.333 P 
HETATM   10  O   UNK N   1      35.954  14.550  13.402  0.00  0.00    -0.258 OA
BRANCH   9  11
HETATM   11  O   UNK N   1      37.529  14.085  15.413  0.00  0.00    -0.314 OA
BRANCH  11  12
HETATM   12  C   UNK N   1      37.233  15.448  15.486  0.00  0.00     0.174 C 
HETATM   13  C   UNK N   1      37.270  15.902  16.930  0.00  0.00     0.034 C 
ENDBRANCH  11  12
ENDBRANCH   9  11
BRANCH   9  14
HETATM   14  O   UNK N   1      37.186  12.292  13.203  0.00  0.00    -0.314 OA
BRANCH  14  15
HETATM   15  C   UNK N   1      36.815  12.714  11.924  0.00  0.00     0.174 C 
HETATM   16  C   UNK N   1      38.034  12.745  11.027  0.00  0.00     0.034 C 
ENDBRANCH  14  15
ENDBRANCH   9  14
ENDBRANCH   1   9
TORSDOF 6
ENDMDL
MODEL 8
REMARK VINA RESULT:      -4.9     13.768     15.886
REMARK  6 active torsions:
REMARK  status: ('A' for Active; 'I' for Inactive)
REMARK    1  A    between atoms: C_1  and  C_7 
REMARK    2  A    between atoms: C_7  and  P_13 
REMARK    3  A    between atoms: C_9  and  O_14 
REMARK    4  A    between atoms: C_11  and  O_15 
REMARK    5  A    between atoms: P_13  and  O_14 
REMARK    6  A    between atoms: P_13  and  O_15 
ROOT
HETATM    1  C   UNK N   1      29.951  16.519   6.517  0.00  0.00     0.170 C 
ENDROOT
BRANCH   1   2
HETATM    2  C   UNK N   1      29.138  17.751   6.295  0.00  0.00    -0.047 A 
HETATM    3  C   UNK N   1      28.601  18.416   7.405  0.00  0.00     0.008 A 
HETATM    4  C   UNK N   1      27.839  19.573   7.234  0.00  0.00     0.007 A 
HETATM    5  C   UNK N   1      27.605  20.073   5.949  0.00  0.00    -0.062 A 
HETATM    6  C   UNK N   1      28.141  19.415   4.836  0.00  0.00     0.007 A 
HETATM    7  C   UNK N   1      26.789  21.302   5.770  0.00  0.00     0.048 C 
HETATM    8  C   UNK N   1      28.910  18.259   5.007  0.00  0.00     0.008 A 
ENDBRANCH   1   2
BRANCH   1   9
HETATM    9  P   UNK N   1      31.770  16.893   6.750  0.00  0.00     0.333 P 
HETATM   10  O   UNK N   1      32.511  15.565   7.056  0.00  0.00    -0.258 OA
BRANCH   9  11
HETATM   11  O   UNK N   1      32.589  17.504   5.331  0.00  0.00    -0.314 OA
BRANCH  11  12
HETATM   12  C   UNK N   1      32.574  16.483   4.377  0.00  0.00     0.174 C 
HETATM   13  C   UNK N   1      32.182  17.050   3.029  0.00  0.00     0.034 C 
ENDBRANCH  11  12
ENDBRANCH   9  11
BRANCH   9  14
HETATM   14  O   UNK N   1      32.152  17.878   8.139  0.00  0.00    -0.314 OA
BRANCH  14  15
HETATM   15  C   UNK N   1      33.376  17.406   8.616  0.00  0.00     0.174 C 
HETATM   16  C   UNK N   1      34.485  18.342   8.182  0.00  0.00     0.034 C 
ENDBRANCH  14  15
ENDBRANCH   9  14
ENDBRANCH   1   9
TORSDOF 6
ENDMDL
MODEL 9
REMARK VINA RESULT:      -4.8     24.049     26.375
REMARK  6 active torsions:
REMARK  status: ('A' for Active; 'I' for Inactive)
REMARK    1  A    between atoms: C_1  and  C_7 
REMARK    2  A    between atoms: C_7  and  P_13 
REMARK    3  A    between atoms: C_9  and  O_14 
REMARK    4  A    between atoms: C_11  and  O_15 
REMARK    5  A    between atoms: P_13  and  O_14 
REMARK    6  A    between atoms: P_13  and  O_15 
ROOT
HETATM    1  C   UNK N   1      36.727  14.333  14.754  0.00  0.00     0.170 C 
ENDROOT
BRANCH   1   2
HETATM    2  C   UNK N   1      36.307  13.232  15.671  0.00  0.00    -0.047 A 
HETATM    3  C   UNK N   1      36.754  11.929  15.414  0.00  0.00     0.008 A 
HETATM    4  C   UNK N   1      36.384  10.878  16.254  0.00  0.00     0.007 A 
HETATM    5  C   UNK N   1      35.558  11.120  17.357  0.00  0.00    -0.062 A 
HETATM    6  C   UNK N   1      35.110  12.420  17.620  0.00  0.00     0.007 A 
HETATM    7  C   UNK N   1      35.161   9.997  18.245  0.00  0.00     0.048 C 
HETATM    8  C   UNK N   1      35.486  13.475  16.783  0.00  0.00     0.008 A 
ENDBRANCH   1   2
BRANCH   1   9
HETATM    9  P   UNK N   1      36.088  14.098  13.011  0.00  0.00     0.333 P 
HETATM   10  O   UNK N   1      34.693  13.425  13.085  0.00  0.00    -0.258 OA
BRANCH   9  11
HETATM   11  O   UNK N   1      35.786  15.576  12.128  0.00  0.00    -0.314 OA
BRANCH  11  12
HETATM   12  C   UNK N   1      34.810  15.290  11.171  0.00  0.00     0.174 C 
HETATM   13  C   UNK N   1      35.430  15.303   9.790  0.00  0.00     0.034 C 
ENDBRANCH  11  12
ENDBRANCH   9  11
BRANCH   9  14
HETATM   14  O   UNK N   1      37.005  12.984  12.030  0.00  0.00    -0.314 OA
BRANCH  14  15
HETATM   15  C   UNK N   1      36.152  11.909  11.775  0.00  0.00     0.174 C 
HETATM   16  C   UNK N   1      36.912  10.609  11.934  0.00  0.00     0.034 C 
ENDBRANCH  14  15
ENDBRANCH   9  14
ENDBRANCH   1   9
TORSDOF 6
ENDMDL
