REMARK  6 active torsions:
REMARK  status: ('A' for Active; 'I' for Inactive)
REMARK    1  A    between atoms: C_1  and  C_7 
REMARK    2  A    between atoms: C_7  and  P_13 
REMARK    3  A    between atoms: C_9  and  O_14 
REMARK    4  A    between atoms: C_11  and  O_15 
REMARK    5  A    between atoms: P_13  and  O_14 
REMARK    6  A    between atoms: P_13  and  O_15 
ROOT
HETATM    1  C   UNK N   1       1.293  -0.095   0.579  0.00  0.00     0.170 C 
ENDROOT
BRANCH   1   2
HETATM    2  C   UNK N   1       0.827  -1.502   0.398  0.00  0.00    -0.047 A 
HETATM    3  C   UNK N   1       1.724  -2.452  -0.107  0.00  0.00     0.008 A 
HETATM    4  C   UNK N   1       1.322  -3.777  -0.284  0.00  0.00     0.007 A 
HETATM    5  C   UNK N   1       0.017  -4.162   0.039  0.00  0.00    -0.062 A 
HETATM    6  C   UNK N   1      -0.883  -3.218   0.547  0.00  0.00     0.007 A 
HETATM    7  C   UNK N   1      -0.409  -5.572  -0.156  0.00  0.00     0.048 C 
HETATM    8  C   UNK N   1      -0.479  -1.891   0.731  0.00  0.00     0.008 A 
ENDBRANCH   1   2
BRANCH   1   9
HETATM    9  P   UNK N   1       0.231   1.137  -0.346  0.00  0.00     0.333 P 
HETATM   10  O   UNK N   1      -0.123   0.539  -1.733  0.00  0.00    -0.258 OA
BRANCH   9  11
HETATM   11  O   UNK N   1      -1.329   1.458   0.374  0.00  0.00    -0.314 OA
BRANCH  11  12
HETATM   12  C   UNK N   1      -1.518   2.842   0.345  0.00  0.00     0.174 C 
HETATM   13  C   UNK N   1      -2.928   3.155  -0.110  0.00  0.00     0.034 C 
ENDBRANCH  11  12
ENDBRANCH   9  11
BRANCH   9  14
HETATM   14  O   UNK N   1       1.025   2.635  -0.761  0.00  0.00    -0.314 OA
BRANCH  14  15
HETATM   15  C   UNK N   1       1.671   3.059   0.402  0.00  0.00     0.174 C 
HETATM   16  C   UNK N   1       3.107   3.419   0.082  0.00  0.00     0.034 C 
ENDBRANCH  14  15
ENDBRANCH   9  14
ENDBRANCH   1   9
TORSDOF 6
