MODEL 1
REMARK VINA RESULT:      -4.9      0.000      0.000
REMARK  5 active torsions:
REMARK  status: ('A' for Active; 'I' for Inactive)
REMARK    1  A    between atoms: S_1  and  Hg_2 
REMARK    2  A    between atoms: S_1  and  C_5 
REMARK    3  A    between atoms: Hg_2  and  C_3 
REMARK    4  A    between atoms: C_10  and  C_11 
REMARK    5  A    between atoms: C_11  and  O_12 
ROOT
HETATM    1  C   UNK N   1      28.620  18.430   5.980  0.00  0.00     0.014 A 
HETATM    2  C   UNK N   1      28.264  18.929   4.719  0.00  0.00     0.019 A 
HETATM    3  C   UNK N   1      27.458  20.054   4.580  0.00  0.00     0.001 A 
HETATM    4  C   UNK N   1      26.986  20.711   5.708  0.00  0.00     0.001 A 
HETATM    5  C   UNK N   1      27.322  20.241   6.974  0.00  0.00     0.020 A 
HETATM    6  C   UNK N   1      28.135  19.107   7.146  0.00  0.00     0.054 A 
ENDROOT
BRANCH   1   7
HETATM    7  S   UNK N   1      29.665  16.950   5.909  0.00  0.00    -0.140 SA
BRANCH   7   8
HETATM    8 Hg   UNK N   1      32.014  17.168   6.394  0.00  0.00     0.112 Hg
BRANCH   8   9
HETATM    9  C   UNK N   1      34.029  17.288   6.940  0.00  0.00    -0.010 C 
HETATM   10  C   UNK N   1      34.201  18.299   8.051  0.00  0.00     0.002 C 
ENDBRANCH   8   9
ENDBRANCH   7   8
ENDBRANCH   1   7
BRANCH   6  11
HETATM   11  C   UNK N   1      28.415  18.713   8.547  0.00  0.00     0.177 C 
HETATM   12  O   UNK N   1      29.526  18.819   9.022  0.00  0.00    -0.646 OA
BRANCH  11  13
HETATM   13  O   UNK N   1      27.421  18.227   9.318  0.00  0.00    -0.773 OA
HETATM   14  H   UNK N   1      26.842  18.815   9.762  0.00  0.00     0.167 HD
ENDBRANCH  11  13
ENDBRANCH   6  11
TORSDOF 5
ENDMDL
MODEL 2
REMARK VINA RESULT:      -4.8      3.991      5.156
REMARK  5 active torsions:
REMARK  status: ('A' for Active; 'I' for Inactive)
REMARK    1  A    between atoms: S_1  and  Hg_2 
REMARK    2  A    between atoms: S_1  and  C_5 
REMARK    3  A    between atoms: Hg_2  and  C_3 
REMARK    4  A    between atoms: C_10  and  C_11 
REMARK    5  A    between atoms: C_11  and  O_12 
ROOT
HETATM    1  C   UNK N   1      31.642  17.094   6.754  0.00  0.00     0.014 A 
HETATM    2  C   UNK N   1      30.411  17.146   6.085  0.00  0.00     0.019 A 
HETATM    3  C   UNK N   1      30.336  17.358   4.712  0.00  0.00     0.001 A 
HETATM    4  C   UNK N   1      31.499  17.525   3.973  0.00  0.00     0.001 A 
HETATM    5  C   UNK N   1      32.736  17.478   4.608  0.00  0.00     0.020 A 
HETATM    6  C   UNK N   1      32.843  17.265   5.994  0.00  0.00     0.054 A 
ENDROOT
BRANCH   1   7
HETATM    7  S   UNK N   1      31.486  16.820   8.541  0.00  0.00    -0.140 SA
BRANCH   7   8
HETATM    8 Hg   UNK N   1      33.488  16.730   9.876  0.00  0.00     0.112 Hg
BRANCH   8   9
HETATM    9  C   UNK N   1      35.272  16.541  10.951  0.00  0.00    -0.010 C 
HETATM   10  C   UNK N   1      35.338  15.178  11.602  0.00  0.00     0.002 C 
ENDBRANCH   8   9
ENDBRANCH   7   8
ENDBRANCH   1   7
BRANCH   6  11
HETATM   11  C   UNK N   1      34.219  17.240   6.544  0.00  0.00     0.177 C 
HETATM   12  O   UNK N   1      34.980  16.326   6.298  0.00  0.00    -0.646 OA
BRANCH  11  13
HETATM   13  O   UNK N   1      34.645  18.247   7.333  0.00  0.00    -0.773 OA
HETATM   14  H   UNK N   1      34.960  19.041   6.949  0.00  0.00     0.167 HD
ENDBRANCH  11  13
ENDBRANCH   6  11
TORSDOF 5
ENDMDL
MODEL 3
REMARK VINA RESULT:      -4.7     12.399     13.595
REMARK  5 active torsions:
REMARK  status: ('A' for Active; 'I' for Inactive)
REMARK    1  A    between atoms: S_1  and  Hg_2 
REMARK    2  A    between atoms: S_1  and  C_5 
REMARK    3  A    between atoms: Hg_2  and  C_3 
REMARK    4  A    between atoms: C_10  and  C_11 
REMARK    5  A    between atoms: C_11  and  O_12 
ROOT
HETATM    1  C   UNK N   1      25.984  25.143  -5.439  0.00  0.00     0.014 A 
HETATM    2  C   UNK N   1      25.249  26.212  -5.969  0.00  0.00     0.019 A 
HETATM    3  C   UNK N   1      25.071  27.397  -5.263  0.00  0.00     0.001 A 
HETATM    4  C   UNK N   1      25.628  27.539  -3.999  0.00  0.00     0.001 A 
HETATM    5  C   UNK N   1      26.364  26.496  -3.445  0.00  0.00     0.020 A 
HETATM    6  C   UNK N   1      26.561  25.287  -4.137  0.00  0.00     0.054 A 
ENDROOT
BRANCH   1   7
HETATM    7  S   UNK N   1      26.068  23.702  -6.539  0.00  0.00    -0.140 SA
BRANCH   7   8
HETATM    8 Hg   UNK N   1      27.983  22.250  -6.398  0.00  0.00     0.112 Hg
BRANCH   8   9
HETATM    9  C   UNK N   1      29.727  21.106  -6.246  0.00  0.00    -0.010 C 
HETATM   10  C   UNK N   1      29.680  19.964  -7.236  0.00  0.00     0.002 C 
ENDBRANCH   8   9
ENDBRANCH   7   8
ENDBRANCH   1   7
BRANCH   6  11
HETATM   11  C   UNK N   1      27.362  24.258  -3.433  0.00  0.00     0.177 C 
HETATM   12  O   UNK N   1      27.059  23.875  -2.321  0.00  0.00    -0.646 OA
BRANCH  11  13
HETATM   13  O   UNK N   1      28.448  23.729  -4.030  0.00  0.00    -0.773 OA
HETATM   14  H   UNK N   1      28.345  23.111  -4.727  0.00  0.00     0.167 HD
ENDBRANCH  11  13
ENDBRANCH   6  11
TORSDOF 5
ENDMDL
MODEL 4
REMARK VINA RESULT:      -4.7      2.549      5.171
REMARK  5 active torsions:
REMARK  status: ('A' for Active; 'I' for Inactive)
REMARK    1  A    between atoms: S_1  and  Hg_2 
REMARK    2  A    between atoms: S_1  and  C_5 
REMARK    3  A    between atoms: Hg_2  and  C_3 
REMARK    4  A    between atoms: C_10  and  C_11 
REMARK    5  A    between atoms: C_11  and  O_12 
ROOT
HETATM    1  C   UNK N   1      29.539  17.219   6.834  0.00  0.00     0.014 A 
HETATM    2  C   UNK N   1      30.824  17.049   6.302  0.00  0.00     0.019 A 
HETATM    3  C   UNK N   1      31.966  17.307   7.054  0.00  0.00     0.001 A 
HETATM    4  C   UNK N   1      31.846  17.747   8.365  0.00  0.00     0.001 A 
HETATM    5  C   UNK N   1      30.582  17.925   8.923  0.00  0.00     0.020 A 
HETATM    6  C   UNK N   1      29.411  17.671   8.187  0.00  0.00     0.054 A 
ENDROOT
BRANCH   1   7
HETATM    7  S   UNK N   1      28.209  16.831   5.662  0.00  0.00    -0.140 SA
BRANCH   7   8
HETATM    8 Hg   UNK N   1      26.801  18.619   4.877  0.00  0.00     0.112 Hg
BRANCH   8   9
HETATM    9  C   UNK N   1      25.575  20.223   4.332  0.00  0.00    -0.010 C 
HETATM   10  C   UNK N   1      25.673  20.461   2.842  0.00  0.00     0.002 C 
ENDBRANCH   8   9
ENDBRANCH   7   8
ENDBRANCH   1   7
BRANCH   6  11
HETATM   11  C   UNK N   1      28.133  17.903   8.899  0.00  0.00     0.177 C 
HETATM   12  O   UNK N   1      27.671  17.072   9.654  0.00  0.00    -0.646 OA
BRANCH  11  13
HETATM   13  O   UNK N   1      27.462  19.058   8.713  0.00  0.00    -0.773 OA
HETATM   14  H   UNK N   1      26.534  19.045   8.583  0.00  0.00     0.167 HD
ENDBRANCH  11  13
ENDBRANCH   6  11
TORSDOF 5
ENDMDL
MODEL 5
REMARK VINA RESULT:      -4.7      1.986      2.103
REMARK  5 active torsions:
REMARK  status: ('A' for Active; 'I' for Inactive)
REMARK    1  A    between atoms: S_1  and  Hg_2 
REMARK    2  A    between atoms: S_1  and  C_5 
REMARK    3  A    between atoms: Hg_2  and  C_3 
REMARK    4  A    between atoms: C_10  and  C_11 
REMARK    5  A    between atoms: C_11  and  O_12 
ROOT
HETATM    1  C   UNK N   1      28.616  18.357   6.064  0.00  0.00     0.014 A 
HETATM    2  C   UNK N   1      28.314  18.893   4.805  0.00  0.00     0.019 A 
HETATM    3  C   UNK N   1      27.596  20.076   4.668  0.00  0.00     0.001 A 
HETATM    4  C   UNK N   1      27.158  20.754   5.798  0.00  0.00     0.001 A 
HETATM    5  C   UNK N   1      27.442  20.248   7.063  0.00  0.00     0.020 A 
HETATM    6  C   UNK N   1      28.168  19.055   7.231  0.00  0.00     0.054 A 
ENDROOT
BRANCH   1   7
HETATM    7  S   UNK N   1      29.551  16.804   5.988  0.00  0.00    -0.140 SA
BRANCH   7   8
HETATM    8 Hg   UNK N   1      31.408  16.646   4.464  0.00  0.00     0.112 Hg
BRANCH   8   9
HETATM    9  C   UNK N   1      32.935  16.565   3.038  0.00  0.00    -0.010 C 
HETATM   10  C   UNK N   1      33.515  15.169   2.984  0.00  0.00     0.002 C 
ENDBRANCH   8   9
ENDBRANCH   7   8
ENDBRANCH   1   7
BRANCH   6  11
HETATM   11  C   UNK N   1      28.399  18.626   8.631  0.00  0.00     0.177 C 
HETATM   12  O   UNK N   1      29.478  18.775   9.166  0.00  0.00    -0.646 OA
BRANCH  11  13
HETATM   13  O   UNK N   1      27.396  18.061   9.333  0.00  0.00    -0.773 OA
HETATM   14  H   UNK N   1      27.568  17.682  10.173  0.00  0.00     0.167 HD
ENDBRANCH  11  13
ENDBRANCH   6  11
TORSDOF 5
ENDMDL
MODEL 6
REMARK VINA RESULT:      -4.6      3.641      7.325
REMARK  5 active torsions:
REMARK  status: ('A' for Active; 'I' for Inactive)
REMARK    1  A    between atoms: S_1  and  Hg_2 
REMARK    2  A    between atoms: S_1  and  C_5 
REMARK    3  A    between atoms: Hg_2  and  C_3 
REMARK    4  A    between atoms: C_10  and  C_11 
REMARK    5  A    between atoms: C_11  and  O_12 
ROOT
HETATM    1  C   UNK N   1      33.568  15.877   8.907  0.00  0.00     0.014 A 
HETATM    2  C   UNK N   1      33.518  14.903   9.914  0.00  0.00     0.019 A 
HETATM    3  C   UNK N   1      34.337  14.970  11.037  0.00  0.00     0.001 A 
HETATM    4  C   UNK N   1      35.232  16.021  11.177  0.00  0.00     0.001 A 
HETATM    5  C   UNK N   1      35.305  17.005  10.195  0.00  0.00     0.020 A 
HETATM    6  C   UNK N   1      34.489  16.964   9.051  0.00  0.00     0.054 A 
ENDROOT
BRANCH   1   7
HETATM    7  S   UNK N   1      32.415  15.570   7.540  0.00  0.00    -0.140 SA
BRANCH   7   8
HETATM    8 Hg   UNK N   1      30.225  16.568   7.627  0.00  0.00     0.112 Hg
BRANCH   8   9
HETATM    9  C   UNK N   1      28.294  17.346   7.815  0.00  0.00    -0.010 C 
HETATM   10  C   UNK N   1      28.108  17.933   9.196  0.00  0.00     0.002 C 
ENDBRANCH   8   9
ENDBRANCH   7   8
ENDBRANCH   1   7
BRANCH   6  11
HETATM   11  C   UNK N   1      34.670  18.072   8.083  0.00  0.00     0.177 C 
HETATM   12  O   UNK N   1      34.455  17.915   6.899  0.00  0.00    -0.646 OA
BRANCH  11  13
HETATM   13  O   UNK N   1      35.078  19.281   8.517  0.00  0.00    -0.773 OA
HETATM   14  H   UNK N   1      35.927  19.379   8.900  0.00  0.00     0.167 HD
ENDBRANCH  11  13
ENDBRANCH   6  11
TORSDOF 5
ENDMDL
MODEL 7
REMARK VINA RESULT:      -4.6     11.748     13.344
REMARK  5 active torsions:
REMARK  status: ('A' for Active; 'I' for Inactive)
REMARK    1  A    between atoms: S_1  and  Hg_2 
REMARK    2  A    between atoms: S_1  and  C_5 
REMARK    3  A    between atoms: Hg_2  and  C_3 
REMARK    4  A    between atoms: C_10  and  C_11 
REMARK    5  A    between atoms: C_11  and  O_12 
ROOT
HETATM    1  C   UNK N   1      35.983  11.351  16.621  0.00  0.00     0.014 A 
HETATM    2  C   UNK N   1      35.776  10.891  17.929  0.00  0.00     0.019 A 
HETATM    3  C   UNK N   1      35.334  11.740  18.940  0.00  0.00     0.001 A 
HETATM    4  C   UNK N   1      35.090  13.077  18.662  0.00  0.00     0.001 A 
HETATM    5  C   UNK N   1      35.286  13.564  17.373  0.00  0.00     0.020 A 
HETATM    6  C   UNK N   1      35.730  12.730  16.331  0.00  0.00     0.054 A 
ENDROOT
BRANCH   1   7
HETATM    7  S   UNK N   1      36.569  10.065  15.484  0.00  0.00    -0.140 SA
BRANCH   7   8
HETATM    8 Hg   UNK N   1      37.056  10.672  13.205  0.00  0.00     0.112 Hg
BRANCH   8   9
HETATM    9  C   UNK N   1      37.355  11.276  11.225  0.00  0.00    -0.010 C 
HETATM   10  C   UNK N   1      37.837  12.709  11.192  0.00  0.00     0.002 C 
ENDBRANCH   8   9
ENDBRANCH   7   8
ENDBRANCH   1   7
BRANCH   6  11
HETATM   11  C   UNK N   1      35.900  13.375  15.008  0.00  0.00     0.177 C 
HETATM   12  O   UNK N   1      34.963  13.512  14.249  0.00  0.00    -0.646 OA
BRANCH  11  13
HETATM   13  O   UNK N   1      37.114  13.825  14.632  0.00  0.00    -0.773 OA
HETATM   14  H   UNK N   1      37.713  14.150  15.275  0.00  0.00     0.167 HD
ENDBRANCH  11  13
ENDBRANCH   6  11
TORSDOF 5
ENDMDL
MODEL 8
REMARK VINA RESULT:      -4.5     13.472     15.302
REMARK  5 active torsions:
REMARK  status: ('A' for Active; 'I' for Inactive)
REMARK    1  A    between atoms: S_1  and  Hg_2 
REMARK    2  A    between atoms: S_1  and  C_5 
REMARK    3  A    between atoms: Hg_2  and  C_3 
REMARK    4  A    between atoms: C_10  and  C_11 
REMARK    5  A    between atoms: C_11  and  O_12 
ROOT
HETATM    1  C   UNK N   1      41.516  22.510   1.961  0.00  0.00     0.014 A 
HETATM    2  C   UNK N   1      40.363  21.733   1.781  0.00  0.00     0.019 A 
HETATM    3  C   UNK N   1      40.191  20.519   2.439  0.00  0.00     0.001 A 
HETATM    4  C   UNK N   1      41.177  20.052   3.297  0.00  0.00     0.001 A 
HETATM    5  C   UNK N   1      42.333  20.801   3.498  0.00  0.00     0.020 A 
HETATM    6  C   UNK N   1      42.534  22.032   2.847  0.00  0.00     0.054 A 
ENDROOT
BRANCH   1   7
HETATM    7  S   UNK N   1      41.518  24.043   0.990  0.00  0.00    -0.140 SA
BRANCH   7   8
HETATM    8 Hg   UNK N   1      43.496  25.416   1.001  0.00  0.00     0.112 Hg
BRANCH   8   9
HETATM    9  C   UNK N   1      45.292  26.486   1.017  0.00  0.00    -0.010 C 
HETATM   10  C   UNK N   1      46.238  25.888   2.034  0.00  0.00     0.002 C 
ENDBRANCH   8   9
ENDBRANCH   7   8
ENDBRANCH   1   7
BRANCH   6  11
HETATM   11  C   UNK N   1      43.808  22.726   3.147  0.00  0.00     0.177 C 
HETATM   12  O   UNK N   1      43.829  23.757   3.787  0.00  0.00    -0.646 OA
BRANCH  11  13
HETATM   13  O   UNK N   1      44.973  22.209   2.707  0.00  0.00    -0.773 OA
HETATM   14  H   UNK N   1      45.665  22.031   3.313  0.00  0.00     0.167 HD
ENDBRANCH  11  13
ENDBRANCH   6  11
TORSDOF 5
ENDMDL
MODEL 9
REMARK VINA RESULT:      -4.5      4.957      5.809
REMARK  5 active torsions:
REMARK  status: ('A' for Active; 'I' for Inactive)
REMARK    1  A    between atoms: S_1  and  Hg_2 
REMARK    2  A    between atoms: S_1  and  C_5 
REMARK    3  A    between atoms: Hg_2  and  C_3 
REMARK    4  A    between atoms: C_10  and  C_11 
REMARK    5  A    between atoms: C_11  and  O_12 
ROOT
HETATM    1  C   UNK N   1      34.149  15.794   5.081  0.00  0.00     0.014 A 
HETATM    2  C   UNK N   1      33.873  15.356   3.779  0.00  0.00     0.019 A 
HETATM    3  C   UNK N   1      32.996  16.046   2.947  0.00  0.00     0.001 A 
HETATM    4  C   UNK N   1      32.372  17.198   3.404  0.00  0.00     0.001 A 
HETATM    5  C   UNK N   1      32.626  17.659   4.693  0.00  0.00     0.020 A 
HETATM    6  C   UNK N   1      33.507  16.983   5.555  0.00  0.00     0.054 A 
ENDROOT
BRANCH   1   7
HETATM    7  S   UNK N   1      35.311  14.726   5.976  0.00  0.00    -0.140 SA
BRANCH   7   8
HETATM    8 Hg   UNK N   1      35.690  15.136   8.319  0.00  0.00     0.112 Hg
BRANCH   8   9
HETATM    9  C   UNK N   1      36.135  15.406  10.344  0.00  0.00    -0.010 C 
HETATM   10  C   UNK N   1      35.389  16.607  10.879  0.00  0.00     0.002 C 
ENDBRANCH   8   9
ENDBRANCH   7   8
ENDBRANCH   1   7
BRANCH   6  11
HETATM   11  C   UNK N   1      33.687  17.579   6.900  0.00  0.00     0.177 C 
HETATM   12  O   UNK N   1      34.652  18.266   7.161  0.00  0.00    -0.646 OA
BRANCH  11  13
HETATM   13  O   UNK N   1      32.764  17.362   7.859  0.00  0.00    -0.773 OA
HETATM   14  H   UNK N   1      32.342  18.087   8.276  0.00  0.00     0.167 HD
ENDBRANCH  11  13
ENDBRANCH   6  11
TORSDOF 5
ENDMDL
