REMARK  2 active torsions:
REMARK  status: ('A' for Active; 'I' for Inactive)
REMARK    1  A    between atoms: C_1  and  C_2 
REMARK    2  A    between atoms: C_1  and  N_3 
ROOT
HETATM    1  C   UNK N   1      -0.552  -0.075  -0.010  0.00  0.00     0.049 A 
HETATM    2  S   UNK N   1       0.277  -1.526  -0.002  0.00  0.00    -0.086 SA
HETATM    3  C   UNK N   1       1.818  -0.925  -0.002  0.00  0.00     0.017 A 
HETATM    4  C   UNK N   1       1.727   0.466  -0.011  0.00  0.00    -0.001 A 
HETATM    5  C   UNK N   1       0.395   0.959  -0.016  0.00  0.00     0.036 A 
HETATM    6  C   UNK N   1       3.038  -1.591   0.010  0.00  0.00     0.020 A 
HETATM    7  C   UNK N   1       4.208  -0.813   0.013  0.00  0.00     0.003 A 
HETATM    8  C   UNK N   1       4.132   0.596   0.003  0.00  0.00     0.019 A 
HETATM    9  C   UNK N   1       2.885   1.244  -0.010  0.00  0.00     0.018 A 
HETATM   10  I   UNK N   1       2.786   3.355  -0.022  0.00  0.00    -0.044 I 
ENDROOT
BRANCH   1  11
HETATM   11  C   UNK N   1      -2.007   0.120   0.004  0.00  0.00     0.109 C 
HETATM   12  N   UNK N   1      -2.797  -0.889   0.023  0.00  0.00    -0.385 N 
HETATM   13  H   UNK N   1      -3.772  -0.751   0.037  0.00  0.00     0.157 HD
HETATM   14  H   UNK N   1      -2.429  -1.803   0.023  0.00  0.00     0.157 HD
BRANCH  11  15
HETATM   15  N   UNK N   1      -2.541   1.427   0.022  0.00  0.00    -0.385 N 
HETATM   16  H   UNK N   1      -1.938   2.206   0.035  0.00  0.00     0.157 HD
HETATM   17  H   UNK N   1      -3.517   1.561   0.022  0.00  0.00     0.157 HD
ENDBRANCH  11  15
ENDBRANCH   1  11
TORSDOF 2
