MODEL 1
REMARK VINA RESULT:      -5.3      0.000      0.000
REMARK  2 active torsions:
REMARK  status: ('A' for Active; 'I' for Inactive)
REMARK    1  A    between atoms: C_1  and  C_2 
REMARK    2  A    between atoms: C_1  and  N_3 
ROOT
HETATM    1  C   UNK N   1      29.502  17.550   7.806  0.00  0.00     0.049 A 
HETATM    2  S   UNK N   1      30.709  17.851   8.923  0.00  0.00    -0.086 SA
HETATM    3  C   UNK N   1      32.015  17.642   7.930  0.00  0.00     0.017 A 
HETATM    4  C   UNK N   1      31.533  17.320   6.662  0.00  0.00    -0.001 A 
HETATM    5  C   UNK N   1      30.116  17.264   6.579  0.00  0.00     0.036 A 
HETATM    6  C   UNK N   1      33.374  17.749   8.204  0.00  0.00     0.020 A 
HETATM    7  C   UNK N   1      34.274  17.520   7.151  0.00  0.00     0.003 A 
HETATM    8  C   UNK N   1      33.801  17.191   5.862  0.00  0.00     0.019 A 
HETATM    9  C   UNK N   1      32.422  17.089   5.612  0.00  0.00     0.018 A 
HETATM   10  I   UNK N   1      31.728  16.599   3.677  0.00  0.00    -0.044 I 
ENDROOT
BRANCH   1  11
HETATM   11  C   UNK N   1      28.052  17.587   8.030  0.00  0.00     0.109 C 
HETATM   12  N   UNK N   1      27.270  16.837   7.346  0.00  0.00    -0.385 N 
HETATM   13  H   UNK N   1      26.298  16.863   7.504  0.00  0.00     0.157 HD
HETATM   14  H   UNK N   1      27.641  16.234   6.660  0.00  0.00     0.157 HD
BRANCH  11  15
HETATM   15  N   UNK N   1      27.515  18.436   9.023  0.00  0.00    -0.385 N 
HETATM   16  H   UNK N   1      26.724  18.988   8.825  0.00  0.00     0.157 HD
HETATM   17  H   UNK N   1      27.932  18.476   9.915  0.00  0.00     0.157 HD
ENDBRANCH  11  15
ENDBRANCH   1  11
TORSDOF 2
ENDMDL
MODEL 2
REMARK VINA RESULT:      -5.1      2.037      2.570
REMARK  2 active torsions:
REMARK  status: ('A' for Active; 'I' for Inactive)
REMARK    1  A    between atoms: C_1  and  C_2 
REMARK    2  A    between atoms: C_1  and  N_3 
ROOT
HETATM    1  C   UNK N   1      29.131  17.422   7.187  0.00  0.00     0.049 A 
HETATM    2  S   UNK N   1      29.132  17.453   5.517  0.00  0.00    -0.086 SA
HETATM    3  C   UNK N   1      30.768  17.399   5.274  0.00  0.00     0.017 A 
HETATM    4  C   UNK N   1      31.377  17.357   6.527  0.00  0.00    -0.001 A 
HETATM    5  C   UNK N   1      30.465  17.369   7.616  0.00  0.00     0.036 A 
HETATM    6  C   UNK N   1      31.497  17.389   4.091  0.00  0.00     0.020 A 
HETATM    7  C   UNK N   1      32.898  17.333   4.186  0.00  0.00     0.003 A 
HETATM    8  C   UNK N   1      33.529  17.290   5.447  0.00  0.00     0.019 A 
HETATM    9  C   UNK N   1      32.768  17.303   6.629  0.00  0.00     0.018 A 
HETATM   10  I   UNK N   1      33.727  17.237   8.511  0.00  0.00    -0.044 I 
ENDROOT
BRANCH   1  11
HETATM   11  C   UNK N   1      27.964  17.429   8.078  0.00  0.00     0.109 C 
HETATM   12  N   UNK N   1      27.057  16.530   7.967  0.00  0.00    -0.385 N 
HETATM   13  H   UNK N   1      26.279  16.538   8.570  0.00  0.00     0.157 HD
HETATM   14  H   UNK N   1      27.138  15.831   7.277  0.00  0.00     0.157 HD
BRANCH  11  15
HETATM   15  N   UNK N   1      27.850  18.417   9.080  0.00  0.00    -0.385 N 
HETATM   16  H   UNK N   1      28.660  18.824   9.466  0.00  0.00     0.157 HD
HETATM   17  H   UNK N   1      26.960  18.701   9.394  0.00  0.00     0.157 HD
ENDBRANCH  11  15
ENDBRANCH   1  11
TORSDOF 2
ENDMDL
MODEL 3
REMARK VINA RESULT:      -5.0      3.504      4.478
REMARK  2 active torsions:
REMARK  status: ('A' for Active; 'I' for Inactive)
REMARK    1  A    between atoms: C_1  and  C_2 
REMARK    2  A    between atoms: C_1  and  N_3 
ROOT
HETATM    1  C   UNK N   1      33.397  16.514   8.498  0.00  0.00     0.049 A 
HETATM    2  S   UNK N   1      34.321  16.654   7.112  0.00  0.00    -0.086 SA
HETATM    3  C   UNK N   1      33.107  17.012   6.047  0.00  0.00     0.017 A 
HETATM    4  C   UNK N   1      31.911  17.031   6.764  0.00  0.00    -0.001 A 
HETATM    5  C   UNK N   1      32.061  16.751   8.148  0.00  0.00     0.036 A 
HETATM    6  C   UNK N   1      33.161  17.268   4.682  0.00  0.00     0.020 A 
HETATM    7  C   UNK N   1      31.954  17.555   4.022  0.00  0.00     0.003 A 
HETATM    8  C   UNK N   1      30.736  17.577   4.733  0.00  0.00     0.019 A 
HETATM    9  C   UNK N   1      30.709  17.313   6.113  0.00  0.00     0.018 A 
HETATM   10  I   UNK N   1      28.877  17.352   7.166  0.00  0.00    -0.044 I 
ENDROOT
BRANCH   1  11
HETATM   11  C   UNK N   1      33.868  16.215   9.856  0.00  0.00     0.109 C 
HETATM   12  N   UNK N   1      34.772  16.940  10.404  0.00  0.00    -0.385 N 
HETATM   13  H   UNK N   1      35.081  16.737  11.317  0.00  0.00     0.157 HD
HETATM   14  H   UNK N   1      35.160  17.700   9.911  0.00  0.00     0.157 HD
BRANCH  11  15
HETATM   15  N   UNK N   1      33.305  15.138  10.575  0.00  0.00    -0.385 N 
HETATM   16  H   UNK N   1      32.329  15.005  10.580  0.00  0.00     0.157 HD
HETATM   17  H   UNK N   1      33.888  14.519  11.072  0.00  0.00     0.157 HD
ENDBRANCH  11  15
ENDBRANCH   1  11
TORSDOF 2
ENDMDL
MODEL 4
REMARK VINA RESULT:      -4.9      7.996      9.542
REMARK  2 active torsions:
REMARK  status: ('A' for Active; 'I' for Inactive)
REMARK    1  A    between atoms: C_1  and  C_2 
REMARK    2  A    between atoms: C_1  and  N_3 
ROOT
HETATM    1  C   UNK N   1      20.975  18.560   3.221  0.00  0.00     0.049 A 
HETATM    2  S   UNK N   1      21.567  20.044   2.729  0.00  0.00    -0.086 SA
HETATM    3  C   UNK N   1      23.141  19.844   3.198  0.00  0.00     0.017 A 
HETATM    4  C   UNK N   1      23.252  18.578   3.770  0.00  0.00    -0.001 A 
HETATM    5  C   UNK N   1      22.037  17.843   3.790  0.00  0.00     0.036 A 
HETATM    6  C   UNK N   1      24.225  20.707   3.084  0.00  0.00     0.020 A 
HETATM    7  C   UNK N   1      25.467  20.265   3.570  0.00  0.00     0.003 A 
HETATM    8  C   UNK N   1      25.595  18.986   4.153  0.00  0.00     0.019 A 
HETATM    9  C   UNK N   1      24.482  18.134   4.256  0.00  0.00     0.018 A 
HETATM   10  I   UNK N   1      24.688  16.220   5.129  0.00  0.00    -0.044 I 
ENDROOT
BRANCH   1  11
HETATM   11  C   UNK N   1      19.602  18.059   3.082  0.00  0.00     0.109 C 
HETATM   12  N   UNK N   1      18.748  18.695   2.369  0.00  0.00    -0.385 N 
HETATM   13  H   UNK N   1      17.830  18.350   2.277  0.00  0.00     0.157 HD
HETATM   14  H   UNK N   1      19.009  19.528   1.914  0.00  0.00     0.157 HD
BRANCH  11  15
HETATM   15  N   UNK N   1      19.226  16.855   3.717  0.00  0.00    -0.385 N 
HETATM   16  H   UNK N   1      19.027  16.055   3.179  0.00  0.00     0.157 HD
HETATM   17  H   UNK N   1      19.162  16.815   4.700  0.00  0.00     0.157 HD
ENDBRANCH  11  15
ENDBRANCH   1  11
TORSDOF 2
ENDMDL
MODEL 5
REMARK VINA RESULT:      -4.9     12.805     13.761
REMARK  2 active torsions:
REMARK  status: ('A' for Active; 'I' for Inactive)
REMARK    1  A    between atoms: C_1  and  C_2 
REMARK    2  A    between atoms: C_1  and  N_3 
ROOT
HETATM    1  C   UNK N   1      43.109  22.044   3.336  0.00  0.00     0.049 A 
HETATM    2  S   UNK N   1      42.580  20.490   3.026  0.00  0.00    -0.086 SA
HETATM    3  C   UNK N   1      41.558  20.827   1.770  0.00  0.00     0.017 A 
HETATM    4  C   UNK N   1      41.600  22.203   1.551  0.00  0.00    -0.001 A 
HETATM    5  C   UNK N   1      42.471  22.902   2.429  0.00  0.00     0.036 A 
HETATM    6  C   UNK N   1      40.767  19.976   1.006  0.00  0.00     0.020 A 
HETATM    7  C   UNK N   1      39.991  20.546  -0.017  0.00  0.00     0.003 A 
HETATM    8  C   UNK N   1      40.022  21.938  -0.249  0.00  0.00     0.019 A 
HETATM    9  C   UNK N   1      40.830  22.776   0.538  0.00  0.00     0.018 A 
HETATM   10  I   UNK N   1      40.869  24.858   0.177  0.00  0.00    -0.044 I 
ENDROOT
BRANCH   1  11
HETATM   11  C   UNK N   1      44.078  22.469   4.353  0.00  0.00     0.109 C 
HETATM   12  N   UNK N   1      43.682  23.057   5.421  0.00  0.00    -0.385 N 
HETATM   13  H   UNK N   1      44.337  23.335   6.102  0.00  0.00     0.157 HD
HETATM   14  H   UNK N   1      42.722  23.230   5.562  0.00  0.00     0.157 HD
BRANCH  11  15
HETATM   15  N   UNK N   1      45.453  22.208   4.167  0.00  0.00    -0.385 N 
HETATM   16  H   UNK N   1      45.920  21.578   4.763  0.00  0.00     0.157 HD
HETATM   17  H   UNK N   1      45.946  22.656   3.442  0.00  0.00     0.157 HD
ENDBRANCH  11  15
ENDBRANCH   1  11
TORSDOF 2
ENDMDL
MODEL 6
REMARK VINA RESULT:      -4.9     10.929     12.010
REMARK  2 active torsions:
REMARK  status: ('A' for Active; 'I' for Inactive)
REMARK    1  A    between atoms: C_1  and  C_2 
REMARK    2  A    between atoms: C_1  and  N_3 
ROOT
HETATM    1  C   UNK N   1      36.799  12.421  13.820  0.00  0.00     0.049 A 
HETATM    2  S   UNK N   1      36.342  13.815  14.621  0.00  0.00    -0.086 SA
HETATM    3  C   UNK N   1      35.906  13.134  16.063  0.00  0.00     0.017 A 
HETATM    4  C   UNK N   1      36.107  11.759  15.957  0.00  0.00    -0.001 A 
HETATM    5  C   UNK N   1      36.611  11.343  14.696  0.00  0.00     0.036 A 
HETATM    6  C   UNK N   1      35.423  13.728  17.224  0.00  0.00     0.020 A 
HETATM    7  C   UNK N   1      35.136  12.893  18.316  0.00  0.00     0.003 A 
HETATM    8  C   UNK N   1      35.334  11.499  18.224  0.00  0.00     0.019 A 
HETATM    9  C   UNK N   1      35.822  10.923  17.038  0.00  0.00     0.018 A 
HETATM   10  I   UNK N   1      36.116   8.834  16.914  0.00  0.00    -0.044 I 
ENDROOT
BRANCH   1  11
HETATM   11  C   UNK N   1      37.323  12.310  12.453  0.00  0.00     0.109 C 
HETATM   12  N   UNK N   1      37.553  11.159  11.938  0.00  0.00    -0.385 N 
HETATM   13  H   UNK N   1      37.900  11.091  11.019  0.00  0.00     0.157 HD
HETATM   14  H   UNK N   1      37.384  10.342  12.462  0.00  0.00     0.157 HD
BRANCH  11  15
HETATM   15  N   UNK N   1      37.551  13.476  11.691  0.00  0.00    -0.385 N 
HETATM   16  H   UNK N   1      37.216  14.346  12.008  0.00  0.00     0.157 HD
HETATM   17  H   UNK N   1      38.046  13.420  10.840  0.00  0.00     0.157 HD
ENDBRANCH  11  15
ENDBRANCH   1  11
TORSDOF 2
ENDMDL
MODEL 7
REMARK VINA RESULT:      -4.7      4.208      5.100
REMARK  2 active torsions:
REMARK  status: ('A' for Active; 'I' for Inactive)
REMARK    1  A    between atoms: C_1  and  C_2 
REMARK    2  A    between atoms: C_1  and  N_3 
ROOT
HETATM    1  C   UNK N   1      34.410  16.442   7.708  0.00  0.00     0.049 A 
HETATM    2  S   UNK N   1      33.515  17.693   7.057  0.00  0.00    -0.086 SA
HETATM    3  C   UNK N   1      33.376  17.114   5.513  0.00  0.00     0.017 A 
HETATM    4  C   UNK N   1      34.046  15.893   5.460  0.00  0.00    -0.001 A 
HETATM    5  C   UNK N   1      34.635  15.502   6.692  0.00  0.00     0.036 A 
HETATM    6  C   UNK N   1      32.732  17.659   4.408  0.00  0.00     0.020 A 
HETATM    7  C   UNK N   1      32.772  16.934   3.205  0.00  0.00     0.003 A 
HETATM    8  C   UNK N   1      33.447  15.696   3.136  0.00  0.00     0.019 A 
HETATM    9  C   UNK N   1      34.091  15.169   4.269  0.00  0.00     0.018 A 
HETATM   10  I   UNK N   1      35.096  13.314   4.151  0.00  0.00    -0.044 I 
ENDROOT
BRANCH   1  11
HETATM   11  C   UNK N   1      34.879  16.308   9.093  0.00  0.00     0.109 C 
HETATM   12  N   UNK N   1      34.538  17.169   9.980  0.00  0.00    -0.385 N 
HETATM   13  H   UNK N   1      34.852  17.071  10.908  0.00  0.00     0.157 HD
HETATM   14  H   UNK N   1      33.961  17.929   9.733  0.00  0.00     0.157 HD
BRANCH  11  15
HETATM   15  N   UNK N   1      35.691  15.212   9.458  0.00  0.00    -0.385 N 
HETATM   16  H   UNK N   1      35.908  15.054  10.406  0.00  0.00     0.157 HD
HETATM   17  H   UNK N   1      36.040  14.605   8.765  0.00  0.00     0.157 HD
ENDBRANCH  11  15
ENDBRANCH   1  11
TORSDOF 2
ENDMDL
MODEL 8
REMARK VINA RESULT:      -4.7      9.002     10.063
REMARK  2 active torsions:
REMARK  status: ('A' for Active; 'I' for Inactive)
REMARK    1  A    between atoms: C_1  and  C_2 
REMARK    2  A    between atoms: C_1  and  N_3 
ROOT
HETATM    1  C   UNK N   1      21.761  13.084   9.903  0.00  0.00     0.049 A 
HETATM    2  S   UNK N   1      20.625  14.268   9.588  0.00  0.00    -0.086 SA
HETATM    3  C   UNK N   1      21.355  14.962   8.276  0.00  0.00     0.017 A 
HETATM    4  C   UNK N   1      22.543  14.271   8.041  0.00  0.00    -0.001 A 
HETATM    5  C   UNK N   1      22.784  13.208   8.952  0.00  0.00     0.036 A 
HETATM    6  C   UNK N   1      20.946  16.030   7.485  0.00  0.00     0.020 A 
HETATM    7  C   UNK N   1      21.776  16.407   6.416  0.00  0.00     0.003 A 
HETATM    8  C   UNK N   1      22.981  15.717   6.165  0.00  0.00     0.019 A 
HETATM    9  C   UNK N   1      23.371  14.642   6.982  0.00  0.00     0.018 A 
HETATM   10  I   UNK N   1      25.178  13.616   6.594  0.00  0.00    -0.044 I 
ENDROOT
BRANCH   1  11
HETATM   11  C   UNK N   1      21.720  12.069  10.963  0.00  0.00     0.109 C 
HETATM   12  N   UNK N   1      22.732  11.312  11.177  0.00  0.00    -0.385 N 
HETATM   13  H   UNK N   1      22.700  10.637  11.893  0.00  0.00     0.157 HD
HETATM   14  H   UNK N   1      23.543  11.406  10.625  0.00  0.00     0.157 HD
BRANCH  11  15
HETATM   15  N   UNK N   1      20.568  11.940  11.769  0.00  0.00    -0.385 N 
HETATM   16  H   UNK N   1      20.635  12.050  12.746  0.00  0.00     0.157 HD
HETATM   17  H   UNK N   1      19.696  11.741  11.355  0.00  0.00     0.157 HD
ENDBRANCH  11  15
ENDBRANCH   1  11
TORSDOF 2
ENDMDL
MODEL 9
REMARK VINA RESULT:      -4.6     13.463     14.713
REMARK  2 active torsions:
REMARK  status: ('A' for Active; 'I' for Inactive)
REMARK    1  A    between atoms: C_1  and  C_2 
REMARK    2  A    between atoms: C_1  and  N_3 
ROOT
HETATM    1  C   UNK N   1      44.122  21.697   3.136  0.00  0.00     0.049 A 
HETATM    2  S   UNK N   1      42.674  20.947   2.768  0.00  0.00    -0.086 SA
HETATM    3  C   UNK N   1      43.198  19.379   2.798  0.00  0.00     0.017 A 
HETATM    4  C   UNK N   1      44.558  19.396   3.103  0.00  0.00    -0.001 A 
HETATM    5  C   UNK N   1      45.092  20.697   3.296  0.00  0.00     0.036 A 
HETATM    6  C   UNK N   1      42.498  18.198   2.582  0.00  0.00     0.020 A 
HETATM    7  C   UNK N   1      43.208  16.989   2.678  0.00  0.00     0.003 A 
HETATM    8  C   UNK N   1      44.586  16.990   2.985  0.00  0.00     0.019 A 
HETATM    9  C   UNK N   1      45.269  18.199   3.198  0.00  0.00     0.018 A 
HETATM   10  I   UNK N   1      47.332  18.185   3.660  0.00  0.00    -0.044 I 
ENDROOT
BRANCH   1  11
HETATM   11  C   UNK N   1      44.366  23.136   3.290  0.00  0.00     0.109 C 
HETATM   12  N   UNK N   1      45.336  23.699   2.670  0.00  0.00    -0.385 N 
HETATM   13  H   UNK N   1      45.492  24.666   2.774  0.00  0.00     0.157 HD
HETATM   14  H   UNK N   1      45.927  23.165   2.090  0.00  0.00     0.157 HD
BRANCH  11  15
HETATM   15  N   UNK N   1      43.513  23.911   4.106  0.00  0.00    -0.385 N 
HETATM   16  H   UNK N   1      42.536  23.855   3.991  0.00  0.00     0.157 HD
HETATM   17  H   UNK N   1      43.894  24.509   4.790  0.00  0.00     0.157 HD
ENDBRANCH  11  15
ENDBRANCH   1  11
TORSDOF 2
ENDMDL
