MODEL 1
REMARK VINA RESULT:      -5.5      0.000      0.000
REMARK  5 active torsions:
REMARK  status: ('A' for Active; 'I' for Inactive)
REMARK    1  A    between atoms: O_1  and  C_7 
REMARK    2  A    between atoms: O_1  and  C_14 
REMARK    3  A    between atoms: N_13  and  C_18 
REMARK    4  A    between atoms: C_14  and  C_17 
REMARK    5  A    between atoms: C_17  and  C_18 
ROOT
HETATM    1  S   UNK N   1      35.378   9.583  16.559  0.00  0.00    -0.047 SA
HETATM    2  C   UNK N   1      35.408  11.147  18.730  0.00  0.00     0.020 A 
HETATM    3  C   UNK N   1      35.144  13.548  18.609  0.00  0.00     0.001 A 
HETATM    4  C   UNK N   1      35.060  11.004  14.366  0.00  0.00     0.100 A 
HETATM    5  C   UNK N   1      35.093  12.231  16.558  0.00  0.00     0.015 A 
HETATM    6  C   UNK N   1      34.992  12.201  15.133  0.00  0.00     0.084 A 
HETATM    7  C   UNK N   1      35.285  11.067  17.341  0.00  0.00     0.021 A 
HETATM    8  C   UNK N   1      35.023  13.469  17.219  0.00  0.00     0.015 A 
HETATM    9  C   UNK N   1      35.226   9.730  14.897  0.00  0.00     0.216 A 
HETATM   10  C   UNK N   1      35.339  12.389  19.363  0.00  0.00     0.001 A 
HETATM   11  O   UNK N   1      35.266   8.750  14.174  0.00  0.00    -0.280 OA
ENDROOT
BRANCH   6  12
HETATM   12  O   UNK N   1      34.846  13.388  14.488  0.00  0.00    -0.350 OA
BRANCH  12  13
HETATM   13  C   UNK N   1      35.773  13.911  13.611  0.00  0.00     0.177 C 
BRANCH  13  14
HETATM   14  C   UNK N   1      35.217  14.038  12.206  0.00  0.00     0.057 C 
BRANCH  14  15
HETATM   15  C   UNK N   1      36.357  14.408  11.268  0.00  0.00     0.273 C 
BRANCH  15  16
HETATM   16  N   UNK N   1      35.900  15.311  10.218  0.00  0.00     0.080 N 
HETATM   17  C   UNK N   1      35.411  16.509  10.876  0.00  0.00     0.309 C 
HETATM   18  C   UNK N   1      34.757  14.716   9.542  0.00  0.00     0.309 C 
ENDBRANCH  15  16
ENDBRANCH  14  15
ENDBRANCH  13  14
ENDBRANCH  12  13
ENDBRANCH   6  12
TORSDOF 5
ENDMDL
MODEL 2
REMARK VINA RESULT:      -5.4      6.463      9.929
REMARK  5 active torsions:
REMARK  status: ('A' for Active; 'I' for Inactive)
REMARK    1  A    between atoms: O_1  and  C_7 
REMARK    2  A    between atoms: O_1  and  C_14 
REMARK    3  A    between atoms: N_13  and  C_18 
REMARK    4  A    between atoms: C_14  and  C_17 
REMARK    5  A    between atoms: C_17  and  C_18 
ROOT
HETATM    1  S   UNK N   1      30.099  16.401   5.745  0.00  0.00    -0.047 SA
HETATM    2  C   UNK N   1      28.471  17.315   7.662  0.00  0.00     0.020 A 
HETATM    3  C   UNK N   1      29.284  18.510   9.601  0.00  0.00     0.001 A 
HETATM    4  C   UNK N   1      32.614  16.955   6.288  0.00  0.00     0.100 A 
HETATM    5  C   UNK N   1      30.869  17.732   7.919  0.00  0.00     0.015 A 
HETATM    6  C   UNK N   1      32.226  17.610   7.491  0.00  0.00     0.084 A 
HETATM    7  C   UNK N   1      29.781  17.197   7.190  0.00  0.00     0.021 A 
HETATM    8  C   UNK N   1      30.595  18.391   9.130  0.00  0.00     0.015 A 
HETATM    9  C   UNK N   1      31.736  16.363   5.388  0.00  0.00     0.216 A 
HETATM   10  C   UNK N   1      28.224  17.970   8.869  0.00  0.00     0.001 A 
HETATM   11  O   UNK N   1      32.144  15.827   4.374  0.00  0.00    -0.280 OA
ENDROOT
BRANCH   6  12
HETATM   12  O   UNK N   1      33.189  18.133   8.295  0.00  0.00    -0.350 OA
BRANCH  12  13
HETATM   13  C   UNK N   1      34.417  17.544   8.516  0.00  0.00     0.177 C 
BRANCH  13  14
HETATM   14  C   UNK N   1      34.333  16.422   9.533  0.00  0.00     0.057 C 
BRANCH  14  15
HETATM   15  C   UNK N   1      35.343  16.698  10.638  0.00  0.00     0.273 C 
BRANCH  15  16
HETATM   16  N   UNK N   1      35.955  15.461  11.109  0.00  0.00     0.080 N 
HETATM   17  C   UNK N   1      36.522  14.802   9.948  0.00  0.00     0.309 C 
HETATM   18  C   UNK N   1      34.915  14.579  11.617  0.00  0.00     0.309 C 
ENDBRANCH  15  16
ENDBRANCH  14  15
ENDBRANCH  13  14
ENDBRANCH  12  13
ENDBRANCH   6  12
TORSDOF 5
ENDMDL
MODEL 3
REMARK VINA RESULT:      -5.4     20.867     23.601
REMARK  5 active torsions:
REMARK  status: ('A' for Active; 'I' for Inactive)
REMARK    1  A    between atoms: O_1  and  C_7 
REMARK    2  A    between atoms: O_1  and  C_14 
REMARK    3  A    between atoms: N_13  and  C_18 
REMARK    4  A    between atoms: C_14  and  C_17 
REMARK    5  A    between atoms: C_17  and  C_18 
ROOT
HETATM    1  S   UNK N   1      31.601  20.610  -4.315  0.00  0.00    -0.047 SA
HETATM    2  C   UNK N   1      30.360  20.131  -6.636  0.00  0.00     0.020 A 
HETATM    3  C   UNK N   1      28.580  21.536  -7.476  0.00  0.00     0.001 A 
HETATM    4  C   UNK N   1      30.607  22.736  -3.124  0.00  0.00     0.100 A 
HETATM    5  C   UNK N   1      29.636  22.081  -5.347  0.00  0.00     0.015 A 
HETATM    6  C   UNK N   1      29.695  22.931  -4.201  0.00  0.00     0.084 A 
HETATM    7  C   UNK N   1      30.473  20.952  -5.512  0.00  0.00     0.021 A 
HETATM    8  C   UNK N   1      28.691  22.357  -6.350  0.00  0.00     0.015 A 
HETATM    9  C   UNK N   1      31.544  21.712  -3.054  0.00  0.00     0.216 A 
HETATM   10  C   UNK N   1      29.412  20.423  -7.617  0.00  0.00     0.001 A 
HETATM   11  O   UNK N   1      32.297  21.616  -2.102  0.00  0.00    -0.280 OA
ENDROOT
BRANCH   6  12
HETATM   12  O   UNK N   1      28.815  23.964  -4.137  0.00  0.00    -0.350 OA
BRANCH  12  13
HETATM   13  C   UNK N   1      27.791  24.052  -3.217  0.00  0.00     0.177 C 
BRANCH  13  14
HETATM   14  C   UNK N   1      26.473  24.425  -3.869  0.00  0.00     0.057 C 
BRANCH  14  15
HETATM   15  C   UNK N   1      26.719  25.580  -4.829  0.00  0.00     0.273 C 
BRANCH  15  16
HETATM   16  N   UNK N   1      25.517  26.386  -4.998  0.00  0.00     0.080 N 
HETATM   17  C   UNK N   1      25.484  26.811  -6.385  0.00  0.00     0.309 C 
HETATM   18  C   UNK N   1      25.639  27.596  -4.198  0.00  0.00     0.309 C 
ENDBRANCH  15  16
ENDBRANCH  14  15
ENDBRANCH  13  14
ENDBRANCH  12  13
ENDBRANCH   6  12
TORSDOF 5
ENDMDL
MODEL 4
REMARK VINA RESULT:      -5.3      9.592     12.528
REMARK  5 active torsions:
REMARK  status: ('A' for Active; 'I' for Inactive)
REMARK    1  A    between atoms: O_1  and  C_7 
REMARK    2  A    between atoms: O_1  and  C_14 
REMARK    3  A    between atoms: N_13  and  C_18 
REMARK    4  A    between atoms: C_14  and  C_17 
REMARK    5  A    between atoms: C_17  and  C_18 
ROOT
HETATM    1  S   UNK N   1      28.419  18.807   8.332  0.00  0.00    -0.047 SA
HETATM    2  C   UNK N   1      27.048  20.416   6.692  0.00  0.00     0.020 A 
HETATM    3  C   UNK N   1      27.146  20.211   4.284  0.00  0.00     0.001 A 
HETATM    4  C   UNK N   1      29.852  17.063   6.978  0.00  0.00     0.100 A 
HETATM    5  C   UNK N   1      28.440  18.680   5.673  0.00  0.00     0.015 A 
HETATM    6  C   UNK N   1      29.366  17.595   5.750  0.00  0.00     0.084 A 
HETATM    7  C   UNK N   1      27.929  19.339   6.816  0.00  0.00     0.021 A 
HETATM    8  C   UNK N   1      28.029  19.135   4.408  0.00  0.00     0.015 A 
HETATM    9  C   UNK N   1      29.491  17.523   8.240  0.00  0.00     0.216 A 
HETATM   10  C   UNK N   1      26.658  20.852   5.425  0.00  0.00     0.001 A 
HETATM   11  O   UNK N   1      29.945  17.010   9.246  0.00  0.00    -0.280 OA
ENDROOT
BRANCH   6  12
HETATM   12  O   UNK N   1      29.814  17.066   4.581  0.00  0.00    -0.350 OA
BRANCH  12  13
HETATM   13  C   UNK N   1      31.074  16.534   4.406  0.00  0.00     0.177 C 
BRANCH  13  14
HETATM   14  C   UNK N   1      32.107  17.606   4.118  0.00  0.00     0.057 C 
BRANCH  14  15
HETATM   15  C   UNK N   1      33.208  17.508   5.165  0.00  0.00     0.273 C 
BRANCH  15  16
HETATM   16  N   UNK N   1      33.261  16.171   5.745  0.00  0.00     0.080 N 
HETATM   17  C   UNK N   1      33.469  16.338   7.172  0.00  0.00     0.309 C 
HETATM   18  C   UNK N   1      34.435  15.477   5.236  0.00  0.00     0.309 C 
ENDBRANCH  15  16
ENDBRANCH  14  15
ENDBRANCH  13  14
ENDBRANCH  12  13
ENDBRANCH   6  12
TORSDOF 5
ENDMDL
MODEL 5
REMARK VINA RESULT:      -5.3     10.058     11.648
REMARK  5 active torsions:
REMARK  status: ('A' for Active; 'I' for Inactive)
REMARK    1  A    between atoms: O_1  and  C_7 
REMARK    2  A    between atoms: O_1  and  C_14 
REMARK    3  A    between atoms: N_13  and  C_18 
REMARK    4  A    between atoms: C_14  and  C_17 
REMARK    5  A    between atoms: C_17  and  C_18 
ROOT
HETATM    1  S   UNK N   1      32.629  18.144   8.270  0.00  0.00    -0.047 SA
HETATM    2  C   UNK N   1      30.205  18.291   9.392  0.00  0.00     0.020 A 
HETATM    3  C   UNK N   1      28.212  17.460   8.302  0.00  0.00     0.001 A 
HETATM    4  C   UNK N   1      32.510  17.033   5.887  0.00  0.00     0.100 A 
HETATM    5  C   UNK N   1      30.367  17.264   7.177  0.00  0.00     0.015 A 
HETATM    6  C   UNK N   1      31.103  16.861   6.021  0.00  0.00     0.084 A 
HETATM    7  C   UNK N   1      30.969  17.887   8.296  0.00  0.00     0.021 A 
HETATM    8  C   UNK N   1      28.976  17.057   7.203  0.00  0.00     0.015 A 
HETATM    9  C   UNK N   1      33.335  17.601   6.851  0.00  0.00     0.216 A 
HETATM   10  C   UNK N   1      28.826  18.079   9.394  0.00  0.00     0.001 A 
HETATM   11  O   UNK N   1      34.534  17.706   6.667  0.00  0.00    -0.280 OA
ENDROOT
BRANCH   6  12
HETATM   12  O   UNK N   1      30.408  16.307   4.994  0.00  0.00    -0.350 OA
BRANCH  12  13
HETATM   13  C   UNK N   1      30.871  16.233   3.697  0.00  0.00     0.177 C 
BRANCH  13  14
HETATM   14  C   UNK N   1      29.748  16.351   2.685  0.00  0.00     0.057 C 
BRANCH  14  15
HETATM   15  C   UNK N   1      28.476  16.750   3.420  0.00  0.00     0.273 C 
BRANCH  15  16
HETATM   16  N   UNK N   1      27.351  15.918   3.011  0.00  0.00     0.080 N 
HETATM   17  C   UNK N   1      26.892  15.216   4.195  0.00  0.00     0.309 C 
HETATM   18  C   UNK N   1      27.824  14.899   2.085  0.00  0.00     0.309 C 
ENDBRANCH  15  16
ENDBRANCH  14  15
ENDBRANCH  13  14
ENDBRANCH  12  13
ENDBRANCH   6  12
TORSDOF 5
ENDMDL
MODEL 6
REMARK VINA RESULT:      -5.2     10.228     12.635
REMARK  5 active torsions:
REMARK  status: ('A' for Active; 'I' for Inactive)
REMARK    1  A    between atoms: O_1  and  C_7 
REMARK    2  A    between atoms: O_1  and  C_14 
REMARK    3  A    between atoms: N_13  and  C_18 
REMARK    4  A    between atoms: C_14  and  C_17 
REMARK    5  A    between atoms: C_17  and  C_18 
ROOT
HETATM    1  S   UNK N   1      30.218  17.682   9.062  0.00  0.00    -0.047 SA
HETATM    2  C   UNK N   1      32.592  17.685   7.829  0.00  0.00     0.020 A 
HETATM    3  C   UNK N   1      32.825  17.314   5.450  0.00  0.00     0.001 A 
HETATM    4  C   UNK N   1      28.263  17.203   7.365  0.00  0.00     0.100 A 
HETATM    5  C   UNK N   1      30.604  17.293   6.457  0.00  0.00     0.015 A 
HETATM    6  C   UNK N   1      29.195  17.119   6.292  0.00  0.00     0.084 A 
HETATM    7  C   UNK N   1      31.206  17.552   7.710  0.00  0.00     0.021 A 
HETATM    8  C   UNK N   1      31.439  17.179   5.332  0.00  0.00     0.015 A 
HETATM    9  C   UNK N   1      28.598  17.466   8.688  0.00  0.00     0.216 A 
HETATM   10  C   UNK N   1      33.401  17.565   6.698  0.00  0.00     0.001 A 
HETATM   11  O   UNK N   1      27.741  17.531   9.551  0.00  0.00    -0.280 OA
ENDROOT
BRANCH   6  12
HETATM   12  O   UNK N   1      28.738  16.837   5.044  0.00  0.00    -0.350 OA
BRANCH  12  13
HETATM   13  C   UNK N   1      27.563  17.335   4.520  0.00  0.00     0.177 C 
BRANCH  13  14
HETATM   14  C   UNK N   1      27.695  18.790   4.114  0.00  0.00     0.057 C 
BRANCH  14  15
HETATM   15  C   UNK N   1      26.388  19.501   4.436  0.00  0.00     0.273 C 
BRANCH  15  16
HETATM   16  N   UNK N   1      25.375  19.219   3.426  0.00  0.00     0.080 N 
HETATM   17  C   UNK N   1      25.221  20.424   2.634  0.00  0.00     0.309 C 
HETATM   18  C   UNK N   1      24.096  18.993   4.085  0.00  0.00     0.309 C 
ENDBRANCH  15  16
ENDBRANCH  14  15
ENDBRANCH  13  14
ENDBRANCH  12  13
ENDBRANCH   6  12
TORSDOF 5
ENDMDL
MODEL 7
REMARK VINA RESULT:      -5.1      6.213     10.608
REMARK  5 active torsions:
REMARK  status: ('A' for Active; 'I' for Inactive)
REMARK    1  A    between atoms: O_1  and  C_7 
REMARK    2  A    between atoms: O_1  and  C_14 
REMARK    3  A    between atoms: N_13  and  C_18 
REMARK    4  A    between atoms: C_14  and  C_17 
REMARK    5  A    between atoms: C_17  and  C_18 
ROOT
HETATM    1  S   UNK N   1      29.088  17.535   6.499  0.00  0.00    -0.047 SA
HETATM    2  C   UNK N   1      30.740  17.524   4.394  0.00  0.00     0.020 A 
HETATM    3  C   UNK N   1      33.134  17.258   4.617  0.00  0.00     0.001 A 
HETATM    4  C   UNK N   1      30.418  17.256   8.754  0.00  0.00     0.100 A 
HETATM    5  C   UNK N   1      31.733  17.247   6.614  0.00  0.00     0.015 A 
HETATM    6  C   UNK N   1      31.645  17.173   8.037  0.00  0.00     0.084 A 
HETATM    7  C   UNK N   1      30.603  17.426   5.781  0.00  0.00     0.021 A 
HETATM    8  C   UNK N   1      32.997  17.163   6.005  0.00  0.00     0.015 A 
HETATM    9  C   UNK N   1      29.167  17.415   8.168  0.00  0.00     0.216 A 
HETATM   10  C   UNK N   1      32.006  17.441   3.813  0.00  0.00     0.001 A 
HETATM   11  O   UNK N   1      28.159  17.470   8.849  0.00  0.00    -0.280 OA
ENDROOT
BRANCH   6  12
HETATM   12  O   UNK N   1      32.805  17.037   8.733  0.00  0.00    -0.350 OA
BRANCH  12  13
HETATM   13  C   UNK N   1      33.238  15.851   9.289  0.00  0.00     0.177 C 
BRANCH  13  14
HETATM   14  C   UNK N   1      34.750  15.738   9.278  0.00  0.00     0.057 C 
BRANCH  14  15
HETATM   15  C   UNK N   1      35.301  16.519  10.463  0.00  0.00     0.273 C 
BRANCH  15  16
HETATM   16  N   UNK N   1      36.336  15.760  11.155  0.00  0.00     0.080 N 
HETATM   17  C   UNK N   1      36.896  14.833  10.190  0.00  0.00     0.309 C 
HETATM   18  C   UNK N   1      35.718  14.951  12.195  0.00  0.00     0.309 C 
ENDBRANCH  15  16
ENDBRANCH  14  15
ENDBRANCH  13  14
ENDBRANCH  12  13
ENDBRANCH   6  12
TORSDOF 5
ENDMDL
MODEL 8
REMARK VINA RESULT:      -5.1     17.058     19.498
REMARK  5 active torsions:
REMARK  status: ('A' for Active; 'I' for Inactive)
REMARK    1  A    between atoms: O_1  and  C_7 
REMARK    2  A    between atoms: O_1  and  C_14 
REMARK    3  A    between atoms: N_13  and  C_18 
REMARK    4  A    between atoms: C_14  and  C_17 
REMARK    5  A    between atoms: C_17  and  C_18 
ROOT
HETATM    1  S   UNK N   1      20.100  18.871   2.207  0.00  0.00    -0.047 SA
HETATM    2  C   UNK N   1      20.144  16.499   0.970  0.00  0.00     0.020 A 
HETATM    3  C   UNK N   1      21.134  14.529   1.965  0.00  0.00     0.001 A 
HETATM    4  C   UNK N   1      21.276  18.741   4.558  0.00  0.00     0.100 A 
HETATM    5  C   UNK N   1      21.152  16.633   3.196  0.00  0.00     0.015 A 
HETATM    6  C   UNK N   1      21.540  17.355   4.367  0.00  0.00     0.084 A 
HETATM    7  C   UNK N   1      20.478  17.237   2.108  0.00  0.00     0.021 A 
HETATM    8  C   UNK N   1      21.470  15.268   3.103  0.00  0.00     0.015 A 
HETATM    9  C   UNK N   1      20.613  19.555   3.647  0.00  0.00     0.216 A 
HETATM   10  C   UNK N   1      20.474  15.145   0.899  0.00  0.00     0.001 A 
HETATM   11  O   UNK N   1      20.417  20.733   3.887  0.00  0.00    -0.280 OA
ENDROOT
BRANCH   6  12
HETATM   12  O   UNK N   1      22.216  16.675   5.330  0.00  0.00    -0.350 OA
BRANCH  12  13
HETATM   13  C   UNK N   1      21.900  16.717   6.672  0.00  0.00     0.177 C 
BRANCH  13  14
HETATM   14  C   UNK N   1      20.566  16.059   6.963  0.00  0.00     0.057 C 
BRANCH  14  15
HETATM   15  C   UNK N   1      20.192  16.347   8.410  0.00  0.00     0.273 C 
BRANCH  15  16
HETATM   16  N   UNK N   1      19.100  17.310   8.487  0.00  0.00     0.080 N 
HETATM   17  C   UNK N   1      19.584  18.436   9.263  0.00  0.00     0.309 C 
HETATM   18  C   UNK N   1      18.003  16.727   9.247  0.00  0.00     0.309 C 
ENDBRANCH  15  16
ENDBRANCH  14  15
ENDBRANCH  13  14
ENDBRANCH  12  13
ENDBRANCH   6  12
TORSDOF 5
ENDMDL
MODEL 9
REMARK VINA RESULT:      -5.1     15.870     18.072
REMARK  5 active torsions:
REMARK  status: ('A' for Active; 'I' for Inactive)
REMARK    1  A    between atoms: O_1  and  C_7 
REMARK    2  A    between atoms: O_1  and  C_14 
REMARK    3  A    between atoms: N_13  and  C_18 
REMARK    4  A    between atoms: C_14  and  C_17 
REMARK    5  A    between atoms: C_17  and  C_18 
ROOT
HETATM    1  S   UNK N   1      22.060  20.377   2.645  0.00  0.00    -0.047 SA
HETATM    2  C   UNK N   1      24.721  20.649   2.717  0.00  0.00     0.020 A 
HETATM    3  C   UNK N   1      26.129  19.314   4.160  0.00  0.00     0.001 A 
HETATM    4  C   UNK N   1      21.246  18.532   4.336  0.00  0.00     0.100 A 
HETATM    5  C   UNK N   1      23.715  18.967   4.182  0.00  0.00     0.015 A 
HETATM    6  C   UNK N   1      22.590  18.278   4.730  0.00  0.00     0.084 A 
HETATM    7  C   UNK N   1      23.594  19.981   3.202  0.00  0.00     0.021 A 
HETATM    8  C   UNK N   1      25.002  18.646   4.648  0.00  0.00     0.015 A 
HETATM    9  C   UNK N   1      20.862  19.465   3.380  0.00  0.00     0.216 A 
HETATM   10  C   UNK N   1      25.988  20.316   3.197  0.00  0.00     0.001 A 
HETATM   11  O   UNK N   1      19.689  19.620   3.091  0.00  0.00    -0.280 OA
ENDROOT
BRANCH   6  12
HETATM   12  O   UNK N   1      22.829  17.349   5.692  0.00  0.00    -0.350 OA
BRANCH  12  13
HETATM   13  C   UNK N   1      22.562  16.003   5.551  0.00  0.00     0.177 C 
BRANCH  13  14
HETATM   14  C   UNK N   1      22.553  15.283   6.886  0.00  0.00     0.057 C 
BRANCH  14  15
HETATM   15  C   UNK N   1      21.107  15.100   7.325  0.00  0.00     0.273 C 
BRANCH  15  16
HETATM   16  N   UNK N   1      20.899  15.619   8.672  0.00  0.00     0.080 N 
HETATM   17  C   UNK N   1      20.680  14.474   9.536  0.00  0.00     0.309 C 
HETATM   18  C   UNK N   1      19.669  16.397   8.698  0.00  0.00     0.309 C 
ENDBRANCH  15  16
ENDBRANCH  14  15
ENDBRANCH  13  14
ENDBRANCH  12  13
ENDBRANCH   6  12
TORSDOF 5
ENDMDL
