REMARK  3 active torsions:
REMARK  status: ('A' for Active; 'I' for Inactive)
REMARK    1  A    between atoms: C_2  and  C_3 
REMARK    2  A    between atoms: C_3  and  O_4 
REMARK    3  A    between atoms: C_7  and  C_9 
ROOT
HETATM    1  O   UNK N   1       2.679  -2.136   0.000  0.00  0.00    -0.303 OA
HETATM    2  C   UNK N   1       2.257  -3.369   0.000  0.00  0.00     0.149 A 
HETATM    3  C   UNK N   1       0.874  -3.398   0.000  0.00  0.00     0.047 A 
HETATM    4  C   UNK N   1       0.478  -2.068   0.000  0.00  0.00     0.041 A 
HETATM    5  C   UNK N   1       1.653  -1.328   0.000  0.00  0.00     0.088 A 
ENDROOT
BRANCH   5   6
HETATM    6  C   UNK N   1       1.768   0.148   0.000  0.00  0.00     0.019 A 
HETATM    7  C   UNK N   1       0.599   0.925  -0.000  0.00  0.00     0.016 A 
HETATM    8  C   UNK N   1       0.671   2.320  -0.000  0.00  0.00     0.001 A 
HETATM    9  C   UNK N   1       1.913   2.956  -0.000  0.00  0.00     0.002 A 
HETATM   10  C   UNK N   1       3.084   2.199  -0.000  0.00  0.00     0.025 A 
HETATM   11  C   UNK N   1       3.028   0.803  -0.000  0.00  0.00     0.047 A 
HETATM   12 Cl   UNK N   1       4.561  -0.064   0.000  0.00  0.00    -0.083 Cl
ENDBRANCH   5   6
BRANCH   2  13
HETATM   13  C   UNK N   1       3.163  -4.523  -0.000  0.00  0.00     0.201 C 
HETATM   14  O   UNK N   1       4.371  -4.343  -0.000  0.00  0.00    -0.645 OA
BRANCH  13  15
HETATM   15  O   UNK N   1       2.675  -5.776  -0.000  0.00  0.00    -0.771 OA
HETATM   16  H   UNK N   1       1.749  -5.919  -0.000  0.00  0.00     0.167 HD
ENDBRANCH  13  15
ENDBRANCH   2  13
TORSDOF 3
