MODEL 1
REMARK VINA RESULT:      -6.2      0.000      0.000
REMARK  3 active torsions:
REMARK  status: ('A' for Active; 'I' for Inactive)
REMARK    1  A    between atoms: C_2  and  C_3 
REMARK    2  A    between atoms: C_3  and  O_4 
REMARK    3  A    between atoms: C_7  and  C_9 
ROOT
HETATM    1  O   UNK N   1      25.228  23.619  -6.439  0.00  0.00    -0.303 OA
HETATM    2  C   UNK N   1      25.694  22.618  -7.132  0.00  0.00     0.149 A 
HETATM    3  C   UNK N   1      27.076  22.662  -7.158  0.00  0.00     0.047 A 
HETATM    4  C   UNK N   1      27.424  23.782  -6.417  0.00  0.00     0.041 A 
HETATM    5  C   UNK N   1      26.223  24.338  -5.994  0.00  0.00     0.088 A 
ENDROOT
BRANCH   5   6
HETATM    6  C   UNK N   1      26.055  25.555  -5.168  0.00  0.00     0.019 A 
HETATM    7  C   UNK N   1      25.454  26.689  -5.735  0.00  0.00     0.016 A 
HETATM    8  C   UNK N   1      25.279  27.854  -4.984  0.00  0.00     0.001 A 
HETATM    9  C   UNK N   1      25.704  27.899  -3.656  0.00  0.00     0.002 A 
HETATM   10  C   UNK N   1      26.303  26.781  -3.077  0.00  0.00     0.025 A 
HETATM   11  C   UNK N   1      26.484  25.609  -3.815  0.00  0.00     0.047 A 
HETATM   12 Cl   UNK N   1      27.250  24.252  -2.996  0.00  0.00    -0.083 Cl
ENDBRANCH   5   6
BRANCH   2  13
HETATM   13  C   UNK N   1      24.831  21.619  -7.771  0.00  0.00     0.201 C 
HETATM   14  O   UNK N   1      25.272  20.506  -8.014  0.00  0.00    -0.645 OA
BRANCH  13  15
HETATM   15  O   UNK N   1      23.559  21.917  -8.090  0.00  0.00    -0.771 OA
HETATM   16  H   UNK N   1      22.859  21.376  -7.781  0.00  0.00     0.167 HD
ENDBRANCH  13  15
ENDBRANCH   2  13
TORSDOF 3
ENDMDL
MODEL 2
REMARK VINA RESULT:      -6.1     24.727     25.806
REMARK  3 active torsions:
REMARK  status: ('A' for Active; 'I' for Inactive)
REMARK    1  A    between atoms: C_2  and  C_3 
REMARK    2  A    between atoms: C_3  and  O_4 
REMARK    3  A    between atoms: C_7  and  C_9 
ROOT
HETATM    1  O   UNK N   1      34.958  13.168  14.027  0.00  0.00    -0.303 OA
HETATM    2  C   UNK N   1      35.317  13.898  13.009  0.00  0.00     0.149 A 
HETATM    3  C   UNK N   1      36.405  14.682  13.347  0.00  0.00     0.047 A 
HETATM    4  C   UNK N   1      36.687  14.371  14.669  0.00  0.00     0.041 A 
HETATM    5  C   UNK N   1      35.747  13.417  15.038  0.00  0.00     0.088 A 
ENDROOT
BRANCH   5   6
HETATM    6  C   UNK N   1      35.624  12.762  16.359  0.00  0.00     0.019 A 
HETATM    7  C   UNK N   1      35.211  13.523  17.464  0.00  0.00     0.016 A 
HETATM    8  C   UNK N   1      35.085  12.936  18.726  0.00  0.00     0.001 A 
HETATM    9  C   UNK N   1      35.370  11.581  18.898  0.00  0.00     0.002 A 
HETATM   10  C   UNK N   1      35.782  10.811  17.811  0.00  0.00     0.025 A 
HETATM   11  C   UNK N   1      35.913  11.384  16.544  0.00  0.00     0.047 A 
HETATM   12 Cl   UNK N   1      36.438  10.329  15.235  0.00  0.00    -0.083 Cl
ENDBRANCH   5   6
BRANCH   2  13
HETATM   13  C   UNK N   1      34.630  13.854  11.714  0.00  0.00     0.201 C 
HETATM   14  O   UNK N   1      34.899  12.969  10.916  0.00  0.00    -0.645 OA
BRANCH  13  15
HETATM   15  O   UNK N   1      33.706  14.778  11.397  0.00  0.00    -0.771 OA
HETATM   16  H   UNK N   1      33.049  15.018  12.020  0.00  0.00     0.167 HD
ENDBRANCH  13  15
ENDBRANCH   2  13
TORSDOF 3
ENDMDL
MODEL 3
REMARK VINA RESULT:      -5.9     17.841     18.800
REMARK  3 active torsions:
REMARK  status: ('A' for Active; 'I' for Inactive)
REMARK    1  A    between atoms: C_2  and  C_3 
REMARK    2  A    between atoms: C_3  and  O_4 
REMARK    3  A    between atoms: C_7  and  C_9 
ROOT
HETATM    1  O   UNK N   1      20.808  15.924   9.181  0.00  0.00    -0.303 OA
HETATM    2  C   UNK N   1      20.161  16.654   8.316  0.00  0.00     0.149 A 
HETATM    3  C   UNK N   1      19.942  15.933   7.156  0.00  0.00     0.047 A 
HETATM    4  C   UNK N   1      20.513  14.689   7.383  0.00  0.00     0.041 A 
HETATM    5  C   UNK N   1      21.038  14.746   8.667  0.00  0.00     0.088 A 
ENDROOT
BRANCH   5   6
HETATM    6  C   UNK N   1      21.754  13.663   9.378  0.00  0.00     0.019 A 
HETATM    7  C   UNK N   1      21.122  13.016  10.452  0.00  0.00     0.016 A 
HETATM    8  C   UNK N   1      21.769  11.990  11.145  0.00  0.00     0.001 A 
HETATM    9  C   UNK N   1      23.056  11.599  10.774  0.00  0.00     0.002 A 
HETATM   10  C   UNK N   1      23.698  12.231   9.710  0.00  0.00     0.025 A 
HETATM   11  C   UNK N   1      23.064  13.259   9.007  0.00  0.00     0.047 A 
HETATM   12 Cl   UNK N   1      23.956  13.996   7.680  0.00  0.00    -0.083 Cl
ENDBRANCH   5   6
BRANCH   2  13
HETATM   13  C   UNK N   1      19.750  18.036   8.586  0.00  0.00     0.201 C 
HETATM   14  O   UNK N   1      20.415  18.961   8.148  0.00  0.00    -0.645 OA
BRANCH  13  15
HETATM   15  O   UNK N   1      18.647  18.292   9.312  0.00  0.00    -0.771 OA
HETATM   16  H   UNK N   1      18.657  18.971   9.957  0.00  0.00     0.167 HD
ENDBRANCH  13  15
ENDBRANCH   2  13
TORSDOF 3
ENDMDL
MODEL 4
REMARK VINA RESULT:      -5.9     18.529     19.390
REMARK  3 active torsions:
REMARK  status: ('A' for Active; 'I' for Inactive)
REMARK    1  A    between atoms: C_2  and  C_3 
REMARK    2  A    between atoms: C_3  and  O_4 
REMARK    3  A    between atoms: C_7  and  C_9 
ROOT
HETATM    1  O   UNK N   1      20.996  15.093   9.365  0.00  0.00    -0.303 OA
HETATM    2  C   UNK N   1      20.246  15.535   8.395  0.00  0.00     0.149 A 
HETATM    3  C   UNK N   1      20.390  14.730   7.279  0.00  0.00     0.047 A 
HETATM    4  C   UNK N   1      21.299  13.749   7.648  0.00  0.00     0.041 A 
HETATM    5  C   UNK N   1      21.640  14.031   8.964  0.00  0.00     0.088 A 
ENDROOT
BRANCH   5   6
HETATM    6  C   UNK N   1      22.584  13.271   9.815  0.00  0.00     0.019 A 
HETATM    7  C   UNK N   1      23.957  13.318   9.524  0.00  0.00     0.016 A 
HETATM    8  C   UNK N   1      24.875  12.613  10.306  0.00  0.00     0.001 A 
HETATM    9  C   UNK N   1      24.432  11.852  11.388  0.00  0.00     0.002 A 
HETATM   10  C   UNK N   1      23.072  11.794  11.690  0.00  0.00     0.025 A 
HETATM   11  C   UNK N   1      22.142  12.493  10.918  0.00  0.00     0.047 A 
HETATM   12 Cl   UNK N   1      20.448  12.357  11.378  0.00  0.00    -0.083 Cl
ENDBRANCH   5   6
BRANCH   2  13
HETATM   13  C   UNK N   1      19.391  16.720   8.523  0.00  0.00     0.201 C 
HETATM   14  O   UNK N   1      18.177  16.592   8.533  0.00  0.00    -0.645 OA
BRANCH  13  15
HETATM   15  O   UNK N   1      19.933  17.946   8.629  0.00  0.00    -0.771 OA
HETATM   16  H   UNK N   1      19.460  18.633   9.057  0.00  0.00     0.167 HD
ENDBRANCH  13  15
ENDBRANCH   2  13
TORSDOF 3
ENDMDL
MODEL 5
REMARK VINA RESULT:      -5.9     19.008     19.780
REMARK  3 active torsions:
REMARK  status: ('A' for Active; 'I' for Inactive)
REMARK    1  A    between atoms: C_2  and  C_3 
REMARK    2  A    between atoms: C_3  and  O_4 
REMARK    3  A    between atoms: C_7  and  C_9 
ROOT
HETATM    1  O   UNK N   1      22.572  13.294  10.340  0.00  0.00    -0.303 OA
HETATM    2  C   UNK N   1      22.579  12.505  11.377  0.00  0.00     0.149 A 
HETATM    3  C   UNK N   1      21.294  12.073  11.654  0.00  0.00     0.047 A 
HETATM    4  C   UNK N   1      20.491  12.668  10.692  0.00  0.00     0.041 A 
HETATM    5  C   UNK N   1      21.349  13.419   9.900  0.00  0.00     0.088 A 
ENDROOT
BRANCH   5   6
HETATM    6  C   UNK N   1      20.976  14.247   8.730  0.00  0.00     0.019 A 
HETATM    7  C   UNK N   1      20.668  15.603   8.922  0.00  0.00     0.016 A 
HETATM    8  C   UNK N   1      20.312  16.412   7.841  0.00  0.00     0.001 A 
HETATM    9  C   UNK N   1      20.259  15.876   6.554  0.00  0.00     0.002 A 
HETATM   10  C   UNK N   1      20.562  14.531   6.346  0.00  0.00     0.025 A 
HETATM   11  C   UNK N   1      20.919  13.709   7.417  0.00  0.00     0.047 A 
HETATM   12 Cl   UNK N   1      21.283  12.024   7.053  0.00  0.00    -0.083 Cl
ENDBRANCH   5   6
BRANCH   2  13
HETATM   13  C   UNK N   1      23.803  12.157  12.108  0.00  0.00     0.201 C 
HETATM   14  O   UNK N   1      23.736  11.855  13.289  0.00  0.00    -0.645 OA
BRANCH  13  15
HETATM   15  O   UNK N   1      24.996  12.170  11.489  0.00  0.00    -0.771 OA
HETATM   16  H   UNK N   1      25.187  12.828  10.850  0.00  0.00     0.167 HD
ENDBRANCH  13  15
ENDBRANCH   2  13
TORSDOF 3
ENDMDL
MODEL 6
REMARK VINA RESULT:      -5.8     25.464     26.545
REMARK  3 active torsions:
REMARK  status: ('A' for Active; 'I' for Inactive)
REMARK    1  A    between atoms: C_2  and  C_3 
REMARK    2  A    between atoms: C_3  and  O_4 
REMARK    3  A    between atoms: C_7  and  C_9 
ROOT
HETATM    1  O   UNK N   1      35.100  12.712  14.743  0.00  0.00    -0.303 OA
HETATM    2  C   UNK N   1      35.513  13.408  13.722  0.00  0.00     0.149 A 
HETATM    3  C   UNK N   1      36.542  14.250  14.105  0.00  0.00     0.047 A 
HETATM    4  C   UNK N   1      36.728  14.011  15.459  0.00  0.00     0.041 A 
HETATM    5  C   UNK N   1      35.796  13.039  15.799  0.00  0.00     0.088 A 
ENDROOT
BRANCH   5   6
HETATM    6  C   UNK N   1      35.592  12.441  17.137  0.00  0.00     0.019 A 
HETATM    7  C   UNK N   1      35.655  11.046  17.279  0.00  0.00     0.016 A 
HETATM    8  C   UNK N   1      35.467  10.447  18.528  0.00  0.00     0.001 A 
HETATM    9  C   UNK N   1      35.213  11.237  19.650  0.00  0.00     0.002 A 
HETATM   10  C   UNK N   1      35.146  12.624  19.526  0.00  0.00     0.025 A 
HETATM   11  C   UNK N   1      35.332  13.237  18.284  0.00  0.00     0.047 A 
HETATM   12 Cl   UNK N   1      35.230  14.994  18.230  0.00  0.00    -0.083 Cl
ENDBRANCH   5   6
BRANCH   2  13
HETATM   13  C   UNK N   1      34.934  13.278  12.380  0.00  0.00     0.201 C 
HETATM   14  O   UNK N   1      35.159  12.275  11.720  0.00  0.00    -0.645 OA
BRANCH  13  15
HETATM   15  O   UNK N   1      34.158  14.251  11.872  0.00  0.00    -0.771 OA
HETATM   16  H   UNK N   1      33.687  14.824  12.446  0.00  0.00     0.167 HD
ENDBRANCH  13  15
ENDBRANCH   2  13
TORSDOF 3
ENDMDL
MODEL 7
REMARK VINA RESULT:      -5.8     16.386     17.597
REMARK  3 active torsions:
REMARK  status: ('A' for Active; 'I' for Inactive)
REMARK    1  A    between atoms: C_2  and  C_3 
REMARK    2  A    between atoms: C_3  and  O_4 
REMARK    3  A    between atoms: C_7  and  C_9 
ROOT
HETATM    1  O   UNK N   1      32.838  16.785   8.975  0.00  0.00    -0.303 OA
HETATM    2  C   UNK N   1      34.091  17.118   9.106  0.00  0.00     0.149 A 
HETATM    3  C   UNK N   1      34.499  17.869   8.019  0.00  0.00     0.047 A 
HETATM    4  C   UNK N   1      33.382  17.972   7.202  0.00  0.00     0.041 A 
HETATM    5  C   UNK N   1      32.376  17.273   7.856  0.00  0.00     0.088 A 
ENDROOT
BRANCH   5   6
HETATM    6  C   UNK N   1      30.983  17.087   7.389  0.00  0.00     0.019 A 
HETATM    7  C   UNK N   1      30.737  16.255   6.286  0.00  0.00     0.016 A 
HETATM    8  C   UNK N   1      29.435  16.057   5.819  0.00  0.00     0.001 A 
HETATM    9  C   UNK N   1      28.363  16.688   6.451  0.00  0.00     0.002 A 
HETATM   10  C   UNK N   1      28.590  17.517   7.549  0.00  0.00     0.025 A 
HETATM   11  C   UNK N   1      29.886  17.725   8.026  0.00  0.00     0.047 A 
HETATM   12 Cl   UNK N   1      30.070  18.789   9.418  0.00  0.00    -0.083 Cl
ENDBRANCH   5   6
BRANCH   2  13
HETATM   13  C   UNK N   1      34.905  16.724  10.261  0.00  0.00     0.201 C 
HETATM   14  O   UNK N   1      35.969  17.286  10.471  0.00  0.00    -0.645 OA
BRANCH  13  15
HETATM   15  O   UNK N   1      34.490  15.750  11.091  0.00  0.00    -0.771 OA
HETATM   16  H   UNK N   1      34.108  15.970  11.918  0.00  0.00     0.167 HD
ENDBRANCH  13  15
ENDBRANCH   2  13
TORSDOF 3
ENDMDL
MODEL 8
REMARK VINA RESULT:      -5.7     11.015     12.143
REMARK  3 active torsions:
REMARK  status: ('A' for Active; 'I' for Inactive)
REMARK    1  A    between atoms: C_2  and  C_3 
REMARK    2  A    between atoms: C_3  and  O_4 
REMARK    3  A    between atoms: C_7  and  C_9 
ROOT
HETATM    1  O   UNK N   1      24.548  19.611   4.363  0.00  0.00    -0.303 OA
HETATM    2  C   UNK N   1      24.099  20.193   3.287  0.00  0.00     0.149 A 
HETATM    3  C   UNK N   1      25.154  20.631   2.508  0.00  0.00     0.047 A 
HETATM    4  C   UNK N   1      26.300  20.266   3.201  0.00  0.00     0.041 A 
HETATM    5  C   UNK N   1      25.854  19.632   4.353  0.00  0.00     0.088 A 
ENDROOT
BRANCH   5   6
HETATM    6  C   UNK N   1      26.694  19.055   5.427  0.00  0.00     0.019 A 
HETATM    7  C   UNK N   1      26.855  17.663   5.496  0.00  0.00     0.016 A 
HETATM    8  C   UNK N   1      27.641  17.085   6.496  0.00  0.00     0.001 A 
HETATM    9  C   UNK N   1      28.276  17.893   7.440  0.00  0.00     0.002 A 
HETATM   10  C   UNK N   1      28.127  19.279   7.386  0.00  0.00     0.025 A 
HETATM   11  C   UNK N   1      27.344  19.871   6.391  0.00  0.00     0.047 A 
HETATM   12 Cl   UNK N   1      27.216  21.627   6.406  0.00  0.00    -0.083 Cl
ENDBRANCH   5   6
BRANCH   2  13
HETATM   13  C   UNK N   1      22.668  20.336   2.994  0.00  0.00     0.201 C 
HETATM   14  O   UNK N   1      21.952  19.346   2.980  0.00  0.00    -0.645 OA
BRANCH  13  15
HETATM   15  O   UNK N   1      22.139  21.546   2.742  0.00  0.00    -0.771 OA
HETATM   16  H   UNK N   1      21.215  21.679   2.819  0.00  0.00     0.167 HD
ENDBRANCH  13  15
ENDBRANCH   2  13
TORSDOF 3
ENDMDL
MODEL 9
REMARK VINA RESULT:      -5.7     22.826     23.941
REMARK  3 active torsions:
REMARK  status: ('A' for Active; 'I' for Inactive)
REMARK    1  A    between atoms: C_2  and  C_3 
REMARK    2  A    between atoms: C_3  and  O_4 
REMARK    3  A    between atoms: C_7  and  C_9 
ROOT
HETATM    1  O   UNK N   1      34.919  14.482  12.270  0.00  0.00    -0.303 OA
HETATM    2  C   UNK N   1      35.485  15.034  11.235  0.00  0.00     0.149 A 
HETATM    3  C   UNK N   1      36.612  14.318  10.871  0.00  0.00     0.047 A 
HETATM    4  C   UNK N   1      36.691  13.271  11.779  0.00  0.00     0.041 A 
HETATM    5  C   UNK N   1      35.604  13.429  12.628  0.00  0.00     0.088 A 
ENDROOT
BRANCH   5   6
HETATM    6  C   UNK N   1      35.242  12.562  13.772  0.00  0.00     0.019 A 
HETATM    7  C   UNK N   1      34.341  11.504  13.570  0.00  0.00     0.016 A 
HETATM    8  C   UNK N   1      33.978  10.667  14.627  0.00  0.00     0.001 A 
HETATM    9  C   UNK N   1      34.511  10.875  15.900  0.00  0.00     0.002 A 
HETATM   10  C   UNK N   1      35.408  11.921  16.117  0.00  0.00     0.025 A 
HETATM   11  C   UNK N   1      35.780  12.767  15.070  0.00  0.00     0.047 A 
HETATM   12 Cl   UNK N   1      36.918  14.058  15.444  0.00  0.00    -0.083 Cl
ENDBRANCH   5   6
BRANCH   2  13
HETATM   13  C   UNK N   1      34.960  16.241  10.586  0.00  0.00     0.201 C 
HETATM   14  O   UNK N   1      35.648  17.249  10.538  0.00  0.00    -0.645 OA
BRANCH  13  15
HETATM   15  O   UNK N   1      33.730  16.246  10.044  0.00  0.00    -0.771 OA
HETATM   16  H   UNK N   1      33.345  17.053   9.762  0.00  0.00     0.167 HD
ENDBRANCH  13  15
ENDBRANCH   2  13
TORSDOF 3
ENDMDL
