MODEL 1
REMARK VINA RESULT:      -6.5      0.000      0.000
REMARK  6 active torsions:
REMARK  status: ('A' for Active; 'I' for Inactive)
REMARK    1  A    between atoms: C_12  and  N_1 
REMARK    2  A    between atoms: C_15  and  C_17 
REMARK    3  A    between atoms: O_16  and  C_17 
REMARK    4  A    between atoms: O_16  and  P_18 
REMARK    5  A    between atoms: P_18  and  O_19 
REMARK    6  A    between atoms: P_18  and  O_21 
ROOT
HETATM    1  O   UNK N   1      34.516  14.546  11.722  0.00  0.00    -0.356 OA
HETATM    2  F   UNK N   1      36.540  14.465   8.817  0.00  0.00    -0.246 F 
HETATM    3  C   UNK N   1      35.446  13.545  12.054  0.00  0.00     0.235 C 
HETATM    4  C   UNK N   1      36.637  13.796  11.154  0.00  0.00     0.094 C 
HETATM    5  C   UNK N   1      35.857  13.870   9.864  0.00  0.00     0.205 C 
HETATM    6  C   UNK N   1      34.577  14.603  10.306  0.00  0.00     0.182 C 
ENDROOT
BRANCH   3   7
HETATM    7  N   UNK N   1      35.704  13.428  13.499  0.00  0.00    -0.282 N 
HETATM    8  C   UNK N   1      36.502  14.341  14.119  0.00  0.00     0.110 A 
HETATM    9  C   UNK N   1      36.551  14.415  15.511  0.00  0.00     0.022 A 
HETATM   10  C   UNK N   1      35.759  13.539  16.259  0.00  0.00     0.256 A 
HETATM   11  C   UNK N   1      37.390  15.458  16.166  0.00  0.00     0.056 C 
HETATM   12  N   UNK N   1      35.006  12.596  15.622  0.00  0.00    -0.275 N 
HETATM   13  O   UNK N   1      35.724  13.619  17.475  0.00  0.00    -0.267 OA
HETATM   14  C   UNK N   1      34.970  12.527  14.253  0.00  0.00     0.331 A 
HETATM   15  H   UNK N   1      34.481  11.955  16.152  0.00  0.00     0.173 HD
HETATM   16  O   UNK N   1      34.243  11.712  13.716  0.00  0.00    -0.246 OA
ENDBRANCH   3   7
BRANCH   6  17
HETATM   17  C   UNK N   1      34.581  16.045   9.832  0.00  0.00     0.215 C 
BRANCH  17  18
HETATM   18  O   UNK N   1      33.700  16.211   8.764  0.00  0.00    -0.294 OA
BRANCH  18  19
HETATM   19  P   UNK N   1      34.077  17.783   8.130  0.00  0.00     0.390 P 
HETATM   20  O   UNK N   1      32.787  18.641   8.216  0.00  0.00    -0.632 OA
BRANCH  19  21
HETATM   21  O   UNK N   1      34.528  17.691   6.458  0.00  0.00    -0.307 OA
HETATM   22  H   UNK N   1      35.388  17.370   6.144  0.00  0.00     0.222 HD
ENDBRANCH  19  21
BRANCH  19  23
HETATM   23  O   UNK N   1      35.308  18.591   9.056  0.00  0.00    -0.307 OA
HETATM   24  H   UNK N   1      36.069  19.163   8.874  0.00  0.00     0.222 HD
ENDBRANCH  19  23
ENDBRANCH  18  19
ENDBRANCH  17  18
ENDBRANCH   6  17
TORSDOF 6
ENDMDL
MODEL 2
REMARK VINA RESULT:      -6.4     10.311     13.531
REMARK  6 active torsions:
REMARK  status: ('A' for Active; 'I' for Inactive)
REMARK    1  A    between atoms: C_12  and  N_1 
REMARK    2  A    between atoms: C_15  and  C_17 
REMARK    3  A    between atoms: O_16  and  C_17 
REMARK    4  A    between atoms: O_16  and  P_18 
REMARK    5  A    between atoms: P_18  and  O_19 
REMARK    6  A    between atoms: P_18  and  O_21 
ROOT
HETATM    1  O   UNK N   1      27.020  18.662   5.415  0.00  0.00    -0.356 OA
HETATM    2  F   UNK N   1      29.340  16.180   4.418  0.00  0.00    -0.246 F 
HETATM    3  C   UNK N   1      26.825  18.638   4.022  0.00  0.00     0.235 C 
HETATM    4  C   UNK N   1      27.346  17.289   3.573  0.00  0.00     0.094 C 
HETATM    5  C   UNK N   1      28.683  17.389   4.267  0.00  0.00     0.205 C 
HETATM    6  C   UNK N   1      28.309  18.095   5.583  0.00  0.00     0.182 C 
ENDROOT
BRANCH   3   7
HETATM    7  N   UNK N   1      25.463  19.009   3.604  0.00  0.00    -0.282 N 
HETATM    8  C   UNK N   1      24.399  18.285   4.049  0.00  0.00     0.110 A 
HETATM    9  C   UNK N   1      23.098  18.761   3.892  0.00  0.00     0.022 A 
HETATM   10  C   UNK N   1      22.906  20.002   3.277  0.00  0.00     0.256 A 
HETATM   11  C   UNK N   1      21.954  17.975   4.435  0.00  0.00     0.056 C 
HETATM   12  N   UNK N   1      23.980  20.690   2.792  0.00  0.00    -0.275 N 
HETATM   13  O   UNK N   1      21.789  20.482   3.184  0.00  0.00    -0.267 OA
HETATM   14  C   UNK N   1      25.254  20.209   2.945  0.00  0.00     0.331 A 
HETATM   15  H   UNK N   1      23.838  21.544   2.324  0.00  0.00     0.173 HD
HETATM   16  O   UNK N   1      26.194  20.875   2.552  0.00  0.00    -0.246 OA
ENDBRANCH   3   7
BRANCH   6  17
HETATM   17  C   UNK N   1      28.312  17.120   6.747  0.00  0.00     0.215 C 
BRANCH  17  18
HETATM   18  O   UNK N   1      29.334  17.432   7.643  0.00  0.00    -0.294 OA
BRANCH  18  19
HETATM   19  P   UNK N   1      28.515  18.103   9.019  0.00  0.00     0.390 P 
HETATM   20  O   UNK N   1      27.695  16.960   9.674  0.00  0.00    -0.632 OA
BRANCH  19  21
HETATM   21  O   UNK N   1      27.395  19.337   8.542  0.00  0.00    -0.307 OA
HETATM   22  H   UNK N   1      26.680  19.670   9.107  0.00  0.00     0.222 HD
ENDBRANCH  19  21
BRANCH  19  23
HETATM   23  O   UNK N   1      29.623  18.707  10.216  0.00  0.00    -0.307 OA
HETATM   24  H   UNK N   1      29.600  19.349  10.942  0.00  0.00     0.222 HD
ENDBRANCH  19  23
ENDBRANCH  18  19
ENDBRANCH  17  18
ENDBRANCH   6  17
TORSDOF 6
ENDMDL
MODEL 3
REMARK VINA RESULT:      -6.4      4.775      6.671
REMARK  6 active torsions:
REMARK  status: ('A' for Active; 'I' for Inactive)
REMARK    1  A    between atoms: C_12  and  N_1 
REMARK    2  A    between atoms: C_15  and  C_17 
REMARK    3  A    between atoms: O_16  and  C_17 
REMARK    4  A    between atoms: O_16  and  P_18 
REMARK    5  A    between atoms: P_18  and  O_19 
REMARK    6  A    between atoms: P_18  and  O_21 
ROOT
HETATM    1  O   UNK N   1      31.292  16.160   7.187  0.00  0.00    -0.356 OA
HETATM    2  F   UNK N   1      31.401  17.879   4.093  0.00  0.00    -0.246 F 
HETATM    3  C   UNK N   1      32.667  16.124   6.893  0.00  0.00     0.235 C 
HETATM    4  C   UNK N   1      32.893  17.254   5.912  0.00  0.00     0.094 C 
HETATM    5  C   UNK N   1      31.785  16.870   4.960  0.00  0.00     0.205 C 
HETATM    6  C   UNK N   1      30.686  16.390   5.925  0.00  0.00     0.182 C 
ENDROOT
BRANCH   3   7
HETATM    7  N   UNK N   1      33.530  16.082   8.085  0.00  0.00    -0.282 N 
HETATM    8  C   UNK N   1      34.392  15.042   8.259  0.00  0.00     0.110 A 
HETATM    9  C   UNK N   1      35.398  15.104   9.223  0.00  0.00     0.022 A 
HETATM   10  C   UNK N   1      35.512  16.259  10.002  0.00  0.00     0.256 A 
HETATM   11  C   UNK N   1      36.362  13.975   9.357  0.00  0.00     0.056 C 
HETATM   12  N   UNK N   1      34.608  17.270   9.850  0.00  0.00    -0.275 N 
HETATM   13  O   UNK N   1      36.420  16.377  10.807  0.00  0.00    -0.267 OA
HETATM   14  C   UNK N   1      33.618  17.196   8.904  0.00  0.00     0.331 A 
HETATM   15  H   UNK N   1      34.666  18.064  10.428  0.00  0.00     0.173 HD
HETATM   16  O   UNK N   1      32.864  18.139   8.755  0.00  0.00    -0.246 OA
ENDBRANCH   3   7
BRANCH   6  17
HETATM   17  C   UNK N   1      29.578  17.420   6.048  0.00  0.00     0.215 C 
BRANCH  17  18
HETATM   18  O   UNK N   1      28.630  17.009   6.985  0.00  0.00    -0.294 OA
BRANCH  18  19
HETATM   19  P   UNK N   1      28.570  18.305   8.139  0.00  0.00     0.390 P 
HETATM   20  O   UNK N   1      28.107  19.579   7.384  0.00  0.00    -0.632 OA
BRANCH  19  21
HETATM   21  O   UNK N   1      30.141  18.633   8.796  0.00  0.00    -0.307 OA
HETATM   22  H   UNK N   1      30.847  19.091   8.313  0.00  0.00     0.222 HD
ENDBRANCH  19  21
BRANCH  19  23
HETATM   23  O   UNK N   1      27.423  18.003   9.412  0.00  0.00    -0.307 OA
HETATM   24  H   UNK N   1      27.452  17.727  10.340  0.00  0.00     0.222 HD
ENDBRANCH  19  23
ENDBRANCH  18  19
ENDBRANCH  17  18
ENDBRANCH   6  17
TORSDOF 6
ENDMDL
MODEL 4
REMARK VINA RESULT:      -6.4      7.068      9.040
REMARK  6 active torsions:
REMARK  status: ('A' for Active; 'I' for Inactive)
REMARK    1  A    between atoms: C_12  and  N_1 
REMARK    2  A    between atoms: C_15  and  C_17 
REMARK    3  A    between atoms: O_16  and  C_17 
REMARK    4  A    between atoms: O_16  and  P_18 
REMARK    5  A    between atoms: P_18  and  O_19 
REMARK    6  A    between atoms: P_18  and  O_21 
ROOT
HETATM    1  O   UNK N   1      32.129  16.825   5.228  0.00  0.00    -0.356 OA
HETATM    2  F   UNK N   1      33.588  14.004   6.796  0.00  0.00    -0.246 F 
HETATM    3  C   UNK N   1      30.991  16.071   5.567  0.00  0.00     0.235 C 
HETATM    4  C   UNK N   1      31.443  15.149   6.679  0.00  0.00     0.094 C 
HETATM    5  C   UNK N   1      32.664  14.617   5.967  0.00  0.00     0.205 C 
HETATM    6  C   UNK N   1      33.177  15.869   5.234  0.00  0.00     0.182 C 
ENDROOT
BRANCH   3   7
HETATM    7  N   UNK N   1      29.789  16.884   5.812  0.00  0.00    -0.282 N 
HETATM    8  C   UNK N   1      29.496  17.295   7.077  0.00  0.00     0.110 A 
HETATM    9  C   UNK N   1      28.528  18.273   7.303  0.00  0.00     0.022 A 
HETATM   10  C   UNK N   1      27.870  18.834   6.204  0.00  0.00     0.256 A 
HETATM   11  C   UNK N   1      28.264  18.743   8.692  0.00  0.00     0.056 C 
HETATM   12  N   UNK N   1      28.139  18.373   4.947  0.00  0.00    -0.275 N 
HETATM   13  O   UNK N   1      27.068  19.739   6.357  0.00  0.00    -0.267 OA
HETATM   14  C   UNK N   1      29.087  17.406   4.737  0.00  0.00     0.331 A 
HETATM   15  H   UNK N   1      27.645  18.742   4.180  0.00  0.00     0.173 HD
HETATM   16  O   UNK N   1      29.343  17.060   3.599  0.00  0.00    -0.246 OA
ENDBRANCH   3   7
BRANCH   6  17
HETATM   17  C   UNK N   1      34.409  16.436   5.917  0.00  0.00     0.215 C 
BRANCH  17  18
HETATM   18  O   UNK N   1      34.248  17.799   6.161  0.00  0.00    -0.294 OA
BRANCH  18  19
HETATM   19  P   UNK N   1      34.188  17.926   7.892  0.00  0.00     0.390 P 
HETATM   20  O   UNK N   1      34.679  16.574   8.475  0.00  0.00    -0.632 OA
BRANCH  19  21
HETATM   21  O   UNK N   1      32.563  18.171   8.446  0.00  0.00    -0.307 OA
HETATM   22  H   UNK N   1      32.318  18.787   9.154  0.00  0.00     0.222 HD
ENDBRANCH  19  21
BRANCH  19  23
HETATM   23  O   UNK N   1      35.239  19.172   8.500  0.00  0.00    -0.307 OA
HETATM   24  H   UNK N   1      35.356  19.656   9.331  0.00  0.00     0.222 HD
ENDBRANCH  19  23
ENDBRANCH  18  19
ENDBRANCH  17  18
ENDBRANCH   6  17
TORSDOF 6
ENDMDL
MODEL 5
REMARK VINA RESULT:      -6.3      2.439      3.429
REMARK  6 active torsions:
REMARK  status: ('A' for Active; 'I' for Inactive)
REMARK    1  A    between atoms: C_12  and  N_1 
REMARK    2  A    between atoms: C_15  and  C_17 
REMARK    3  A    between atoms: O_16  and  C_17 
REMARK    4  A    between atoms: O_16  and  P_18 
REMARK    5  A    between atoms: P_18  and  O_19 
REMARK    6  A    between atoms: P_18  and  O_21 
ROOT
HETATM    1  O   UNK N   1      34.794  12.834  13.921  0.00  0.00    -0.356 OA
HETATM    2  F   UNK N   1      36.752  10.992  11.615  0.00  0.00    -0.246 F 
HETATM    3  C   UNK N   1      35.302  11.808  14.739  0.00  0.00     0.235 C 
HETATM    4  C   UNK N   1      36.534  11.300  14.019  0.00  0.00     0.094 C 
HETATM    5  C   UNK N   1      35.871  11.101  12.677  0.00  0.00     0.205 C 
HETATM    6  C   UNK N   1      34.917  12.308  12.610  0.00  0.00     0.182 C 
ENDROOT
BRANCH   3   7
HETATM    7  N   UNK N   1      35.456  12.192  16.151  0.00  0.00    -0.282 N 
HETATM    8  C   UNK N   1      35.655  13.499  16.478  0.00  0.00     0.110 A 
HETATM    9  C   UNK N   1      35.539  13.929  17.800  0.00  0.00     0.022 A 
HETATM   10  C   UNK N   1      35.206  12.993  18.784  0.00  0.00     0.256 A 
HETATM   11  C   UNK N   1      35.708  15.374  18.124  0.00  0.00     0.056 C 
HETATM   12  N   UNK N   1      35.062  11.679  18.446  0.00  0.00    -0.275 N 
HETATM   13  O   UNK N   1      35.029  13.344  19.938  0.00  0.00    -0.267 OA
HETATM   14  C   UNK N   1      35.184  11.266  17.145  0.00  0.00     0.331 A 
HETATM   15  H   UNK N   1      34.867  11.017  19.148  0.00  0.00     0.173 HD
HETATM   16  O   UNK N   1      34.992  10.096  16.870  0.00  0.00    -0.246 OA
ENDBRANCH   3   7
BRANCH   6  17
HETATM   17  C   UNK N   1      35.443  13.368  11.660  0.00  0.00     0.215 C 
BRANCH  17  18
HETATM   18  O   UNK N   1      34.830  14.596  11.909  0.00  0.00    -0.294 OA
BRANCH  18  19
HETATM   19  P   UNK N   1      35.420  15.639  10.653  0.00  0.00     0.390 P 
HETATM   20  O   UNK N   1      35.327  14.856   9.316  0.00  0.00    -0.632 OA
BRANCH  19  21
HETATM   21  O   UNK N   1      37.088  16.041  10.903  0.00  0.00    -0.307 OA
HETATM   22  H   UNK N   1      37.421  16.949  10.985  0.00  0.00     0.222 HD
ENDBRANCH  19  21
BRANCH  19  23
HETATM   23  O   UNK N   1      34.458  17.079  10.485  0.00  0.00    -0.307 OA
HETATM   24  H   UNK N   1      34.581  17.976  10.140  0.00  0.00     0.222 HD
ENDBRANCH  19  23
ENDBRANCH  18  19
ENDBRANCH  17  18
ENDBRANCH   6  17
TORSDOF 6
ENDMDL
MODEL 6
REMARK VINA RESULT:      -6.3      2.536      3.524
REMARK  6 active torsions:
REMARK  status: ('A' for Active; 'I' for Inactive)
REMARK    1  A    between atoms: C_12  and  N_1 
REMARK    2  A    between atoms: C_15  and  C_17 
REMARK    3  A    between atoms: O_16  and  C_17 
REMARK    4  A    between atoms: O_16  and  P_18 
REMARK    5  A    between atoms: P_18  and  O_19 
REMARK    6  A    between atoms: P_18  and  O_21 
ROOT
HETATM    1  O   UNK N   1      34.889  12.636  13.941  0.00  0.00    -0.356 OA
HETATM    2  F   UNK N   1      37.565  13.124  11.672  0.00  0.00    -0.246 F 
HETATM    3  C   UNK N   1      35.744  11.572  14.280  0.00  0.00     0.235 C 
HETATM    4  C   UNK N   1      37.110  11.984  13.774  0.00  0.00     0.094 C 
HETATM    5  C   UNK N   1      36.667  12.337  12.374  0.00  0.00     0.205 C 
HETATM    6  C   UNK N   1      35.294  12.984  12.627  0.00  0.00     0.182 C 
ENDROOT
BRANCH   3   7
HETATM    7  N   UNK N   1      35.645  11.153  15.688  0.00  0.00    -0.282 N 
HETATM    8  C   UNK N   1      35.640  12.093  16.674  0.00  0.00     0.110 A 
HETATM    9  C   UNK N   1      35.284  11.754  17.979  0.00  0.00     0.022 A 
HETATM   10  C   UNK N   1      34.921  10.432  18.256  0.00  0.00     0.256 A 
HETATM   11  C   UNK N   1      35.234  12.811  19.028  0.00  0.00     0.056 C 
HETATM   12  N   UNK N   1      34.982   9.493  17.267  0.00  0.00    -0.275 N 
HETATM   13  O   UNK N   1      34.539  10.114  19.369  0.00  0.00    -0.267 OA
HETATM   14  C   UNK N   1      35.341   9.835  15.989  0.00  0.00     0.331 A 
HETATM   15  H   UNK N   1      34.766   8.556  17.474  0.00  0.00     0.173 HD
HETATM   16  O   UNK N   1      35.328   8.985  15.118  0.00  0.00    -0.246 OA
ENDBRANCH   3   7
BRANCH   6  17
HETATM   17  C   UNK N   1      35.363  14.492  12.474  0.00  0.00     0.215 C 
BRANCH  17  18
HETATM   18  O   UNK N   1      34.378  14.941  11.595  0.00  0.00    -0.294 OA
BRANCH  18  19
HETATM   19  P   UNK N   1      35.249  15.828  10.383  0.00  0.00     0.390 P 
HETATM   20  O   UNK N   1      35.319  14.937   9.115  0.00  0.00    -0.632 OA
BRANCH  19  21
HETATM   21  O   UNK N   1      36.879  16.142  10.886  0.00  0.00    -0.307 OA
HETATM   22  H   UNK N   1      37.135  16.345  11.799  0.00  0.00     0.222 HD
ENDBRANCH  19  21
BRANCH  19  23
HETATM   23  O   UNK N   1      34.446  17.306   9.942  0.00  0.00    -0.307 OA
HETATM   24  H   UNK N   1      34.078  18.077  10.402  0.00  0.00     0.222 HD
ENDBRANCH  19  23
ENDBRANCH  18  19
ENDBRANCH  17  18
ENDBRANCH   6  17
TORSDOF 6
ENDMDL
MODEL 7
REMARK VINA RESULT:      -6.2      3.352      7.181
REMARK  6 active torsions:
REMARK  status: ('A' for Active; 'I' for Inactive)
REMARK    1  A    between atoms: C_12  and  N_1 
REMARK    2  A    between atoms: C_15  and  C_17 
REMARK    3  A    between atoms: O_16  and  C_17 
REMARK    4  A    between atoms: O_16  and  P_18 
REMARK    5  A    between atoms: P_18  and  O_19 
REMARK    6  A    between atoms: P_18  and  O_21 
ROOT
HETATM    1  O   UNK N   1      35.387  14.785  11.663  0.00  0.00    -0.356 OA
HETATM    2  F   UNK N   1      37.256  11.799  11.299  0.00  0.00    -0.246 F 
HETATM    3  C   UNK N   1      35.805  14.875  10.323  0.00  0.00     0.235 C 
HETATM    4  C   UNK N   1      36.135  13.455   9.914  0.00  0.00     0.094 C 
HETATM    5  C   UNK N   1      37.030  13.148  11.090  0.00  0.00     0.205 C 
HETATM    6  C   UNK N   1      36.309  13.874  12.240  0.00  0.00     0.182 C 
ENDROOT
BRANCH   3   7
HETATM    7  N   UNK N   1      34.880  15.628   9.460  0.00  0.00    -0.282 N 
HETATM    8  C   UNK N   1      33.995  14.958   8.670  0.00  0.00     0.110 A 
HETATM    9  C   UNK N   1      32.942  15.631   8.051  0.00  0.00     0.022 A 
HETATM   10  C   UNK N   1      32.804  17.006   8.265  0.00  0.00     0.256 A 
HETATM   11  C   UNK N   1      31.956  14.866   7.236  0.00  0.00     0.056 C 
HETATM   12  N   UNK N   1      33.730  17.669   9.017  0.00  0.00    -0.275 N 
HETATM   13  O   UNK N   1      31.857  17.614   7.796  0.00  0.00    -0.267 OA
HETATM   14  C   UNK N   1      34.766  17.000   9.614  0.00  0.00     0.331 A 
HETATM   15  H   UNK N   1      33.653  18.644   9.132  0.00  0.00     0.173 HD
HETATM   16  O   UNK N   1      35.540  17.613  10.326  0.00  0.00    -0.246 OA
ENDBRANCH   3   7
BRANCH   6  17
HETATM   17  C   UNK N   1      35.587  12.887  13.141  0.00  0.00     0.215 C 
BRANCH  17  18
HETATM   18  O   UNK N   1      35.054  13.540  14.251  0.00  0.00    -0.294 OA
BRANCH  18  19
HETATM   19  P   UNK N   1      36.202  13.248  15.520  0.00  0.00     0.390 P 
HETATM   20  O   UNK N   1      35.466  13.454  16.871  0.00  0.00    -0.632 OA
BRANCH  19  21
HETATM   21  O   UNK N   1      37.506  14.390  15.460  0.00  0.00    -0.307 OA
HETATM   22  H   UNK N   1      37.721  14.928  14.683  0.00  0.00     0.222 HD
ENDBRANCH  19  21
BRANCH  19  23
HETATM   23  O   UNK N   1      36.810  11.618  15.498  0.00  0.00    -0.307 OA
HETATM   24  H   UNK N   1      37.526  11.135  15.056  0.00  0.00     0.222 HD
ENDBRANCH  19  23
ENDBRANCH  18  19
ENDBRANCH  17  18
ENDBRANCH   6  17
TORSDOF 6
ENDMDL
MODEL 8
REMARK VINA RESULT:      -6.1     13.252     15.653
REMARK  6 active torsions:
REMARK  status: ('A' for Active; 'I' for Inactive)
REMARK    1  A    between atoms: C_12  and  N_1 
REMARK    2  A    between atoms: C_15  and  C_17 
REMARK    3  A    between atoms: O_16  and  C_17 
REMARK    4  A    between atoms: O_16  and  P_18 
REMARK    5  A    between atoms: P_18  and  O_19 
REMARK    6  A    between atoms: P_18  and  O_21 
ROOT
HETATM    1  O   UNK N   1      21.687  18.328   4.188  0.00  0.00    -0.356 OA
HETATM    2  F   UNK N   1      19.799  15.933   2.386  0.00  0.00    -0.246 F 
HETATM    3  C   UNK N   1      22.498  17.184   4.304  0.00  0.00     0.235 C 
HETATM    4  C   UNK N   1      22.080  16.283   3.162  0.00  0.00     0.094 C 
HETATM    5  C   UNK N   1      20.597  16.336   3.444  0.00  0.00     0.205 C 
HETATM    6  C   UNK N   1      20.407  17.800   3.881  0.00  0.00     0.182 C 
ENDROOT
BRANCH   3   7
HETATM    7  N   UNK N   1      23.933  17.482   4.438  0.00  0.00    -0.282 N 
HETATM    8  C   UNK N   1      24.459  18.571   3.811  0.00  0.00     0.110 A 
HETATM    9  C   UNK N   1      25.738  19.027   4.128  0.00  0.00     0.022 A 
HETATM   10  C   UNK N   1      26.469  18.351   5.109  0.00  0.00     0.256 A 
HETATM   11  C   UNK N   1      26.269  20.253   3.467  0.00  0.00     0.056 C 
HETATM   12  N   UNK N   1      25.948  17.231   5.689  0.00  0.00    -0.275 N 
HETATM   13  O   UNK N   1      27.562  18.761   5.461  0.00  0.00    -0.267 OA
HETATM   14  C   UNK N   1      24.692  16.787   5.365  0.00  0.00     0.331 A 
HETATM   15  H   UNK N   1      26.481  16.734   6.350  0.00  0.00     0.173 HD
HETATM   16  O   UNK N   1      24.234  15.819   5.944  0.00  0.00    -0.246 OA
ENDBRANCH   3   7
BRANCH   6  17
HETATM   17  C   UNK N   1      19.745  18.616   2.785  0.00  0.00     0.215 C 
BRANCH  17  18
HETATM   18  O   UNK N   1      20.640  18.851   1.742  0.00  0.00    -0.294 OA
BRANCH  18  19
HETATM   19  P   UNK N   1      21.006  20.544   1.856  0.00  0.00     0.390 P 
HETATM   20  O   UNK N   1      22.549  20.692   1.788  0.00  0.00    -0.632 OA
BRANCH  19  21
HETATM   21  O   UNK N   1      20.489  21.196   3.377  0.00  0.00    -0.307 OA
HETATM   22  H   UNK N   1      20.060  20.675   4.074  0.00  0.00     0.222 HD
ENDBRANCH  19  21
BRANCH  19  23
HETATM   23  O   UNK N   1      20.333  21.455   0.536  0.00  0.00    -0.307 OA
HETATM   24  H   UNK N   1      19.626  21.338  -0.118  0.00  0.00     0.222 HD
ENDBRANCH  19  23
ENDBRANCH  18  19
ENDBRANCH  17  18
ENDBRANCH   6  17
TORSDOF 6
ENDMDL
MODEL 9
REMARK VINA RESULT:      -6.1     17.859     20.359
REMARK  6 active torsions:
REMARK  status: ('A' for Active; 'I' for Inactive)
REMARK    1  A    between atoms: C_12  and  N_1 
REMARK    2  A    between atoms: C_15  and  C_17 
REMARK    3  A    between atoms: O_16  and  C_17 
REMARK    4  A    between atoms: O_16  and  P_18 
REMARK    5  A    between atoms: P_18  and  O_19 
REMARK    6  A    between atoms: P_18  and  O_21 
ROOT
HETATM    1  O   UNK N   1      29.127  24.857  -4.861  0.00  0.00    -0.356 OA
HETATM    2  F   UNK N   1      26.080  25.957  -3.431  0.00  0.00    -0.246 F 
HETATM    3  C   UNK N   1      29.064  24.073  -3.694  0.00  0.00     0.235 C 
HETATM    4  C   UNK N   1      27.602  24.063  -3.302  0.00  0.00     0.094 C 
HETATM    5  C   UNK N   1      27.404  25.558  -3.362  0.00  0.00     0.205 C 
HETATM    6  C   UNK N   1      28.263  25.946  -4.579  0.00  0.00     0.182 C 
ENDROOT
BRANCH   3   7
HETATM    7  N   UNK N   1      29.740  22.771  -3.813  0.00  0.00    -0.282 N 
HETATM    8  C   UNK N   1      29.692  22.090  -4.992  0.00  0.00     0.110 A 
HETATM    9  C   UNK N   1      30.530  20.999  -5.219  0.00  0.00     0.022 A 
HETATM   10  C   UNK N   1      31.431  20.623  -4.218  0.00  0.00     0.256 A 
HETATM   11  C   UNK N   1      30.496  20.304  -6.537  0.00  0.00     0.056 C 
HETATM   12  N   UNK N   1      31.429  21.284  -3.024  0.00  0.00    -0.275 N 
HETATM   13  O   UNK N   1      32.226  19.718  -4.406  0.00  0.00    -0.267 OA
HETATM   14  C   UNK N   1      30.595  22.351  -2.808  0.00  0.00     0.331 A 
HETATM   15  H   UNK N   1      32.036  20.992  -2.306  0.00  0.00     0.173 HD
HETATM   16  O   UNK N   1      30.661  22.955  -1.753  0.00  0.00    -0.246 OA
ENDBRANCH   3   7
BRANCH   6  17
HETATM   17  C   UNK N   1      27.395  26.261  -5.784  0.00  0.00     0.215 C 
BRANCH  17  18
HETATM   18  O   UNK N   1      27.665  25.374  -6.826  0.00  0.00    -0.294 OA
BRANCH  18  19
HETATM   19  P   UNK N   1      26.200  24.461  -7.010  0.00  0.00     0.390 P 
HETATM   20  O   UNK N   1      25.117  25.137  -6.128  0.00  0.00    -0.632 OA
BRANCH  19  21
HETATM   21  O   UNK N   1      26.398  22.837  -6.435  0.00  0.00    -0.307 OA
HETATM   22  H   UNK N   1      25.662  22.234  -6.247  0.00  0.00     0.222 HD
ENDBRANCH  19  21
BRANCH  19  23
HETATM   23  O   UNK N   1      25.620  24.466  -8.650  0.00  0.00    -0.307 OA
HETATM   24  H   UNK N   1      25.922  24.806  -9.506  0.00  0.00     0.222 HD
ENDBRANCH  19  23
ENDBRANCH  18  19
ENDBRANCH  17  18
ENDBRANCH   6  17
TORSDOF 6
ENDMDL
