MODEL 1
REMARK VINA RESULT:      -7.8      0.000      0.000
REMARK  5 active torsions:
REMARK  status: ('A' for Active; 'I' for Inactive)
REMARK    1  A    between atoms: C_3  and  S_11 
REMARK    2  A    between atoms: C_6  and  C_7 
REMARK       I    between atoms: C_7  and  N_9 
REMARK    3  A    between atoms: N_9  and  C_10 
REMARK    4  A    between atoms: C_10  and  C_15 
REMARK    5  A    between atoms: S_11  and  N_12 
ROOT
HETATM    1  C   UNK N   1      37.003  13.267  10.952  0.00  0.00     0.251 C 
HETATM    2  O   UNK N   1      38.188  13.131  10.696  0.00  0.00    -0.268 OA
HETATM    3  N   UNK N   1      36.438  12.410  11.850  0.00  0.00    -0.352 N 
HETATM    4  H   UNK N   1      36.984  11.646  12.147  0.00  0.00     0.163 HD
ENDROOT
BRANCH   1   5
HETATM    5  C   UNK N   1      36.249  14.357  10.259  0.00  0.00     0.032 A 
HETATM    6  C   UNK N   1      35.747  14.211   8.957  0.00  0.00     0.018 A 
HETATM    7  C   UNK N   1      35.121  15.280   8.309  0.00  0.00     0.026 A 
HETATM    8  C   UNK N   1      34.982  16.508   8.960  0.00  0.00     0.079 A 
HETATM    9  C   UNK N   1      35.464  16.663  10.262  0.00  0.00     0.026 A 
HETATM   10  C   UNK N   1      36.098  15.597  10.904  0.00  0.00     0.018 A 
BRANCH   8  11
HETATM   11  S   UNK N   1      34.252  17.903   8.113  0.00  0.00     0.256 S 
HETATM   12  O   UNK N   1      34.408  17.827   6.586  0.00  0.00    -0.201 OA
HETATM   13  O   UNK N   1      34.969  19.221   8.440  0.00  0.00    -0.201 OA
BRANCH  11  14
HETATM   14  N   UNK N   1      32.540  18.232   8.382  0.00  0.00    -0.324 N 
HETATM   15  H   UNK N   1      31.775  18.344   7.716  0.00  0.00     0.169 HD
HETATM   16  H   UNK N   1      32.272  18.326   9.362  0.00  0.00     0.169 HD
ENDBRANCH  11  14
ENDBRANCH   8  11
ENDBRANCH   1   5
BRANCH   3  17
HETATM   17  C   UNK N   1      35.109  12.527  12.402  0.00  0.00     0.168 C 
BRANCH  17  18
HETATM   18  C   UNK N   1      35.075  12.381  13.897  0.00  0.00     0.043 A 
HETATM   19  C   UNK N   1      34.583  11.214  14.513  0.00  0.00     0.169 A 
HETATM   20  C   UNK N   1      34.611  11.094  15.909  0.00  0.00     0.197 A 
HETATM   21  F   UNK N   1      34.084  10.196  13.767  0.00  0.00    -0.202 F 
HETATM   22  C   UNK N   1      35.138  12.126  16.692  0.00  0.00     0.199 A 
HETATM   23  F   UNK N   1      34.138   9.970  16.503  0.00  0.00    -0.199 F 
HETATM   24  C   UNK N   1      35.631  13.284  16.085  0.00  0.00     0.197 A 
HETATM   25  F   UNK N   1      35.179  12.000  18.043  0.00  0.00    -0.199 F 
HETATM   26  C   UNK N   1      35.597  13.414  14.692  0.00  0.00     0.169 A 
HETATM   27  F   UNK N   1      36.152  14.279  16.845  0.00  0.00    -0.199 F 
HETATM   28  F   UNK N   1      36.095  14.537  14.114  0.00  0.00    -0.202 F 
ENDBRANCH  17  18
ENDBRANCH   3  17
TORSDOF 5
ENDMDL
MODEL 2
REMARK VINA RESULT:      -7.7      0.115      2.148
REMARK  5 active torsions:
REMARK  status: ('A' for Active; 'I' for Inactive)
REMARK    1  A    between atoms: C_3  and  S_11 
REMARK    2  A    between atoms: C_6  and  C_7 
REMARK       I    between atoms: C_7  and  N_9 
REMARK    3  A    between atoms: N_9  and  C_10 
REMARK    4  A    between atoms: C_10  and  C_15 
REMARK    5  A    between atoms: S_11  and  N_12 
ROOT
HETATM    1  C   UNK N   1      37.054  13.309  10.848  0.00  0.00     0.251 C 
HETATM    2  O   UNK N   1      38.232  13.177  10.559  0.00  0.00    -0.268 OA
HETATM    3  N   UNK N   1      36.518  12.449  11.761  0.00  0.00    -0.352 N 
HETATM    4  H   UNK N   1      37.074  11.687  12.042  0.00  0.00     0.163 HD
ENDROOT
BRANCH   1   5
HETATM    5  C   UNK N   1      36.277  14.396  10.177  0.00  0.00     0.032 A 
HETATM    6  C   UNK N   1      35.797  14.275   8.865  0.00  0.00     0.018 A 
HETATM    7  C   UNK N   1      35.149  15.344   8.240  0.00  0.00     0.026 A 
HETATM    8  C   UNK N   1      34.963  16.547   8.926  0.00  0.00     0.079 A 
HETATM    9  C   UNK N   1      35.422  16.677  10.238  0.00  0.00     0.026 A 
HETATM   10  C   UNK N   1      36.080  15.611  10.857  0.00  0.00     0.018 A 
BRANCH   8  11
HETATM   11  S   UNK N   1      34.203  17.945   8.110  0.00  0.00     0.256 S 
HETATM   12  O   UNK N   1      34.323  17.886   6.579  0.00  0.00    -0.201 OA
HETATM   13  O   UNK N   1      34.918  19.266   8.433  0.00  0.00    -0.201 OA
BRANCH  11  14
HETATM   14  N   UNK N   1      32.496  18.259   8.423  0.00  0.00    -0.324 N 
HETATM   15  H   UNK N   1      31.892  19.016   8.102  0.00  0.00     0.169 HD
HETATM   16  H   UNK N   1      32.037  17.571   9.022  0.00  0.00     0.169 HD
ENDBRANCH  11  14
ENDBRANCH   8  11
ENDBRANCH   1   5
BRANCH   3  17
HETATM   17  C   UNK N   1      35.204  12.561  12.350  0.00  0.00     0.168 C 
BRANCH  17  18
HETATM   18  C   UNK N   1      35.216  12.441  13.848  0.00  0.00     0.043 A 
HETATM   19  C   UNK N   1      35.718  13.472  14.666  0.00  0.00     0.169 A 
HETATM   20  C   UNK N   1      35.669  13.346  16.061  0.00  0.00     0.197 A 
HETATM   21  F   UNK N   1      36.247  14.595  14.117  0.00  0.00    -0.202 F 
HETATM   22  C   UNK N   1      35.112  12.203  16.643  0.00  0.00     0.199 A 
HETATM   23  F   UNK N   1      36.152  14.338  16.849  0.00  0.00    -0.199 F 
HETATM   24  C   UNK N   1      34.609  11.179  15.835  0.00  0.00     0.197 A 
HETATM   25  F   UNK N   1      35.051  12.090  17.994  0.00  0.00    -0.199 F 
HETATM   26  C   UNK N   1      34.663  11.295  14.442  0.00  0.00     0.169 A 
HETATM   27  F   UNK N   1      34.059  10.077  16.402  0.00  0.00    -0.199 F 
HETATM   28  F   UNK N   1      34.156  10.301  13.669  0.00  0.00    -0.202 F 
ENDBRANCH  17  18
ENDBRANCH   3  17
TORSDOF 5
ENDMDL
MODEL 3
REMARK VINA RESULT:      -7.5      6.836      9.776
REMARK  5 active torsions:
REMARK  status: ('A' for Active; 'I' for Inactive)
REMARK    1  A    between atoms: C_3  and  S_11 
REMARK    2  A    between atoms: C_6  and  C_7 
REMARK       I    between atoms: C_7  and  N_9 
REMARK    3  A    between atoms: N_9  and  C_10 
REMARK    4  A    between atoms: C_10  and  C_15 
REMARK    5  A    between atoms: S_11  and  N_12 
ROOT
HETATM    1  C   UNK N   1      32.485  16.954   4.430  0.00  0.00     0.251 C 
HETATM    2  O   UNK N   1      33.137  17.232   3.437  0.00  0.00    -0.268 OA
HETATM    3  N   UNK N   1      31.131  16.855   4.302  0.00  0.00    -0.352 N 
HETATM    4  H   UNK N   1      30.739  17.139   3.445  0.00  0.00     0.163 HD
ENDROOT
BRANCH   1   5
HETATM    5  C   UNK N   1      33.213  16.750   5.721  0.00  0.00     0.032 A 
HETATM    6  C   UNK N   1      33.732  15.504   6.101  0.00  0.00     0.018 A 
HETATM    7  C   UNK N   1      34.332  15.331   7.352  0.00  0.00     0.026 A 
HETATM    8  C   UNK N   1      34.428  16.408   8.236  0.00  0.00     0.079 A 
HETATM    9  C   UNK N   1      33.929  17.659   7.865  0.00  0.00     0.026 A 
HETATM   10  C   UNK N   1      33.321  17.827   6.619  0.00  0.00     0.018 A 
BRANCH   8  11
HETATM   11  S   UNK N   1      35.124  16.180   9.867  0.00  0.00     0.256 S 
HETATM   12  O   UNK N   1      35.557  17.499  10.525  0.00  0.00    -0.201 OA
HETATM   13  O   UNK N   1      36.445  15.396   9.830  0.00  0.00    -0.201 OA
BRANCH  11  14
HETATM   14  N   UNK N   1      34.140  15.364  11.081  0.00  0.00    -0.324 N 
HETATM   15  H   UNK N   1      33.128  15.351  11.214  0.00  0.00     0.169 HD
HETATM   16  H   UNK N   1      34.667  14.816  11.762  0.00  0.00     0.169 HD
ENDBRANCH  11  14
ENDBRANCH   8  11
ENDBRANCH   1   5
BRANCH   3  17
HETATM   17  C   UNK N   1      30.224  16.369   5.316  0.00  0.00     0.168 C 
BRANCH  17  18
HETATM   18  C   UNK N   1      29.416  17.461   5.958  0.00  0.00     0.043 A 
HETATM   19  C   UNK N   1      28.502  18.235   5.218  0.00  0.00     0.169 A 
HETATM   20  C   UNK N   1      27.731  19.213   5.860  0.00  0.00     0.197 A 
HETATM   21  F   UNK N   1      28.355  18.043   3.882  0.00  0.00    -0.202 F 
HETATM   22  C   UNK N   1      27.857  19.413   7.238  0.00  0.00     0.199 A 
HETATM   23  F   UNK N   1      26.851  19.959   5.147  0.00  0.00    -0.199 F 
HETATM   24  C   UNK N   1      28.760  18.644   7.978  0.00  0.00     0.197 A 
HETATM   25  F   UNK N   1      27.097  20.349   7.861  0.00  0.00    -0.199 F 
HETATM   26  C   UNK N   1      29.540  17.673   7.341  0.00  0.00     0.169 A 
HETATM   27  F   UNK N   1      28.872  18.831   9.316  0.00  0.00    -0.199 F 
HETATM   28  F   UNK N   1      30.400  16.921   8.074  0.00  0.00    -0.202 F 
ENDBRANCH  17  18
ENDBRANCH   3  17
TORSDOF 5
ENDMDL
MODEL 4
REMARK VINA RESULT:      -7.4      6.938      9.904
REMARK  5 active torsions:
REMARK  status: ('A' for Active; 'I' for Inactive)
REMARK    1  A    between atoms: C_3  and  S_11 
REMARK    2  A    between atoms: C_6  and  C_7 
REMARK       I    between atoms: C_7  and  N_9 
REMARK    3  A    between atoms: N_9  and  C_10 
REMARK    4  A    between atoms: C_10  and  C_15 
REMARK    5  A    between atoms: S_11  and  N_12 
ROOT
HETATM    1  C   UNK N   1      32.470  16.984   4.360  0.00  0.00     0.251 C 
HETATM    2  O   UNK N   1      33.133  17.310   3.389  0.00  0.00    -0.268 OA
HETATM    3  N   UNK N   1      31.120  16.872   4.206  0.00  0.00    -0.352 N 
HETATM    4  H   UNK N   1      30.736  17.184   3.355  0.00  0.00     0.163 HD
ENDROOT
BRANCH   1   5
HETATM    5  C   UNK N   1      33.181  16.739   5.653  0.00  0.00     0.032 A 
HETATM    6  C   UNK N   1      33.711  15.485   5.991  0.00  0.00     0.018 A 
HETATM    7  C   UNK N   1      34.294  15.270   7.244  0.00  0.00     0.026 A 
HETATM    8  C   UNK N   1      34.361  16.313   8.171  0.00  0.00     0.079 A 
HETATM    9  C   UNK N   1      33.851  17.571   7.842  0.00  0.00     0.026 A 
HETATM   10  C   UNK N   1      33.259  17.780   6.595  0.00  0.00     0.018 A 
BRANCH   8  11
HETATM   11  S   UNK N   1      35.035  16.029   9.803  0.00  0.00     0.256 S 
HETATM   12  O   UNK N   1      35.626  17.298  10.438  0.00  0.00    -0.201 OA
HETATM   13  O   UNK N   1      36.253  15.093   9.774  0.00  0.00    -0.201 OA
BRANCH  11  14
HETATM   14  N   UNK N   1      33.968  15.356  11.035  0.00  0.00    -0.324 N 
HETATM   15  H   UNK N   1      32.963  15.465  11.172  0.00  0.00     0.169 HD
HETATM   16  H   UNK N   1      34.431  14.759  11.722  0.00  0.00     0.169 HD
ENDBRANCH  11  14
ENDBRANCH   8  11
ENDBRANCH   1   5
BRANCH   3  17
HETATM   17  C   UNK N   1      30.204  16.334   5.185  0.00  0.00     0.168 C 
BRANCH  17  18
HETATM   18  C   UNK N   1      29.349  17.385   5.836  0.00  0.00     0.043 A 
HETATM   19  C   UNK N   1      29.445  17.664   7.213  0.00  0.00     0.169 A 
HETATM   20  C   UNK N   1      28.666  18.683   7.776  0.00  0.00     0.197 A 
HETATM   21  F   UNK N   1      30.290  16.956   8.005  0.00  0.00    -0.202 F 
HETATM   22  C   UNK N   1      27.803  19.434   6.972  0.00  0.00     0.199 A 
HETATM   23  F   UNK N   1      28.758  18.952   9.103  0.00  0.00    -0.199 F 
HETATM   24  C   UNK N   1      27.708  19.163   5.604  0.00  0.00     0.197 A 
HETATM   25  F   UNK N   1      27.062  20.432   7.517  0.00  0.00    -0.199 F 
HETATM   26  C   UNK N   1      28.476  18.140   5.037  0.00  0.00     0.169 A 
HETATM   27  F   UNK N   1      26.879  19.899   4.823  0.00  0.00    -0.199 F 
HETATM   28  F   UNK N   1      28.387  17.899   3.704  0.00  0.00    -0.202 F 
ENDBRANCH  17  18
ENDBRANCH   3  17
TORSDOF 5
ENDMDL
MODEL 5
REMARK VINA RESULT:      -7.3      9.203     11.920
REMARK  5 active torsions:
REMARK  status: ('A' for Active; 'I' for Inactive)
REMARK    1  A    between atoms: C_3  and  S_11 
REMARK    2  A    between atoms: C_6  and  C_7 
REMARK       I    between atoms: C_7  and  N_9 
REMARK    3  A    between atoms: N_9  and  C_10 
REMARK    4  A    between atoms: C_10  and  C_15 
REMARK    5  A    between atoms: S_11  and  N_12 
ROOT
HETATM    1  C   UNK N   1      28.047  17.335   8.444  0.00  0.00     0.251 C 
HETATM    2  O   UNK N   1      27.617  17.671   9.535  0.00  0.00    -0.268 OA
HETATM    3  N   UNK N   1      27.161  16.860   7.523  0.00  0.00    -0.352 N 
HETATM    4  H   UNK N   1      26.241  16.691   7.829  0.00  0.00     0.163 HD
ENDROOT
BRANCH   1   5
HETATM    5  C   UNK N   1      29.517  17.459   8.193  0.00  0.00     0.032 A 
HETATM    6  C   UNK N   1      30.200  16.615   7.305  0.00  0.00     0.018 A 
HETATM    7  C   UNK N   1      31.587  16.704   7.160  0.00  0.00     0.026 A 
HETATM    8  C   UNK N   1      32.308  17.647   7.896  0.00  0.00     0.079 A 
HETATM    9  C   UNK N   1      31.640  18.504   8.773  0.00  0.00     0.026 A 
HETATM   10  C   UNK N   1      30.255  18.406   8.924  0.00  0.00     0.018 A 
BRANCH   8  11
HETATM   11  S   UNK N   1      34.091  17.718   7.774  0.00  0.00     0.256 S 
HETATM   12  O   UNK N   1      34.674  19.054   8.260  0.00  0.00    -0.201 OA
HETATM   13  O   UNK N   1      34.576  17.672   6.318  0.00  0.00    -0.201 OA
BRANCH  11  14
HETATM   14  N   UNK N   1      35.029  16.480   8.610  0.00  0.00    -0.324 N 
HETATM   15  H   UNK N   1      35.821  15.922   8.291  0.00  0.00     0.169 HD
HETATM   16  H   UNK N   1      34.731  16.292   9.568  0.00  0.00     0.169 HD
ENDBRANCH  11  14
ENDBRANCH   8  11
ENDBRANCH   1   5
BRANCH   3  17
HETATM   17  C   UNK N   1      27.456  16.583   6.136  0.00  0.00     0.168 C 
BRANCH  17  18
HETATM   18  C   UNK N   1      26.737  17.496   5.185  0.00  0.00     0.043 A 
HETATM   19  C   UNK N   1      25.369  17.332   4.896  0.00  0.00     0.169 A 
HETATM   20  C   UNK N   1      24.720  18.232   4.040  0.00  0.00     0.197 A 
HETATM   21  F   UNK N   1      24.665  16.309   5.443  0.00  0.00    -0.202 F 
HETATM   22  C   UNK N   1      25.426  19.302   3.481  0.00  0.00     0.199 A 
HETATM   23  F   UNK N   1      23.402  18.074   3.762  0.00  0.00    -0.199 F 
HETATM   24  C   UNK N   1      26.784  19.471   3.768  0.00  0.00     0.197 A 
HETATM   25  F   UNK N   1      24.792  20.182   2.665  0.00  0.00    -0.199 F 
HETATM   26  C   UNK N   1      27.439  18.571   4.614  0.00  0.00     0.169 A 
HETATM   27  F   UNK N   1      27.464  20.516   3.234  0.00  0.00    -0.199 F 
HETATM   28  F   UNK N   1      28.753  18.757   4.898  0.00  0.00    -0.202 F 
ENDBRANCH  17  18
ENDBRANCH   3  17
TORSDOF 5
ENDMDL
MODEL 6
REMARK VINA RESULT:      -7.3     13.788     15.190
REMARK  5 active torsions:
REMARK  status: ('A' for Active; 'I' for Inactive)
REMARK    1  A    between atoms: C_3  and  S_11 
REMARK    2  A    between atoms: C_6  and  C_7 
REMARK       I    between atoms: C_7  and  N_9 
REMARK    3  A    between atoms: N_9  and  C_10 
REMARK    4  A    between atoms: C_10  and  C_15 
REMARK    5  A    between atoms: S_11  and  N_12 
ROOT
HETATM    1  C   UNK N   1      20.853  16.910   7.106  0.00  0.00     0.251 C 
HETATM    2  O   UNK N   1      20.904  18.111   7.318  0.00  0.00    -0.268 OA
HETATM    3  N   UNK N   1      20.799  16.071   8.179  0.00  0.00    -0.352 N 
HETATM    4  H   UNK N   1      20.933  16.470   9.069  0.00  0.00     0.163 HD
ENDROOT
BRANCH   1   5
HETATM    5  C   UNK N   1      20.863  16.441   5.686  0.00  0.00     0.032 A 
HETATM    6  C   UNK N   1      22.052  16.280   4.958  0.00  0.00     0.018 A 
HETATM    7  C   UNK N   1      22.019  15.921   3.607  0.00  0.00     0.026 A 
HETATM    8  C   UNK N   1      20.793  15.709   2.970  0.00  0.00     0.079 A 
HETATM    9  C   UNK N   1      19.603  15.850   3.686  0.00  0.00     0.026 A 
HETATM   10  C   UNK N   1      19.638  16.220   5.033  0.00  0.00     0.018 A 
BRANCH   8  11
HETATM   11  S   UNK N   1      20.737  15.324   1.224  0.00  0.00     0.256 S 
HETATM   12  O   UNK N   1      22.078  14.808   0.680  0.00  0.00    -0.201 OA
HETATM   13  O   UNK N   1      20.504  16.573   0.361  0.00  0.00    -0.201 OA
BRANCH  11  14
HETATM   14  N   UNK N   1      19.538  14.154   0.672  0.00  0.00    -0.324 N 
HETATM   15  H   UNK N   1      18.925  13.535   1.202  0.00  0.00     0.169 HD
HETATM   16  H   UNK N   1      19.442  14.087  -0.342  0.00  0.00     0.169 HD
ENDBRANCH  11  14
ENDBRANCH   8  11
ENDBRANCH   1   5
BRANCH   3  17
HETATM   17  C   UNK N   1      20.561  14.648   8.122  0.00  0.00     0.168 C 
BRANCH  17  18
HETATM   18  C   UNK N   1      21.542  13.851   8.936  0.00  0.00     0.043 A 
HETATM   19  C   UNK N   1      22.893  13.735   8.555  0.00  0.00     0.169 A 
HETATM   20  C   UNK N   1      23.790  13.023   9.363  0.00  0.00     0.197 A 
HETATM   21  F   UNK N   1      23.341  14.310   7.410  0.00  0.00    -0.202 F 
HETATM   22  C   UNK N   1      23.349  12.439  10.555  0.00  0.00     0.199 A 
HETATM   23  F   UNK N   1      25.091  12.912   8.997  0.00  0.00    -0.199 F 
HETATM   24  C   UNK N   1      22.010  12.556  10.939  0.00  0.00     0.197 A 
HETATM   25  F   UNK N   1      24.223  11.765  11.344  0.00  0.00    -0.199 F 
HETATM   26  C   UNK N   1      21.108  13.256  10.132  0.00  0.00     0.169 A 
HETATM   27  F   UNK N   1      21.587  11.998  12.100  0.00  0.00    -0.199 F 
HETATM   28  F   UNK N   1      19.814  13.376  10.524  0.00  0.00    -0.202 F 
ENDBRANCH  17  18
ENDBRANCH   3  17
TORSDOF 5
ENDMDL
MODEL 7
REMARK VINA RESULT:      -7.2      7.216      9.357
REMARK  5 active torsions:
REMARK  status: ('A' for Active; 'I' for Inactive)
REMARK    1  A    between atoms: C_3  and  S_11 
REMARK    2  A    between atoms: C_6  and  C_7 
REMARK       I    between atoms: C_7  and  N_9 
REMARK    3  A    between atoms: N_9  and  C_10 
REMARK    4  A    between atoms: C_10  and  C_15 
REMARK    5  A    between atoms: S_11  and  N_12 
ROOT
HETATM    1  C   UNK N   1      33.621  17.860   7.795  0.00  0.00     0.251 C 
HETATM    2  O   UNK N   1      34.343  18.829   7.960  0.00  0.00    -0.268 OA
HETATM    3  N   UNK N   1      32.742  17.538   8.786  0.00  0.00    -0.352 N 
HETATM    4  H   UNK N   1      32.825  18.027   9.637  0.00  0.00     0.163 HD
ENDROOT
BRANCH   1   5
HETATM    5  C   UNK N   1      33.754  17.085   6.522  0.00  0.00     0.032 A 
HETATM    6  C   UNK N   1      33.202  17.530   5.312  0.00  0.00     0.018 A 
HETATM    7  C   UNK N   1      33.273  16.739   4.161  0.00  0.00     0.026 A 
HETATM    8  C   UNK N   1      33.908  15.496   4.205  0.00  0.00     0.079 A 
HETATM    9  C   UNK N   1      34.476  15.047   5.400  0.00  0.00     0.026 A 
HETATM   10  C   UNK N   1      34.394  15.834   6.551  0.00  0.00     0.018 A 
BRANCH   8  11
HETATM   11  S   UNK N   1      33.939  14.444   2.760  0.00  0.00     0.256 S 
HETATM   12  O   UNK N   1      34.497  15.151   1.514  0.00  0.00    -0.201 OA
HETATM   13  O   UNK N   1      32.528  14.053   2.296  0.00  0.00    -0.201 OA
BRANCH  11  14
HETATM   14  N   UNK N   1      34.827  12.924   2.859  0.00  0.00    -0.324 N 
HETATM   15  H   UNK N   1      34.524  11.967   2.675  0.00  0.00     0.169 HD
HETATM   16  H   UNK N   1      35.802  13.016   3.147  0.00  0.00     0.169 HD
ENDBRANCH  11  14
ENDBRANCH   8  11
ENDBRANCH   1   5
BRANCH   3  17
HETATM   17  C   UNK N   1      31.699  16.543   8.696  0.00  0.00     0.168 C 
BRANCH  17  18
HETATM   18  C   UNK N   1      30.464  17.041   8.000  0.00  0.00     0.043 A 
HETATM   19  C   UNK N   1      29.689  18.089   8.533  0.00  0.00     0.169 A 
HETATM   20  C   UNK N   1      28.571  18.559   7.833  0.00  0.00     0.197 A 
HETATM   21  F   UNK N   1      30.017  18.655   9.723  0.00  0.00    -0.202 F 
HETATM   22  C   UNK N   1      28.229  17.999   6.598  0.00  0.00     0.199 A 
HETATM   23  F   UNK N   1      27.824  19.569   8.346  0.00  0.00    -0.199 F 
HETATM   24  C   UNK N   1      28.997  16.961   6.063  0.00  0.00     0.197 A 
HETATM   25  F   UNK N   1      27.154  18.468   5.914  0.00  0.00    -0.199 F 
HETATM   26  C   UNK N   1      30.110  16.480   6.762  0.00  0.00     0.169 A 
HETATM   27  F   UNK N   1      28.671  16.427   4.860  0.00  0.00    -0.199 F 
HETATM   28  F   UNK N   1      30.858  15.484   6.223  0.00  0.00    -0.202 F 
ENDBRANCH  17  18
ENDBRANCH   3  17
TORSDOF 5
ENDMDL
MODEL 8
REMARK VINA RESULT:      -7.2     13.047     14.363
REMARK  5 active torsions:
REMARK  status: ('A' for Active; 'I' for Inactive)
REMARK    1  A    between atoms: C_3  and  S_11 
REMARK    2  A    between atoms: C_6  and  C_7 
REMARK       I    between atoms: C_7  and  N_9 
REMARK    3  A    between atoms: N_9  and  C_10 
REMARK    4  A    between atoms: C_10  and  C_15 
REMARK    5  A    between atoms: S_11  and  N_12 
ROOT
HETATM    1  C   UNK N   1      23.249  14.588   4.815  0.00  0.00     0.251 C 
HETATM    2  O   UNK N   1      23.858  13.936   3.984  0.00  0.00    -0.268 OA
HETATM    3  N   UNK N   1      23.092  14.055   6.060  0.00  0.00    -0.352 N 
HETATM    4  H   UNK N   1      23.368  13.118   6.186  0.00  0.00     0.163 HD
ENDROOT
BRANCH   1   5
HETATM    5  C   UNK N   1      22.706  15.922   4.410  0.00  0.00     0.032 A 
HETATM    6  C   UNK N   1      21.439  16.070   3.825  0.00  0.00     0.018 A 
HETATM    7  C   UNK N   1      20.999  17.320   3.381  0.00  0.00     0.026 A 
HETATM    8  C   UNK N   1      21.819  18.442   3.527  0.00  0.00     0.079 A 
HETATM    9  C   UNK N   1      23.077  18.312   4.122  0.00  0.00     0.026 A 
HETATM   10  C   UNK N   1      23.518  17.060   4.554  0.00  0.00     0.018 A 
BRANCH   8  11
HETATM   11  S   UNK N   1      21.298  20.031   2.895  0.00  0.00     0.256 S 
HETATM   12  O   UNK N   1      22.442  21.055   2.826  0.00  0.00    -0.201 OA
HETATM   13  O   UNK N   1      20.303  20.731   3.833  0.00  0.00    -0.201 OA
BRANCH  11  14
HETATM   14  N   UNK N   1      20.541  20.082   1.303  0.00  0.00    -0.324 N 
HETATM   15  H   UNK N   1      20.718  19.523   0.468  0.00  0.00     0.169 HD
HETATM   16  H   UNK N   1      19.808  20.785   1.200  0.00  0.00     0.169 HD
ENDBRANCH  11  14
ENDBRANCH   8  11
ENDBRANCH   1   5
BRANCH   3  17
HETATM   17  C   UNK N   1      22.558  14.747   7.210  0.00  0.00     0.168 C 
BRANCH  17  18
HETATM   18  C   UNK N   1      22.552  13.906   8.456  0.00  0.00     0.043 A 
HETATM   19  C   UNK N   1      23.742  13.381   8.997  0.00  0.00     0.169 A 
HETATM   20  C   UNK N   1      23.704  12.641  10.186  0.00  0.00     0.197 A 
HETATM   21  F   UNK N   1      24.933  13.589   8.380  0.00  0.00    -0.202 F 
HETATM   22  C   UNK N   1      22.488  12.433  10.845  0.00  0.00     0.199 A 
HETATM   23  F   UNK N   1      24.850  12.136  10.708  0.00  0.00    -0.199 F 
HETATM   24  C   UNK N   1      21.305  12.955  10.313  0.00  0.00     0.197 A 
HETATM   25  F   UNK N   1      22.456  11.730  12.005  0.00  0.00    -0.199 F 
HETATM   26  C   UNK N   1      21.335  13.687   9.121  0.00  0.00     0.169 A 
HETATM   27  F   UNK N   1      20.129  12.762  10.959  0.00  0.00    -0.199 F 
HETATM   28  F   UNK N   1      20.182  14.203   8.625  0.00  0.00    -0.202 F 
ENDBRANCH  17  18
ENDBRANCH   3  17
TORSDOF 5
ENDMDL
MODEL 9
REMARK VINA RESULT:      -7.2      4.012      6.091
REMARK  5 active torsions:
REMARK  status: ('A' for Active; 'I' for Inactive)
REMARK    1  A    between atoms: C_3  and  S_11 
REMARK    2  A    between atoms: C_6  and  C_7 
REMARK       I    between atoms: C_7  and  N_9 
REMARK    3  A    between atoms: N_9  and  C_10 
REMARK    4  A    between atoms: C_10  and  C_15 
REMARK    5  A    between atoms: S_11  and  N_12 
ROOT
HETATM    1  C   UNK N   1      34.551  18.149   8.502  0.00  0.00     0.251 C 
HETATM    2  O   UNK N   1      35.024  19.268   8.397  0.00  0.00    -0.268 OA
HETATM    3  N   UNK N   1      35.008  17.351   9.509  0.00  0.00    -0.352 N 
HETATM    4  H   UNK N   1      35.786  17.673  10.020  0.00  0.00     0.163 HD
ENDROOT
BRANCH   1   5
HETATM    5  C   UNK N   1      33.511  17.723   7.515  0.00  0.00     0.032 A 
HETATM    6  C   UNK N   1      33.812  17.479   6.167  0.00  0.00     0.018 A 
HETATM    7  C   UNK N   1      32.801  17.166   5.254  0.00  0.00     0.026 A 
HETATM    8  C   UNK N   1      31.473  17.084   5.683  0.00  0.00     0.079 A 
HETATM    9  C   UNK N   1      31.161  17.309   7.026  0.00  0.00     0.026 A 
HETATM   10  C   UNK N   1      32.172  17.633   7.933  0.00  0.00     0.018 A 
BRANCH   8  11
HETATM   11  S   UNK N   1      30.163  16.758   4.511  0.00  0.00     0.256 S 
HETATM   12  O   UNK N   1      28.949  17.683   4.694  0.00  0.00    -0.201 OA
HETATM   13  O   UNK N   1      29.537  15.370   4.710  0.00  0.00    -0.201 OA
BRANCH  11  14
HETATM   14  N   UNK N   1      30.549  16.846   2.792  0.00  0.00    -0.324 N 
HETATM   15  H   UNK N   1      30.765  16.106   2.123  0.00  0.00     0.169 HD
HETATM   16  H   UNK N   1      30.556  17.790   2.403  0.00  0.00     0.169 HD
ENDBRANCH  11  14
ENDBRANCH   8  11
ENDBRANCH   1   5
BRANCH   3  17
HETATM   17  C   UNK N   1      34.448  16.076   9.892  0.00  0.00     0.168 C 
BRANCH  17  18
HETATM   18  C   UNK N   1      35.464  14.970   9.924  0.00  0.00     0.043 A 
HETATM   19  C   UNK N   1      36.009  14.435   8.740  0.00  0.00     0.169 A 
HETATM   20  C   UNK N   1      36.989  13.436   8.809  0.00  0.00     0.197 A 
HETATM   21  F   UNK N   1      35.596  14.880   7.526  0.00  0.00    -0.202 F 
HETATM   22  C   UNK N   1      37.438  12.978  10.052  0.00  0.00     0.199 A 
HETATM   23  F   UNK N   1      37.514  12.921   7.669  0.00  0.00    -0.199 F 
HETATM   24  C   UNK N   1      36.904  13.509  11.229  0.00  0.00     0.197 A 
HETATM   25  F   UNK N   1      38.400  12.022  10.115  0.00  0.00    -0.199 F 
HETATM   26  C   UNK N   1      35.918  14.499  11.167  0.00  0.00     0.169 A 
HETATM   27  F   UNK N   1      37.349  13.071  12.433  0.00  0.00    -0.199 F 
HETATM   28  F   UNK N   1      35.419  15.018  12.318  0.00  0.00    -0.202 F 
ENDBRANCH  17  18
ENDBRANCH   3  17
TORSDOF 5
ENDMDL
