REMARK  5 active torsions:
REMARK  status: ('A' for Active; 'I' for Inactive)
REMARK    1  A    between atoms: C_3  and  S_11 
REMARK    2  A    between atoms: C_6  and  C_7 
REMARK       I    between atoms: C_7  and  N_9 
REMARK    3  A    between atoms: N_9  and  C_10 
REMARK    4  A    between atoms: C_10  and  C_15 
REMARK    5  A    between atoms: S_11  and  N_12 
ROOT
HETATM    1  C   UNK N   1      -2.123  -1.298   0.548  0.00  0.00     0.251 C 
HETATM    2  O   UNK N   1      -2.984  -2.112   0.258  0.00  0.00    -0.268 OA
HETATM    3  N   UNK N   1      -2.522  -0.058   0.951  0.00  0.00    -0.352 N 
HETATM    4  H   UNK N   1      -3.479   0.157   0.864  0.00  0.00     0.163 HD
ENDROOT
BRANCH   1   5
HETATM    5  C   UNK N   1      -0.690  -1.711   0.433  0.00  0.00     0.032 A 
HETATM    6  C   UNK N   1       0.365  -0.790   0.514  0.00  0.00     0.018 A 
HETATM    7  C   UNK N   1       1.687  -1.199   0.317  0.00  0.00     0.026 A 
HETATM    8  C   UNK N   1       1.971  -2.540   0.046  0.00  0.00     0.079 A 
HETATM    9  C   UNK N   1       0.932  -3.471  -0.022  0.00  0.00     0.026 A 
HETATM   10  C   UNK N   1      -0.389  -3.058   0.164  0.00  0.00     0.018 A 
BRANCH   8  11
HETATM   11  S   UNK N   1       3.650  -3.060  -0.282  0.00  0.00     0.256 S 
HETATM   12  O   UNK N   1       4.670  -1.919  -0.145  0.00  0.00    -0.201 OA
HETATM   13  O   UNK N   1       3.850  -3.490  -1.743  0.00  0.00    -0.201 OA
BRANCH  11  14
HETATM   14  N   UNK N   1       4.311  -4.382   0.680  0.00  0.00    -0.324 N 
HETATM   15  H   UNK N   1       3.840  -5.096   1.236  0.00  0.00     0.169 HD
HETATM   16  H   UNK N   1       5.330  -4.443   0.680  0.00  0.00     0.169 HD
ENDBRANCH  11  14
ENDBRANCH   8  11
ENDBRANCH   1   5
BRANCH   3  17
HETATM   17  C   UNK N   1      -1.662   0.967   1.495  0.00  0.00     0.168 C 
BRANCH  17  18
HETATM   18  C   UNK N   1      -1.642   2.222   0.669  0.00  0.00     0.043 A 
HETATM   19  C   UNK N   1      -2.831   2.825   0.215  0.00  0.00     0.169 A 
HETATM   20  C   UNK N   1      -2.776   4.021  -0.513  0.00  0.00     0.197 A 
HETATM   21  F   UNK N   1      -4.037   2.261   0.479  0.00  0.00    -0.202 F 
HETATM   22  C   UNK N   1      -1.543   4.625  -0.779  0.00  0.00     0.199 A 
HETATM   23  F   UNK N   1      -3.921   4.602  -0.950  0.00  0.00    -0.199 F 
HETATM   24  C   UNK N   1      -0.361   4.032  -0.327  0.00  0.00     0.197 A 
HETATM   25  F   UNK N   1      -1.494   5.792  -1.470  0.00  0.00    -0.199 F 
HETATM   26  C   UNK N   1      -0.408   2.833   0.392  0.00  0.00     0.169 A 
HETATM   27  F   UNK N   1       0.833   4.625  -0.576  0.00  0.00    -0.199 F 
HETATM   28  F   UNK N   1       0.746   2.277   0.840  0.00  0.00    -0.202 F 
ENDBRANCH  17  18
ENDBRANCH   3  17
TORSDOF 5
