MODEL 1
REMARK VINA RESULT:      -6.1      0.000      0.000
REMARK  6 active torsions:
REMARK  status: ('A' for Active; 'I' for Inactive)
REMARK       I    between atoms: C_2  and  N_3 
REMARK    1  A    between atoms: C_2  and  O_4 
REMARK    2  A    between atoms: O_4  and  N_5 
REMARK    3  A    between atoms: C_7  and  C_9 
REMARK    4  A    between atoms: C_12  and  O_13 
REMARK    5  A    between atoms: C_15  and  O_17 
REMARK    6  A    between atoms: O_17  and  C_18 
ROOT
HETATM    1  C   UNK N   1      25.910  25.810  -6.682  0.00  0.00    -0.009 A 
HETATM    2  C   UNK N   1      25.018  26.735  -6.121  0.00  0.00     0.016 A 
HETATM    3  C   UNK N   1      25.321  27.365  -4.909  0.00  0.00     0.040 A 
HETATM    4  C   UNK N   1      26.517  27.094  -4.230  0.00  0.00     0.101 A 
HETATM    5  C   UNK N   1      27.424  26.154  -4.788  0.00  0.00     0.103 A 
HETATM    6  C   UNK N   1      27.094  25.532  -6.001  0.00  0.00     0.053 A 
ENDROOT
BRANCH   1   7
HETATM    7  C   UNK N   1      25.658  25.117  -7.986  0.00  0.00     0.039 C 
HETATM    8  N   UNK N   1      25.318  23.876  -8.086  0.00  0.00    -0.260 N 
ATOM      9  HN  UNK N   1      25.158  23.491  -9.018  1.00  0.00     0.194 HD
HETATM   10  C   UNK N   1      25.798  25.897  -9.255  0.00  0.00     0.071 C 
BRANCH   8  11
HETATM   11  O   UNK N   1      25.166  23.082  -7.046  0.00  0.00    -0.181 OA
BRANCH  11  12
HETATM   12  C   UNK N   1      24.833  21.782  -7.213  0.00  0.00     0.380 C 
HETATM   13  O   UNK N   1      25.565  21.028  -7.837  0.00  0.00    -0.237 OA
HETATM   14  N   UNK N   1      23.687  21.312  -6.687  0.00  0.00    -0.344 N 
HETATM   15  H   UNK N   1      23.084  21.919  -6.200  0.00  0.00     0.161 HD
HETATM   16  H   UNK N   1      23.451  20.362  -6.790  0.00  0.00     0.161 HD
ENDBRANCH  11  12
ENDBRANCH   8  11
ENDBRANCH   1   7
BRANCH   5  17
HETATM   17  O   UNK N   1      28.599  25.851  -4.171  0.00  0.00    -0.343 OA
BRANCH  17  18
HETATM   18  C   UNK N   1      29.004  24.558  -3.879  0.00  0.00     0.129 C 
HETATM   19  C   UNK N   1      28.156  23.946  -2.795  0.00  0.00     0.032 C 
HETATM   20  C   UNK N   1      29.011  22.813  -2.253  0.00  0.00     0.002 C 
HETATM   21  C   UNK N   1      30.449  23.127  -2.650  0.00  0.00     0.002 C 
HETATM   22  C   UNK N   1      30.404  24.487  -3.312  0.00  0.00     0.032 C 
ENDBRANCH  17  18
ENDBRANCH   5  17
BRANCH   4  23
HETATM   23  O   UNK N   1      26.740  27.747  -3.059  0.00  0.00    -0.353 OA
HETATM   24  C   UNK N   1      27.096  29.071  -2.937  0.00  0.00     0.210 C 
ENDBRANCH   4  23
TORSDOF 6
ENDMDL
MODEL 2
REMARK VINA RESULT:      -6.1     16.129     18.423
REMARK  6 active torsions:
REMARK  status: ('A' for Active; 'I' for Inactive)
REMARK       I    between atoms: C_2  and  N_3 
REMARK    1  A    between atoms: C_2  and  O_4 
REMARK    2  A    between atoms: O_4  and  N_5 
REMARK    3  A    between atoms: C_7  and  C_9 
REMARK    4  A    between atoms: C_12  and  O_13 
REMARK    5  A    between atoms: C_15  and  O_17 
REMARK    6  A    between atoms: O_17  and  C_18 
ROOT
HETATM    1  C   UNK N   1      21.154  15.758   6.551  0.00  0.00    -0.009 A 
HETATM    2  C   UNK N   1      20.999  15.062   5.344  0.00  0.00     0.016 A 
HETATM    3  C   UNK N   1      20.798  13.677   5.346  0.00  0.00     0.040 A 
HETATM    4  C   UNK N   1      20.743  12.955   6.546  0.00  0.00     0.101 A 
HETATM    5  C   UNK N   1      20.905  13.651   7.774  0.00  0.00     0.103 A 
HETATM    6  C   UNK N   1      21.110  15.038   7.743  0.00  0.00     0.053 A 
ENDROOT
BRANCH   1   7
HETATM    7  C   UNK N   1      21.349  17.242   6.621  0.00  0.00     0.039 C 
HETATM    8  N   UNK N   1      20.685  18.017   7.412  0.00  0.00    -0.260 N 
ATOM      9  HN  UNK N   1      20.893  19.016   7.397  1.00  0.00     0.194 HD
HETATM   10  C   UNK N   1      22.375  17.877   5.736  0.00  0.00     0.071 C 
BRANCH   8  11
HETATM   11  O   UNK N   1      19.754  17.583   8.236  0.00  0.00    -0.181 OA
BRANCH  11  12
HETATM   12  C   UNK N   1      19.347  18.341   9.279  0.00  0.00     0.380 C 
HETATM   13  O   UNK N   1      20.091  19.181   9.765  0.00  0.00    -0.237 OA
HETATM   14  N   UNK N   1      18.112  18.172   9.787  0.00  0.00    -0.344 N 
HETATM   15  H   UNK N   1      17.516  17.484   9.412  0.00  0.00     0.161 HD
HETATM   16  H   UNK N   1      17.805  18.735  10.533  0.00  0.00     0.161 HD
ENDBRANCH  11  12
ENDBRANCH   8  11
ENDBRANCH   1   7
BRANCH   5  17
HETATM   17  O   UNK N   1      20.862  13.001   8.968  0.00  0.00    -0.343 OA
BRANCH  17  18
HETATM   18  C   UNK N   1      21.881  13.048   9.907  0.00  0.00     0.129 C 
HETATM   19  C   UNK N   1      23.157  12.459   9.366  0.00  0.00     0.032 C 
HETATM   20  C   UNK N   1      23.961  12.115  10.609  0.00  0.00     0.002 C 
HETATM   21  C   UNK N   1      22.964  12.026  11.759  0.00  0.00     0.002 C 
HETATM   22  C   UNK N   1      21.598  12.208  11.133  0.00  0.00     0.032 C 
ENDBRANCH  17  18
ENDBRANCH   5  17
BRANCH   4  23
HETATM   23  O   UNK N   1      20.544  11.612   6.466  0.00  0.00    -0.353 OA
HETATM   24  C   UNK N   1      21.212  10.754   5.624  0.00  0.00     0.210 C 
ENDBRANCH   4  23
TORSDOF 6
ENDMDL
MODEL 3
REMARK VINA RESULT:      -6.0     11.952     15.161
REMARK  6 active torsions:
REMARK  status: ('A' for Active; 'I' for Inactive)
REMARK       I    between atoms: C_2  and  N_3 
REMARK    1  A    between atoms: C_2  and  O_4 
REMARK    2  A    between atoms: O_4  and  N_5 
REMARK    3  A    between atoms: C_7  and  C_9 
REMARK    4  A    between atoms: C_12  and  O_13 
REMARK    5  A    between atoms: C_15  and  O_17 
REMARK    6  A    between atoms: O_17  and  C_18 
ROOT
HETATM    1  C   UNK N   1      29.569  17.927   7.603  0.00  0.00    -0.009 A 
HETATM    2  C   UNK N   1      28.457  18.776   7.529  0.00  0.00     0.016 A 
HETATM    3  C   UNK N   1      27.853  19.047   6.296  0.00  0.00     0.040 A 
HETATM    4  C   UNK N   1      28.339  18.477   5.111  0.00  0.00     0.101 A 
HETATM    5  C   UNK N   1      29.469  17.619   5.176  0.00  0.00     0.103 A 
HETATM    6  C   UNK N   1      30.059  17.369   6.423  0.00  0.00     0.053 A 
ENDROOT
BRANCH   1   7
HETATM    7  C   UNK N   1      30.249  17.577   8.892  0.00  0.00     0.039 C 
HETATM    8  N   UNK N   1      31.523  17.671   9.081  0.00  0.00    -0.260 N 
ATOM      9  HN  UNK N   1      31.895  17.420   9.997  1.00  0.00     0.194 HD
HETATM   10  C   UNK N   1      29.416  17.097  10.039  0.00  0.00     0.071 C 
BRANCH   8  11
HETATM   11  O   UNK N   1      32.363  18.077   8.152  0.00  0.00    -0.181 OA
BRANCH  11  12
HETATM   12  C   UNK N   1      33.697  17.919   8.311  0.00  0.00     0.380 C 
HETATM   13  O   UNK N   1      34.474  18.274   7.437  0.00  0.00    -0.237 OA
HETATM   14  N   UNK N   1      34.174  17.367   9.442  0.00  0.00    -0.344 N 
HETATM   15  H   UNK N   1      33.552  17.062  10.142  0.00  0.00     0.161 HD
HETATM   16  H   UNK N   1      35.145  17.269   9.570  0.00  0.00     0.161 HD
ENDBRANCH  11  12
ENDBRANCH   8  11
ENDBRANCH   1   7
BRANCH   5  17
HETATM   17  O   UNK N   1      29.983  17.039   4.057  0.00  0.00    -0.343 OA
BRANCH  17  18
HETATM   18  C   UNK N   1      31.192  16.362   4.027  0.00  0.00     0.129 C 
HETATM   19  C   UNK N   1      32.239  17.136   3.271  0.00  0.00     0.032 C 
HETATM   20  C   UNK N   1      33.272  16.087   2.892  0.00  0.00     0.002 C 
HETATM   21  C   UNK N   1      32.567  14.738   2.970  0.00  0.00     0.002 C 
HETATM   22  C   UNK N   1      31.119  15.048   3.282  0.00  0.00     0.032 C 
ENDBRANCH  17  18
ENDBRANCH   5  17
BRANCH   4  23
HETATM   23  O   UNK N   1      27.697  18.787   3.953  0.00  0.00    -0.353 OA
HETATM   24  C   UNK N   1      27.026  19.961   3.700  0.00  0.00     0.210 C 
ENDBRANCH   4  23
TORSDOF 6
ENDMDL
MODEL 4
REMARK VINA RESULT:      -6.0      3.060      5.946
REMARK  6 active torsions:
REMARK  status: ('A' for Active; 'I' for Inactive)
REMARK       I    between atoms: C_2  and  N_3 
REMARK    1  A    between atoms: C_2  and  O_4 
REMARK    2  A    between atoms: O_4  and  N_5 
REMARK    3  A    between atoms: C_7  and  C_9 
REMARK    4  A    between atoms: C_12  and  O_13 
REMARK    5  A    between atoms: C_15  and  O_17 
REMARK    6  A    between atoms: O_17  and  C_18 
ROOT
HETATM    1  C   UNK N   1      29.116  23.129  -5.953  0.00  0.00    -0.009 A 
HETATM    2  C   UNK N   1      28.744  22.119  -6.851  0.00  0.00     0.016 A 
HETATM    3  C   UNK N   1      27.426  22.031  -7.312  0.00  0.00     0.040 A 
HETATM    4  C   UNK N   1      26.450  22.946  -6.894  0.00  0.00     0.101 A 
HETATM    5  C   UNK N   1      26.816  23.969  -5.980  0.00  0.00     0.103 A 
HETATM    6  C   UNK N   1      28.142  24.032  -5.529  0.00  0.00     0.053 A 
ENDROOT
BRANCH   1   7
HETATM    7  C   UNK N   1      30.513  23.293  -5.438  0.00  0.00     0.039 C 
HETATM    8  N   UNK N   1      30.914  22.851  -4.293  0.00  0.00    -0.260 N 
ATOM      9  HN  UNK N   1      31.888  23.002  -4.030  1.00  0.00     0.194 HD
HETATM   10  C   UNK N   1      31.517  24.002  -6.291  0.00  0.00     0.071 C 
BRANCH   8  11
HETATM   11  O   UNK N   1      30.128  22.215  -3.449  0.00  0.00    -0.181 OA
BRANCH  11  12
HETATM   12  C   UNK N   1      29.759  22.790  -2.282  0.00  0.00     0.380 C 
HETATM   13  O   UNK N   1      30.583  22.999  -1.404  0.00  0.00    -0.237 OA
HETATM   14  N   UNK N   1      28.473  23.136  -2.085  0.00  0.00    -0.344 N 
HETATM   15  H   UNK N   1      27.802  22.952  -2.781  0.00  0.00     0.161 HD
HETATM   16  H   UNK N   1      28.204  23.573  -1.245  0.00  0.00     0.161 HD
ENDBRANCH  11  12
ENDBRANCH   8  11
ENDBRANCH   1   7
BRANCH   5  17
HETATM   17  O   UNK N   1      25.909  24.883  -5.539  0.00  0.00    -0.343 OA
BRANCH  17  18
HETATM   18  C   UNK N   1      26.252  26.132  -5.046  0.00  0.00     0.129 C 
HETATM   19  C   UNK N   1      26.353  26.123  -3.544  0.00  0.00     0.032 C 
HETATM   20  C   UNK N   1      26.212  27.586  -3.155  0.00  0.00     0.002 C 
HETATM   21  C   UNK N   1      25.538  28.283  -4.331  0.00  0.00     0.002 C 
HETATM   22  C   UNK N   1      25.205  27.189  -5.322  0.00  0.00     0.032 C 
ENDBRANCH  17  18
ENDBRANCH   5  17
BRANCH   4  23
HETATM   23  O   UNK N   1      25.192  22.796  -7.388  0.00  0.00    -0.353 OA
HETATM   24  C   UNK N   1      24.647  21.617  -7.844  0.00  0.00     0.210 C 
ENDBRANCH   4  23
TORSDOF 6
ENDMDL
MODEL 5
REMARK VINA RESULT:      -5.9     12.934     14.938
REMARK  6 active torsions:
REMARK  status: ('A' for Active; 'I' for Inactive)
REMARK       I    between atoms: C_2  and  N_3 
REMARK    1  A    between atoms: C_2  and  O_4 
REMARK    2  A    between atoms: O_4  and  N_5 
REMARK    3  A    between atoms: C_7  and  C_9 
REMARK    4  A    between atoms: C_12  and  O_13 
REMARK    5  A    between atoms: C_15  and  O_17 
REMARK    6  A    between atoms: O_17  and  C_18 
ROOT
HETATM    1  C   UNK N   1      21.043  16.568   6.328  0.00  0.00    -0.009 A 
HETATM    2  C   UNK N   1      20.093  16.182   5.373  0.00  0.00     0.016 A 
HETATM    3  C   UNK N   1      19.993  16.865   4.156  0.00  0.00     0.040 A 
HETATM    4  C   UNK N   1      20.838  17.944   3.860  0.00  0.00     0.101 A 
HETATM    5  C   UNK N   1      21.800  18.347   4.824  0.00  0.00     0.103 A 
HETATM    6  C   UNK N   1      21.875  17.648   6.038  0.00  0.00     0.053 A 
ENDROOT
BRANCH   1   7
HETATM    7  C   UNK N   1      21.218  15.866   7.640  0.00  0.00     0.039 C 
HETATM    8  N   UNK N   1      20.724  16.292   8.754  0.00  0.00    -0.260 N 
ATOM      9  HN  UNK N   1      20.887  15.742   9.597  1.00  0.00     0.194 HD
HETATM   10  C   UNK N   1      22.000  14.591   7.677  0.00  0.00     0.071 C 
BRANCH   8  11
HETATM   11  O   UNK N   1      20.020  17.401   8.856  0.00  0.00    -0.181 OA
BRANCH  11  12
HETATM   12  C   UNK N   1      18.683  17.354   9.048  0.00  0.00     0.380 C 
HETATM   13  O   UNK N   1      18.008  16.485   8.515  0.00  0.00    -0.237 OA
HETATM   14  N   UNK N   1      18.087  18.271   9.832  0.00  0.00    -0.344 N 
HETATM   15  H   UNK N   1      18.623  18.985  10.248  0.00  0.00     0.161 HD
HETATM   16  H   UNK N   1      17.117  18.229   9.990  0.00  0.00     0.161 HD
ENDBRANCH  11  12
ENDBRANCH   8  11
ENDBRANCH   1   7
BRANCH   5  17
HETATM   17  O   UNK N   1      22.644  19.388   4.591  0.00  0.00    -0.343 OA
BRANCH  17  18
HETATM   18  C   UNK N   1      23.764  19.305   3.780  0.00  0.00     0.129 C 
HETATM   19  C   UNK N   1      25.023  19.146   4.591  0.00  0.00     0.032 C 
HETATM   20  C   UNK N   1      26.130  19.586   3.646  0.00  0.00     0.002 C 
HETATM   21  C   UNK N   1      25.467  20.439   2.571  0.00  0.00     0.002 C 
HETATM   22  C   UNK N   1      24.017  20.565   2.982  0.00  0.00     0.032 C 
ENDBRANCH  17  18
ENDBRANCH   5  17
BRANCH   4  23
HETATM   23  O   UNK N   1      20.681  18.557   2.656  0.00  0.00    -0.353 OA
HETATM   24  C   UNK N   1      19.928  19.685   2.425  0.00  0.00     0.210 C 
ENDBRANCH   4  23
TORSDOF 6
ENDMDL
MODEL 6
REMARK VINA RESULT:      -5.9     15.714     17.928
REMARK  6 active torsions:
REMARK  status: ('A' for Active; 'I' for Inactive)
REMARK       I    between atoms: C_2  and  N_3 
REMARK    1  A    between atoms: C_2  and  O_4 
REMARK    2  A    between atoms: O_4  and  N_5 
REMARK    3  A    between atoms: C_7  and  C_9 
REMARK    4  A    between atoms: C_12  and  O_13 
REMARK    5  A    between atoms: C_15  and  O_17 
REMARK    6  A    between atoms: O_17  and  C_18 
ROOT
HETATM    1  C   UNK N   1      21.214  15.646   6.654  0.00  0.00    -0.009 A 
HETATM    2  C   UNK N   1      22.234  16.356   6.005  0.00  0.00     0.016 A 
HETATM    3  C   UNK N   1      23.567  15.945   6.123  0.00  0.00     0.040 A 
HETATM    4  C   UNK N   1      23.914  14.820   6.883  0.00  0.00     0.101 A 
HETATM    5  C   UNK N   1      22.887  14.098   7.548  0.00  0.00     0.103 A 
HETATM    6  C   UNK N   1      21.561  14.534   7.418  0.00  0.00     0.053 A 
ENDROOT
BRANCH   1   7
HETATM    7  C   UNK N   1      19.766  16.017   6.552  0.00  0.00     0.039 C 
HETATM    8  N   UNK N   1      19.111  16.620   7.487  0.00  0.00    -0.260 N 
ATOM      9  HN  UNK N   1      18.128  16.841   7.324  1.00  0.00     0.194 HD
HETATM   10  C   UNK N   1      19.023  15.684   5.296  0.00  0.00     0.071 C 
BRANCH   8  11
HETATM   11  O   UNK N   1      19.648  16.964   8.639  0.00  0.00    -0.181 OA
BRANCH  11  12
HETATM   12  C   UNK N   1      19.261  18.095   9.271  0.00  0.00     0.380 C 
HETATM   13  O   UNK N   1      20.039  19.028   9.407  0.00  0.00    -0.237 OA
HETATM   14  N   UNK N   1      18.009  18.196   9.754  0.00  0.00    -0.344 N 
HETATM   15  H   UNK N   1      17.384  17.440   9.664  0.00  0.00     0.161 HD
HETATM   16  H   UNK N   1      17.717  19.025  10.197  0.00  0.00     0.161 HD
ENDBRANCH  11  12
ENDBRANCH   8  11
ENDBRANCH   1   7
BRANCH   5  17
HETATM   17  O   UNK N   1      23.167  12.999   8.300  0.00  0.00    -0.343 OA
BRANCH  17  18
HETATM   18  C   UNK N   1      23.265  13.017   9.682  0.00  0.00     0.129 C 
HETATM   19  C   UNK N   1      24.565  12.419  10.151  0.00  0.00     0.032 C 
HETATM   20  C   UNK N   1      24.298  12.044  11.600  0.00  0.00     0.002 C 
HETATM   21  C   UNK N   1      22.784  11.952  11.752  0.00  0.00     0.002 C 
HETATM   22  C   UNK N   1      22.218  12.164  10.364  0.00  0.00     0.032 C 
ENDBRANCH  17  18
ENDBRANCH   5  17
BRANCH   4  23
HETATM   23  O   UNK N   1      25.230  14.484   6.947  0.00  0.00    -0.353 OA
HETATM   24  C   UNK N   1      26.276  15.256   6.496  0.00  0.00     0.210 C 
ENDBRANCH   4  23
TORSDOF 6
ENDMDL
MODEL 7
REMARK VINA RESULT:      -5.9     13.094     15.029
REMARK  6 active torsions:
REMARK  status: ('A' for Active; 'I' for Inactive)
REMARK       I    between atoms: C_2  and  N_3 
REMARK    1  A    between atoms: C_2  and  O_4 
REMARK    2  A    between atoms: O_4  and  N_5 
REMARK    3  A    between atoms: C_7  and  C_9 
REMARK    4  A    between atoms: C_12  and  O_13 
REMARK    5  A    between atoms: C_15  and  O_17 
REMARK    6  A    between atoms: O_17  and  C_18 
ROOT
HETATM    1  C   UNK N   1      29.288  17.374   7.023  0.00  0.00    -0.009 A 
HETATM    2  C   UNK N   1      29.715  17.419   8.358  0.00  0.00     0.016 A 
HETATM    3  C   UNK N   1      31.080  17.376   8.666  0.00  0.00     0.040 A 
HETATM    4  C   UNK N   1      32.048  17.291   7.656  0.00  0.00     0.101 A 
HETATM    5  C   UNK N   1      31.624  17.238   6.301  0.00  0.00     0.103 A 
HETATM    6  C   UNK N   1      30.251  17.277   6.020  0.00  0.00     0.053 A 
ENDROOT
BRANCH   1   7
HETATM    7  C   UNK N   1      27.846  17.439   6.623  0.00  0.00     0.039 C 
HETATM    8  N   UNK N   1      27.173  18.537   6.535  0.00  0.00    -0.260 N 
ATOM      9  HN  UNK N   1      26.197  18.485   6.245  1.00  0.00     0.194 HD
HETATM   10  C   UNK N   1      27.130  16.166   6.294  0.00  0.00     0.071 C 
BRANCH   8  11
HETATM   11  O   UNK N   1      27.686  19.721   6.801  0.00  0.00    -0.181 OA
BRANCH  11  12
HETATM   12  C   UNK N   1      26.894  20.815   6.874  0.00  0.00     0.380 C 
HETATM   13  O   UNK N   1      26.947  21.680   6.013  0.00  0.00    -0.237 OA
HETATM   14  N   UNK N   1      26.039  20.953   7.905  0.00  0.00    -0.344 N 
HETATM   15  H   UNK N   1      26.005  20.269   8.612  0.00  0.00     0.161 HD
HETATM   16  H   UNK N   1      25.447  21.738   7.952  0.00  0.00     0.161 HD
ENDBRANCH  11  12
ENDBRANCH   8  11
ENDBRANCH   1   7
BRANCH   5  17
HETATM   17  O   UNK N   1      32.520  17.153   5.281  0.00  0.00    -0.343 OA
BRANCH  17  18
HETATM   18  C   UNK N   1      32.799  15.981   4.597  0.00  0.00     0.129 C 
HETATM   19  C   UNK N   1      34.057  15.330   5.109  0.00  0.00     0.032 C 
HETATM   20  C   UNK N   1      34.487  14.414   3.974  0.00  0.00     0.002 C 
HETATM   21  C   UNK N   1      33.805  14.935   2.715  0.00  0.00     0.002 C 
HETATM   22  C   UNK N   1      33.090  16.202   3.130  0.00  0.00     0.032 C 
ENDBRANCH  17  18
ENDBRANCH   5  17
BRANCH   4  23
HETATM   23  O   UNK N   1      33.354  17.255   8.035  0.00  0.00    -0.353 OA
HETATM   24  C   UNK N   1      34.209  18.332   8.061  0.00  0.00     0.210 C 
ENDBRANCH   4  23
TORSDOF 6
ENDMDL
MODEL 8
REMARK VINA RESULT:      -5.9     10.452     12.281
REMARK  6 active torsions:
REMARK  status: ('A' for Active; 'I' for Inactive)
REMARK       I    between atoms: C_2  and  N_3 
REMARK    1  A    between atoms: C_2  and  O_4 
REMARK    2  A    between atoms: O_4  and  N_5 
REMARK    3  A    between atoms: C_7  and  C_9 
REMARK    4  A    between atoms: C_12  and  O_13 
REMARK    5  A    between atoms: C_15  and  O_17 
REMARK    6  A    between atoms: O_17  and  C_18 
ROOT
HETATM    1  C   UNK N   1      23.178  17.842   4.228  0.00  0.00    -0.009 A 
HETATM    2  C   UNK N   1      23.384  16.479   3.977  0.00  0.00     0.016 A 
HETATM    3  C   UNK N   1      24.635  16.018   3.550  0.00  0.00     0.040 A 
HETATM    4  C   UNK N   1      25.708  16.902   3.366  0.00  0.00     0.101 A 
HETATM    5  C   UNK N   1      25.506  18.286   3.612  0.00  0.00     0.103 A 
HETATM    6  C   UNK N   1      24.242  18.722   4.034  0.00  0.00     0.053 A 
ENDROOT
BRANCH   1   7
HETATM    7  C   UNK N   1      21.873  18.398   4.709  0.00  0.00     0.039 C 
HETATM    8  N   UNK N   1      21.022  18.998   3.946  0.00  0.00    -0.260 N 
ATOM      9  HN  UNK N   1      20.153  19.336   4.361  1.00  0.00     0.194 HD
HETATM   10  C   UNK N   1      21.515  18.250   6.155  0.00  0.00     0.071 C 
BRANCH   8  11
HETATM   11  O   UNK N   1      21.220  19.195   2.658  0.00  0.00    -0.181 OA
BRANCH  11  12
HETATM   12  C   UNK N   1      21.270  20.448   2.152  0.00  0.00     0.380 C 
HETATM   13  O   UNK N   1      21.989  21.295   2.659  0.00  0.00    -0.237 OA
HETATM   14  N   UNK N   1      20.523  20.765   1.078  0.00  0.00    -0.344 N 
HETATM   15  H   UNK N   1      19.927  20.092   0.676  0.00  0.00     0.161 HD
HETATM   16  H   UNK N   1      20.572  21.670   0.694  0.00  0.00     0.161 HD
ENDBRANCH  11  12
ENDBRANCH   8  11
ENDBRANCH   1   7
BRANCH   5  17
HETATM   17  O   UNK N   1      26.511  19.189   3.448  0.00  0.00    -0.343 OA
BRANCH  17  18
HETATM   18  C   UNK N   1      27.311  19.647   4.483  0.00  0.00     0.129 C 
HETATM   19  C   UNK N   1      27.316  18.687   5.643  0.00  0.00     0.032 C 
HETATM   20  C   UNK N   1      27.769  19.533   6.821  0.00  0.00     0.002 C 
HETATM   21  C   UNK N   1      27.508  20.985   6.438  0.00  0.00     0.002 C 
HETATM   22  C   UNK N   1      26.809  20.936   5.096  0.00  0.00     0.032 C 
ENDBRANCH  17  18
ENDBRANCH   5  17
BRANCH   4  23
HETATM   23  O   UNK N   1      26.892  16.378   2.950  0.00  0.00    -0.353 OA
HETATM   24  C   UNK N   1      27.037  15.300   2.107  0.00  0.00     0.210 C 
ENDBRANCH   4  23
TORSDOF 6
ENDMDL
MODEL 9
REMARK VINA RESULT:      -5.9     19.143     21.466
REMARK  6 active torsions:
REMARK  status: ('A' for Active; 'I' for Inactive)
REMARK       I    between atoms: C_2  and  N_3 
REMARK    1  A    between atoms: C_2  and  O_4 
REMARK    2  A    between atoms: O_4  and  N_5 
REMARK    3  A    between atoms: C_7  and  C_9 
REMARK    4  A    between atoms: C_12  and  O_13 
REMARK    5  A    between atoms: C_15  and  O_17 
REMARK    6  A    between atoms: O_17  and  C_18 
ROOT
HETATM    1  C   UNK N   1      43.755  21.380   3.938  0.00  0.00    -0.009 A 
HETATM    2  C   UNK N   1      42.624  20.644   3.555  0.00  0.00     0.016 A 
HETATM    3  C   UNK N   1      42.767  19.404   2.923  0.00  0.00     0.040 A 
HETATM    4  C   UNK N   1      44.035  18.866   2.661  0.00  0.00     0.101 A 
HETATM    5  C   UNK N   1      45.186  19.607   3.041  0.00  0.00     0.103 A 
HETATM    6  C   UNK N   1      45.015  20.850   3.667  0.00  0.00     0.053 A 
ENDROOT
BRANCH   1   7
HETATM    7  C   UNK N   1      43.673  22.701   4.638  0.00  0.00     0.039 C 
HETATM    8  N   UNK N   1      43.729  23.840   4.032  0.00  0.00    -0.260 N 
ATOM      9  HN  UNK N   1      43.656  24.690   4.592  1.00  0.00     0.194 HD
HETATM   10  C   UNK N   1      43.508  22.721   6.125  0.00  0.00     0.071 C 
BRANCH   8  11
HETATM   11  O   UNK N   1      43.876  23.959   2.729  0.00  0.00    -0.181 OA
BRANCH  11  12
HETATM   12  C   UNK N   1      45.020  24.456   2.206  0.00  0.00     0.380 C 
HETATM   13  O   UNK N   1      45.496  25.498   2.630  0.00  0.00    -0.237 OA
HETATM   14  N   UNK N   1      45.640  23.798   1.209  0.00  0.00    -0.344 N 
HETATM   15  H   UNK N   1      45.250  22.968   0.849  0.00  0.00     0.161 HD
HETATM   16  H   UNK N   1      46.482  24.146   0.838  0.00  0.00     0.161 HD
ENDBRANCH  11  12
ENDBRANCH   8  11
ENDBRANCH   1   7
BRANCH   5  17
HETATM   17  O   UNK N   1      46.441  19.134   2.809  0.00  0.00    -0.343 OA
BRANCH  17  18
HETATM   18  C   UNK N   1      47.306  18.725   3.811  0.00  0.00     0.129 C 
HETATM   19  C   UNK N   1      48.730  18.670   3.322  0.00  0.00     0.032 C 
HETATM   20  C   UNK N   1      49.425  17.749   4.312  0.00  0.00     0.002 C 
HETATM   21  C   UNK N   1      48.330  16.928   4.983  0.00  0.00     0.002 C 
HETATM   22  C   UNK N   1      47.043  17.313   4.286  0.00  0.00     0.032 C 
ENDBRANCH  17  18
ENDBRANCH   5  17
BRANCH   4  23
HETATM   23  O   UNK N   1      44.091  17.655   2.045  0.00  0.00    -0.353 OA
HETATM   24  C   UNK N   1      43.792  16.446   2.629  0.00  0.00     0.210 C 
ENDBRANCH   4  23
TORSDOF 6
ENDMDL
