REMARK  6 active torsions:
REMARK  status: ('A' for Active; 'I' for Inactive)
REMARK       I    between atoms: C_2  and  N_3 
REMARK    1  A    between atoms: C_2  and  O_4 
REMARK    2  A    between atoms: O_4  and  N_5 
REMARK    3  A    between atoms: C_7  and  C_9 
REMARK    4  A    between atoms: C_12  and  O_13 
REMARK    5  A    between atoms: C_15  and  O_17 
REMARK    6  A    between atoms: O_17  and  C_18 
ROOT
HETATM    1  C   UNK N   1      -1.535   0.350   0.063  0.00  0.00    -0.009 A 
HETATM    2  C   UNK N   1      -1.562   1.747  -0.049  0.00  0.00     0.016 A 
HETATM    3  C   UNK N   1      -0.369   2.476  -0.109  0.00  0.00     0.040 A 
HETATM    4  C   UNK N   1       0.876   1.833  -0.063  0.00  0.00     0.101 A 
HETATM    5  C   UNK N   1       0.913   0.418   0.056  0.00  0.00     0.103 A 
HETATM    6  C   UNK N   1      -0.297  -0.288   0.120  0.00  0.00     0.053 A 
ENDROOT
BRANCH   1   7
HETATM    7  C   UNK N   1      -2.773  -0.492   0.109  0.00  0.00     0.039 C 
HETATM    8  N   UNK N   1      -3.971  -0.011   0.082  0.00  0.00    -0.260 N 
ATOM      9  HN  UNK N   1      -4.755  -0.663   0.108  1.00  0.00     0.194 HD
HETATM   10  C   UNK N   1      -2.631  -1.980   0.182  0.00  0.00     0.071 C 
BRANCH   8  11
HETATM   11  O   UNK N   1      -4.230   1.279   0.022  0.00  0.00    -0.181 OA
BRANCH  11  12
HETATM   12  C   UNK N   1      -5.506   1.726  -0.005  0.00  0.00     0.380 C 
HETATM   13  O   UNK N   1      -6.441   0.939   0.009  0.00  0.00    -0.237 OA
HETATM   14  N   UNK N   1      -5.750   3.049  -0.047  0.00  0.00    -0.344 N 
HETATM   15  H   UNK N   1      -5.001   3.687  -0.078  0.00  0.00     0.161 HD
HETATM   16  H   UNK N   1      -6.677   3.379  -0.047  0.00  0.00     0.161 HD
ENDBRANCH  11  12
ENDBRANCH   8  11
ENDBRANCH   1   7
BRANCH   5  17
HETATM   17  O   UNK N   1       2.093  -0.258   0.107  0.00  0.00    -0.343 OA
BRANCH  17  18
HETATM   18  C   UNK N   1       2.192  -1.615   0.370  0.00  0.00     0.129 C 
HETATM   19  C   UNK N   1       3.627  -2.072   0.378  0.00  0.00     0.032 C 
HETATM   20  C   UNK N   1       3.538  -3.573   0.156  0.00  0.00     0.002 C 
HETATM   21  C   UNK N   1       2.174  -3.838  -0.470  0.00  0.00     0.002 C 
HETATM   22  C   UNK N   1       1.555  -2.476  -0.698  0.00  0.00     0.032 C 
ENDBRANCH  17  18
ENDBRANCH   5  17
BRANCH   4  23
HETATM   23  O   UNK N   1       1.990   2.610  -0.128  0.00  0.00    -0.353 OA
HETATM   24  C   UNK N   1       3.287   2.153  -0.086  0.00  0.00     0.210 C 
ENDBRANCH   4  23
TORSDOF 6
