MODEL 1
REMARK VINA RESULT:      -7.0      0.000      0.000
REMARK  3 active torsions:
REMARK  status: ('A' for Active; 'I' for Inactive)
REMARK    1  A    between atoms: C_4  and  C_13 
REMARK    2  A    between atoms: C_9  and  O_22 
REMARK    3  A    between atoms: C_16  and  O_19 
ROOT
HETATM    1  O   UNK N   1      33.331  15.021   8.641  0.00  0.00    -0.308 OA
HETATM    2  C   UNK N   1      33.159  16.265   8.191  0.00  0.00     0.096 A 
HETATM    3  C   UNK N   1      33.978  17.312   8.710  0.00  0.00     0.024 A 
HETATM    4  C   UNK N   1      34.964  16.989   9.654  0.00  0.00     0.193 A 
HETATM    5  C   UNK N   1      35.114  15.664  10.070  0.00  0.00     0.051 A 
HETATM    6  C   UNK N   1      36.110  15.286  10.982  0.00  0.00     0.054 A 
HETATM    7  C   UNK N   1      36.241  13.948  11.363  0.00  0.00     0.066 A 
HETATM    8  C   UNK N   1      35.370  12.984  10.848  0.00  0.00     0.039 A 
HETATM    9  C   UNK N   1      34.375  13.354   9.939  0.00  0.00     0.041 A 
HETATM   10  C   UNK N   1      34.249  14.688   9.540  0.00  0.00     0.090 A 
HETATM   11  C   UNK N   1      33.855  18.734   8.257  0.00  0.00     0.055 C 
HETATM   12  O   UNK N   1      35.701  17.860  10.097  0.00  0.00    -0.287 OA
ENDROOT
BRANCH   2  13
HETATM   13  C   UNK N   1      32.155  16.456   7.103  0.00  0.00     0.001 A 
HETATM   14  C   UNK N   1      32.608  16.497   5.776  0.00  0.00     0.036 A 
HETATM   15  C   UNK N   1      31.732  16.780   4.726  0.00  0.00     0.046 A 
HETATM   16 Br   UNK N   1      32.414  16.862   2.943  0.00  0.00    -0.048 Br
HETATM   17  C   UNK N   1      30.378  17.024   4.992  0.00  0.00     0.100 A 
HETATM   18  C   UNK N   1      29.909  16.970   6.311  0.00  0.00     0.046 A 
HETATM   19 Br   UNK N   1      28.071  17.303   6.714  0.00  0.00    -0.048 Br
HETATM   20  C   UNK N   1      30.795  16.694   7.355  0.00  0.00     0.036 A 
BRANCH  17  21
HETATM   21  O   UNK N   1      29.534  17.316   3.986  0.00  0.00    -0.358 OA
HETATM   22  H   UNK N   1      29.798  17.180   3.097  0.00  0.00     0.217 HD
ENDBRANCH  17  21
ENDBRANCH   2  13
BRANCH   7  23
HETATM   23  O   UNK N   1      37.212  13.585  12.218  0.00  0.00    -0.361 OA
HETATM   24  H   UNK N   1      37.028  13.015  12.938  0.00  0.00     0.217 HD
ENDBRANCH   7  23
TORSDOF 3
ENDMDL
MODEL 2
REMARK VINA RESULT:      -6.9      4.502      8.027
REMARK  3 active torsions:
REMARK  status: ('A' for Active; 'I' for Inactive)
REMARK    1  A    between atoms: C_4  and  C_13 
REMARK    2  A    between atoms: C_9  and  O_22 
REMARK    3  A    between atoms: C_16  and  O_19 
ROOT
HETATM    1  O   UNK N   1      34.641  15.344  10.637  0.00  0.00    -0.308 OA
HETATM    2  C   UNK N   1      35.310  14.209  10.852  0.00  0.00     0.096 A 
HETATM    3  C   UNK N   1      35.867  13.509   9.740  0.00  0.00     0.024 A 
HETATM    4  C   UNK N   1      35.722  14.060   8.458  0.00  0.00     0.193 A 
HETATM    5  C   UNK N   1      35.033  15.264   8.298  0.00  0.00     0.051 A 
HETATM    6  C   UNK N   1      34.895  15.873   7.042  0.00  0.00     0.054 A 
HETATM    7  C   UNK N   1      34.213  17.087   6.922  0.00  0.00     0.066 A 
HETATM    8  C   UNK N   1      33.652  17.690   8.051  0.00  0.00     0.039 A 
HETATM    9  C   UNK N   1      33.785  17.089   9.305  0.00  0.00     0.041 A 
HETATM   10  C   UNK N   1      34.481  15.883   9.436  0.00  0.00     0.090 A 
HETATM   11  C   UNK N   1      36.635  12.232   9.892  0.00  0.00     0.055 C 
HETATM   12  O   UNK N   1      36.213  13.498   7.488  0.00  0.00    -0.287 OA
ENDROOT
BRANCH   2  13
HETATM   13  C   UNK N   1      35.491  13.791  12.273  0.00  0.00     0.001 A 
HETATM   14  C   UNK N   1      34.812  12.649  12.724  0.00  0.00     0.036 A 
HETATM   15  C   UNK N   1      34.856  12.270  14.068  0.00  0.00     0.046 A 
HETATM   16 Br   UNK N   1      33.879  10.728  14.632  0.00  0.00    -0.048 Br
HETATM   17  C   UNK N   1      35.589  13.035  14.986  0.00  0.00     0.100 A 
HETATM   18  C   UNK N   1      36.285  14.168  14.546  0.00  0.00     0.046 A 
HETATM   19 Br   UNK N   1      37.290  15.239  15.768  0.00  0.00    -0.048 Br
HETATM   20  C   UNK N   1      36.228  14.542  13.201  0.00  0.00     0.036 A 
BRANCH  17  21
HETATM   21  O   UNK N   1      35.619  12.685  16.285  0.00  0.00    -0.358 OA
HETATM   22  H   UNK N   1      35.420  11.805  16.538  0.00  0.00     0.217 HD
ENDBRANCH  17  21
ENDBRANCH   2  13
BRANCH   7  23
HETATM   23  O   UNK N   1      34.105  17.680   5.722  0.00  0.00    -0.361 OA
HETATM   24  H   UNK N   1      34.733  17.515   5.047  0.00  0.00     0.217 HD
ENDBRANCH   7  23
TORSDOF 3
ENDMDL
MODEL 3
REMARK VINA RESULT:      -6.6      0.380      2.055
REMARK  3 active torsions:
REMARK  status: ('A' for Active; 'I' for Inactive)
REMARK    1  A    between atoms: C_4  and  C_13 
REMARK    2  A    between atoms: C_9  and  O_22 
REMARK    3  A    between atoms: C_16  and  O_19 
ROOT
HETATM    1  O   UNK N   1      33.166  15.089   8.457  0.00  0.00    -0.308 OA
HETATM    2  C   UNK N   1      33.151  16.373   8.092  0.00  0.00     0.096 A 
HETATM    3  C   UNK N   1      34.052  17.285   8.718  0.00  0.00     0.024 A 
HETATM    4  C   UNK N   1      34.952  16.791   9.675  0.00  0.00     0.193 A 
HETATM    5  C   UNK N   1      34.939  15.432   9.997  0.00  0.00     0.051 A 
HETATM    6  C   UNK N   1      35.845  14.884  10.918  0.00  0.00     0.054 A 
HETATM    7  C   UNK N   1      35.813  13.517  11.204  0.00  0.00     0.066 A 
HETATM    8  C   UNK N   1      34.868  12.693  10.586  0.00  0.00     0.039 A 
HETATM    9  C   UNK N   1      33.963  13.232   9.668  0.00  0.00     0.041 A 
HETATM   10  C   UNK N   1      34.000  14.596   9.364  0.00  0.00     0.090 A 
HETATM   11  C   UNK N   1      34.104  18.740   8.366  0.00  0.00     0.055 C 
HETATM   12  O   UNK N   1      35.757  17.542  10.208  0.00  0.00    -0.287 OA
ENDROOT
BRANCH   2  13
HETATM   13  C   UNK N   1      32.225  16.748   6.983  0.00  0.00     0.001 A 
HETATM   14  C   UNK N   1      30.888  17.035   7.299  0.00  0.00     0.036 A 
HETATM   15  C   UNK N   1      29.951  17.287   6.294  0.00  0.00     0.046 A 
HETATM   16 Br   UNK N   1      28.136  17.632   6.782  0.00  0.00    -0.048 Br
HETATM   17  C   UNK N   1      30.343  17.258   4.949  0.00  0.00     0.100 A 
HETATM   18  C   UNK N   1      31.679  16.989   4.621  0.00  0.00     0.046 A 
HETATM   19 Br   UNK N   1      32.250  16.935   2.799  0.00  0.00    -0.048 Br
HETATM   20  C   UNK N   1      32.606  16.731   5.633  0.00  0.00     0.036 A 
BRANCH  17  21
HETATM   21  O   UNK N   1      29.440  17.481   3.977  0.00  0.00    -0.358 OA
HETATM   22  H   UNK N   1      28.676  16.942   3.914  0.00  0.00     0.217 HD
ENDBRANCH  17  21
ENDBRANCH   2  13
BRANCH   7  23
HETATM   23  O   UNK N   1      36.698  12.991  12.067  0.00  0.00    -0.361 OA
HETATM   24  H   UNK N   1      36.895  13.423  12.874  0.00  0.00     0.217 HD
ENDBRANCH   7  23
TORSDOF 3
ENDMDL
MODEL 4
REMARK VINA RESULT:      -6.6      4.008      5.688
REMARK  3 active torsions:
REMARK  status: ('A' for Active; 'I' for Inactive)
REMARK    1  A    between atoms: C_4  and  C_13 
REMARK    2  A    between atoms: C_9  and  O_22 
REMARK    3  A    between atoms: C_16  and  O_19 
ROOT
HETATM    1  O   UNK N   1      29.812  16.905   6.050  0.00  0.00    -0.308 OA
HETATM    2  C   UNK N   1      28.741  17.064   6.831  0.00  0.00     0.096 A 
HETATM    3  C   UNK N   1      28.917  17.546   8.163  0.00  0.00     0.024 A 
HETATM    4  C   UNK N   1      30.212  17.871   8.595  0.00  0.00     0.193 A 
HETATM    5  C   UNK N   1      31.291  17.707   7.724  0.00  0.00     0.051 A 
HETATM    6  C   UNK N   1      32.598  18.054   8.096  0.00  0.00     0.054 A 
HETATM    7  C   UNK N   1      33.652  17.892   7.192  0.00  0.00     0.066 A 
HETATM    8  C   UNK N   1      33.409  17.367   5.920  0.00  0.00     0.039 A 
HETATM    9  C   UNK N   1      32.110  17.019   5.542  0.00  0.00     0.041 A 
HETATM   10  C   UNK N   1      31.048  17.195   6.435  0.00  0.00     0.090 A 
HETATM   11  C   UNK N   1      27.771  17.758   9.104  0.00  0.00     0.055 C 
HETATM   12  O   UNK N   1      30.392  18.313   9.721  0.00  0.00    -0.287 OA
ENDROOT
BRANCH   2  13
HETATM   13  C   UNK N   1      27.410  16.791   6.215  0.00  0.00     0.001 A 
HETATM   14  C   UNK N   1      26.832  17.783   5.408  0.00  0.00     0.036 A 
HETATM   15  C   UNK N   1      25.543  17.630   4.892  0.00  0.00     0.046 A 
HETATM   16 Br   UNK N   1      24.793  19.032   3.833  0.00  0.00    -0.048 Br
HETATM   17  C   UNK N   1      24.810  16.470   5.177  0.00  0.00     0.100 A 
HETATM   18  C   UNK N   1      25.382  15.464   5.967  0.00  0.00     0.046 A 
HETATM   19 Br   UNK N   1      24.411  13.871   6.382  0.00  0.00    -0.048 Br
HETATM   20  C   UNK N   1      26.668  15.631   6.484  0.00  0.00     0.036 A 
BRANCH  17  21
HETATM   21  O   UNK N   1      23.561  16.326   4.698  0.00  0.00    -0.358 OA
HETATM   22  H   UNK N   1      23.218  16.949   4.089  0.00  0.00     0.217 HD
ENDBRANCH  17  21
ENDBRANCH   2  13
BRANCH   7  23
HETATM   23  O   UNK N   1      34.899  18.248   7.544  0.00  0.00    -0.361 OA
HETATM   24  H   UNK N   1      35.400  18.830   7.007  0.00  0.00     0.217 HD
ENDBRANCH   7  23
TORSDOF 3
ENDMDL
MODEL 5
REMARK VINA RESULT:      -6.6      9.399     10.731
REMARK  3 active torsions:
REMARK  status: ('A' for Active; 'I' for Inactive)
REMARK    1  A    between atoms: C_4  and  C_13 
REMARK    2  A    between atoms: C_9  and  O_22 
REMARK    3  A    between atoms: C_16  and  O_19 
ROOT
HETATM    1  O   UNK N   1      24.017  13.596   8.067  0.00  0.00    -0.308 OA
HETATM    2  C   UNK N   1      23.146  14.121   7.202  0.00  0.00     0.096 A 
HETATM    3  C   UNK N   1      21.753  14.086   7.511  0.00  0.00     0.024 A 
HETATM    4  C   UNK N   1      21.349  13.530   8.734  0.00  0.00     0.193 A 
HETATM    5  C   UNK N   1      22.309  13.018   9.609  0.00  0.00     0.051 A 
HETATM    6  C   UNK N   1      21.957  12.487  10.859  0.00  0.00     0.054 A 
HETATM    7  C   UNK N   1      22.946  11.999  11.718  0.00  0.00     0.066 A 
HETATM    8  C   UNK N   1      24.288  12.022  11.326  0.00  0.00     0.039 A 
HETATM    9  C   UNK N   1      24.645  12.550  10.082  0.00  0.00     0.041 A 
HETATM   10  C   UNK N   1      23.662  13.056   9.226  0.00  0.00     0.090 A 
HETATM   11  C   UNK N   1      20.709  14.656   6.600  0.00  0.00     0.055 C 
HETATM   12  O   UNK N   1      20.164  13.510   9.039  0.00  0.00    -0.287 OA
ENDROOT
BRANCH   2  13
HETATM   13  C   UNK N   1      23.713  14.784   5.992  0.00  0.00     0.001 A 
HETATM   14  C   UNK N   1      24.272  13.977   4.989  0.00  0.00     0.036 A 
HETATM   15  C   UNK N   1      24.913  14.543   3.885  0.00  0.00     0.046 A 
HETATM   16 Br   UNK N   1      25.691  13.394   2.572  0.00  0.00    -0.048 Br
HETATM   17  C   UNK N   1      25.002  15.937   3.767  0.00  0.00     0.100 A 
HETATM   18  C   UNK N   1      24.434  16.755   4.752  0.00  0.00     0.046 A 
HETATM   19 Br   UNK N   1      24.539  18.658   4.629  0.00  0.00    -0.048 Br
HETATM   20  C   UNK N   1      23.801  16.178   5.856  0.00  0.00     0.036 A 
BRANCH  17  21
HETATM   21  O   UNK N   1      25.636  16.487   2.715  0.00  0.00    -0.358 OA
HETATM   22  H   UNK N   1      25.658  16.037   1.894  0.00  0.00     0.217 HD
ENDBRANCH  17  21
ENDBRANCH   2  13
BRANCH   7  23
HETATM   23  O   UNK N   1      22.609  11.514  12.924  0.00  0.00    -0.361 OA
HETATM   24  H   UNK N   1      23.217  11.535  13.636  0.00  0.00     0.217 HD
ENDBRANCH   7  23
TORSDOF 3
ENDMDL
MODEL 6
REMARK VINA RESULT:      -6.5      5.086      7.717
REMARK  3 active torsions:
REMARK  status: ('A' for Active; 'I' for Inactive)
REMARK    1  A    between atoms: C_4  and  C_13 
REMARK    2  A    between atoms: C_9  and  O_22 
REMARK    3  A    between atoms: C_16  and  O_19 
ROOT
HETATM    1  O   UNK N   1      36.777  14.076  13.902  0.00  0.00    -0.308 OA
HETATM    2  C   UNK N   1      36.269  13.239  12.995  0.00  0.00     0.096 A 
HETATM    3  C   UNK N   1      35.303  12.273  13.404  0.00  0.00     0.024 A 
HETATM    4  C   UNK N   1      34.892  12.258  14.746  0.00  0.00     0.193 A 
HETATM    5  C   UNK N   1      35.442  13.175  15.645  0.00  0.00     0.051 A 
HETATM    6  C   UNK N   1      35.036  13.225  16.986  0.00  0.00     0.054 A 
HETATM    7  C   UNK N   1      35.595  14.167  17.854  0.00  0.00     0.066 A 
HETATM    8  C   UNK N   1      36.574  15.052  17.392  0.00  0.00     0.039 A 
HETATM    9  C   UNK N   1      36.983  15.007  16.057  0.00  0.00     0.041 A 
HETATM   10  C   UNK N   1      36.415  14.079  15.178  0.00  0.00     0.090 A 
HETATM   11  C   UNK N   1      34.678  11.300  12.451  0.00  0.00     0.055 C 
HETATM   12  O   UNK N   1      34.045  11.460  15.122  0.00  0.00    -0.287 OA
ENDROOT
BRANCH   2  13
HETATM   13  C   UNK N   1      36.704  13.433  11.580  0.00  0.00     0.001 A 
HETATM   14  C   UNK N   1      35.879  14.180  10.725  0.00  0.00     0.036 A 
HETATM   15  C   UNK N   1      36.178  14.305   9.367  0.00  0.00     0.046 A 
HETATM   16 Br   UNK N   1      34.997  15.300   8.242  0.00  0.00    -0.048 Br
HETATM   17  C   UNK N   1      37.319  13.682   8.842  0.00  0.00     0.100 A 
HETATM   18  C   UNK N   1      38.160  12.947   9.688  0.00  0.00     0.046 A 
HETATM   19 Br   UNK N   1      39.721  12.079   9.009  0.00  0.00    -0.048 Br
HETATM   20  C   UNK N   1      37.847  12.822  11.044  0.00  0.00     0.036 A 
BRANCH  17  21
HETATM   21  O   UNK N   1      37.601  13.784   7.530  0.00  0.00    -0.358 OA
HETATM   22  H   UNK N   1      37.922  13.040   7.061  0.00  0.00     0.217 HD
ENDBRANCH  17  21
ENDBRANCH   2  13
BRANCH   7  23
HETATM   23  O   UNK N   1      35.186  14.229  19.132  0.00  0.00    -0.361 OA
HETATM   24  H   UNK N   1      35.806  14.283  19.832  0.00  0.00     0.217 HD
ENDBRANCH   7  23
TORSDOF 3
ENDMDL
MODEL 7
REMARK VINA RESULT:      -6.5     14.525     17.601
REMARK  3 active torsions:
REMARK  status: ('A' for Active; 'I' for Inactive)
REMARK    1  A    between atoms: C_4  and  C_13 
REMARK    2  A    between atoms: C_9  and  O_22 
REMARK    3  A    between atoms: C_16  and  O_19 
ROOT
HETATM    1  O   UNK N   1      28.431  25.536  -4.300  0.00  0.00    -0.308 OA
HETATM    2  C   UNK N   1      27.861  24.469  -4.865  0.00  0.00     0.096 A 
HETATM    3  C   UNK N   1      26.503  24.552  -5.294  0.00  0.00     0.024 A 
HETATM    4  C   UNK N   1      25.821  25.768  -5.139  0.00  0.00     0.193 A 
HETATM    5  C   UNK N   1      26.478  26.858  -4.564  0.00  0.00     0.051 A 
HETATM    6  C   UNK N   1      25.852  28.105  -4.423  0.00  0.00     0.054 A 
HETATM    7  C   UNK N   1      26.545  29.179  -3.858  0.00  0.00     0.066 A 
HETATM    8  C   UNK N   1      27.860  29.009  -3.415  0.00  0.00     0.039 A 
HETATM    9  C   UNK N   1      28.490  27.769  -3.552  0.00  0.00     0.041 A 
HETATM   10  C   UNK N   1      27.809  26.695  -4.133  0.00  0.00     0.090 A 
HETATM   11  C   UNK N   1      25.789  23.405  -5.940  0.00  0.00     0.055 C 
HETATM   12  O   UNK N   1      24.665  25.879  -5.523  0.00  0.00    -0.287 OA
ENDROOT
BRANCH   2  13
HETATM   13  C   UNK N   1      28.729  23.273  -5.075  0.00  0.00     0.001 A 
HETATM   14  C   UNK N   1      29.733  23.003  -4.133  0.00  0.00     0.036 A 
HETATM   15  C   UNK N   1      30.643  21.963  -4.331  0.00  0.00     0.046 A 
HETATM   16 Br   UNK N   1      32.015  21.668  -3.034  0.00  0.00    -0.048 Br
HETATM   17  C   UNK N   1      30.558  21.169  -5.484  0.00  0.00     0.100 A 
HETATM   18  C   UNK N   1      29.550  21.417  -6.424  0.00  0.00     0.046 A 
HETATM   19 Br   UNK N   1      29.405  20.361  -8.010  0.00  0.00    -0.048 Br
HETATM   20  C   UNK N   1      28.649  22.465  -6.220  0.00  0.00     0.036 A 
BRANCH  17  21
HETATM   21  O   UNK N   1      31.445  20.178  -5.688  0.00  0.00    -0.358 OA
HETATM   22  H   UNK N   1      31.836  19.740  -4.958  0.00  0.00     0.217 HD
ENDBRANCH  17  21
ENDBRANCH   2  13
BRANCH   7  23
HETATM   23  O   UNK N   1      25.951  30.379  -3.747  0.00  0.00    -0.361 OA
HETATM   24  H   UNK N   1      25.701  30.861  -4.510  0.00  0.00     0.217 HD
ENDBRANCH   7  23
TORSDOF 3
ENDMDL
MODEL 8
REMARK VINA RESULT:      -6.5      7.177     10.056
REMARK  3 active torsions:
REMARK  status: ('A' for Active; 'I' for Inactive)
REMARK    1  A    between atoms: C_4  and  C_13 
REMARK    2  A    between atoms: C_9  and  O_22 
REMARK    3  A    between atoms: C_16  and  O_19 
ROOT
HETATM    1  O   UNK N   1      24.956  13.440   8.588  0.00  0.00    -0.308 OA
HETATM    2  C   UNK N   1      24.752  14.177   7.494  0.00  0.00     0.096 A 
HETATM    3  C   UNK N   1      23.417  14.514   7.122  0.00  0.00     0.024 A 
HETATM    4  C   UNK N   1      22.361  14.088   7.943  0.00  0.00     0.193 A 
HETATM    5  C   UNK N   1      22.639  13.341   9.090  0.00  0.00     0.051 A 
HETATM    6  C   UNK N   1      21.622  12.926   9.962  0.00  0.00     0.054 A 
HETATM    7  C   UNK N   1      21.937  12.193  11.109  0.00  0.00     0.066 A 
HETATM    8  C   UNK N   1      23.266  11.857  11.383  0.00  0.00     0.039 A 
HETATM    9  C   UNK N   1      24.284  12.268  10.518  0.00  0.00     0.041 A 
HETATM   10  C   UNK N   1      23.978  13.016   9.377  0.00  0.00     0.090 A 
HETATM   11  C   UNK N   1      23.099  15.340   5.913  0.00  0.00     0.055 C 
HETATM   12  O   UNK N   1      21.208  14.386   7.666  0.00  0.00    -0.287 OA
ENDROOT
BRANCH   2  13
HETATM   13  C   UNK N   1      25.965  14.662   6.772  0.00  0.00     0.001 A 
HETATM   14  C   UNK N   1      26.540  15.877   7.174  0.00  0.00     0.036 A 
HETATM   15  C   UNK N   1      27.609  16.434   6.469  0.00  0.00     0.046 A 
HETATM   16 Br   UNK N   1      28.325  18.111   7.041  0.00  0.00    -0.048 Br
HETATM   17  C   UNK N   1      28.123  15.776   5.344  0.00  0.00     0.100 A 
HETATM   18  C   UNK N   1      27.569  14.555   4.941  0.00  0.00     0.046 A 
HETATM   19 Br   UNK N   1      28.239  13.631   3.408  0.00  0.00    -0.048 Br
HETATM   20  C   UNK N   1      26.495  14.009   5.648  0.00  0.00     0.036 A 
BRANCH  17  21
HETATM   21  O   UNK N   1      29.140  16.320   4.650  0.00  0.00    -0.358 OA
HETATM   22  H   UNK N   1      29.641  17.018   5.023  0.00  0.00     0.217 HD
ENDBRANCH  17  21
ENDBRANCH   2  13
BRANCH   7  23
HETATM   23  O   UNK N   1      20.964  11.818  11.956  0.00  0.00    -0.361 OA
HETATM   24  H   UNK N   1      21.155  11.630  12.853  0.00  0.00     0.217 HD
ENDBRANCH   7  23
TORSDOF 3
ENDMDL
MODEL 9
REMARK VINA RESULT:      -6.4     14.531     17.644
REMARK  3 active torsions:
REMARK  status: ('A' for Active; 'I' for Inactive)
REMARK    1  A    between atoms: C_4  and  C_13 
REMARK    2  A    between atoms: C_9  and  O_22 
REMARK    3  A    between atoms: C_16  and  O_19 
ROOT
HETATM    1  O   UNK N   1      28.468  25.854  -4.257  0.00  0.00    -0.308 OA
HETATM    2  C   UNK N   1      27.925  24.761  -4.796  0.00  0.00     0.096 A 
HETATM    3  C   UNK N   1      26.554  24.787  -5.189  0.00  0.00     0.024 A 
HETATM    4  C   UNK N   1      25.830  25.979  -5.028  0.00  0.00     0.193 A 
HETATM    5  C   UNK N   1      26.461  27.099  -4.481  0.00  0.00     0.051 A 
HETATM    6  C   UNK N   1      25.791  28.323  -4.336  0.00  0.00     0.054 A 
HETATM    7  C   UNK N   1      26.458  29.428  -3.800  0.00  0.00     0.066 A 
HETATM    8  C   UNK N   1      27.790  29.313  -3.391  0.00  0.00     0.039 A 
HETATM    9  C   UNK N   1      28.462  28.096  -3.533  0.00  0.00     0.041 A 
HETATM   10  C   UNK N   1      27.807  26.991  -4.085  0.00  0.00     0.090 A 
HETATM   11  C   UNK N   1      25.866  23.607  -5.805  0.00  0.00     0.055 C 
HETATM   12  O   UNK N   1      24.661  26.042  -5.382  0.00  0.00    -0.287 OA
ENDROOT
BRANCH   2  13
HETATM   13  C   UNK N   1      28.831  23.596  -5.018  0.00  0.00     0.001 A 
HETATM   14  C   UNK N   1      28.616  22.788  -6.145  0.00  0.00     0.036 A 
HETATM   15  C   UNK N   1      29.362  21.625  -6.348  0.00  0.00     0.046 A 
HETATM   16 Br   UNK N   1      28.997  20.543  -7.879  0.00  0.00    -0.048 Br
HETATM   17  C   UNK N   1      30.344  21.253  -5.419  0.00  0.00     0.100 A 
HETATM   18  C   UNK N   1      30.580  22.059  -4.298  0.00  0.00     0.046 A 
HETATM   19 Br   UNK N   1      31.905  21.582  -3.008  0.00  0.00    -0.048 Br
HETATM   20  C   UNK N   1      29.823  23.217  -4.101  0.00  0.00     0.036 A 
BRANCH  17  21
HETATM   21  O   UNK N   1      31.051  20.123  -5.601  0.00  0.00    -0.358 OA
HETATM   22  H   UNK N   1      31.987  20.148  -5.586  0.00  0.00     0.217 HD
ENDBRANCH  17  21
ENDBRANCH   2  13
BRANCH   7  23
HETATM   23  O   UNK N   1      25.822  30.606  -3.686  0.00  0.00    -0.361 OA
HETATM   24  H   UNK N   1      26.123  31.361  -4.150  0.00  0.00     0.217 HD
ENDBRANCH   7  23
TORSDOF 3
ENDMDL
