REMARK  3 active torsions:
REMARK  status: ('A' for Active; 'I' for Inactive)
REMARK    1  A    between atoms: C_4  and  C_13 
REMARK    2  A    between atoms: C_9  and  O_22 
REMARK    3  A    between atoms: C_16  and  O_19 
ROOT
HETATM    1  O   UNK N   1       0.846  -0.847   0.193  0.00  0.00    -0.308 OA
HETATM    2  C   UNK N   1      -0.304  -0.173   0.123  0.00  0.00     0.096 A 
HETATM    3  C   UNK N   1      -0.271   1.239  -0.078  0.00  0.00     0.024 A 
HETATM    4  C   UNK N   1       0.974   1.868  -0.231  0.00  0.00     0.193 A 
HETATM    5  C   UNK N   1       2.143   1.106  -0.173  0.00  0.00     0.051 A 
HETATM    6  C   UNK N   1       3.408   1.683  -0.359  0.00  0.00     0.054 A 
HETATM    7  C   UNK N   1       4.556   0.887  -0.311  0.00  0.00     0.066 A 
HETATM    8  C   UNK N   1       4.448  -0.484  -0.061  0.00  0.00     0.039 A 
HETATM    9  C   UNK N   1       3.191  -1.065   0.125  0.00  0.00     0.041 A 
HETATM   10  C   UNK N   1       2.037  -0.278   0.061  0.00  0.00     0.090 A 
HETATM   11  C   UNK N   1      -1.513   2.071  -0.173  0.00  0.00     0.055 C 
HETATM   12  O   UNK N   1       1.034   3.073  -0.433  0.00  0.00    -0.287 OA
ENDROOT
BRANCH   2  13
HETATM   13  C   UNK N   1      -1.561  -0.975   0.187  0.00  0.00     0.001 A 
HETATM   14  C   UNK N   1      -1.459  -2.374   0.223  0.00  0.00     0.036 A 
HETATM   15  C   UNK N   1      -2.599  -3.179   0.175  0.00  0.00     0.046 A 
HETATM   16 Br   UNK N   1      -2.396  -5.079   0.186  0.00  0.00    -0.048 Br
HETATM   17  C   UNK N   1      -3.868  -2.590   0.093  0.00  0.00     0.100 A 
HETATM   18  C   UNK N   1      -3.985  -1.194   0.073  0.00  0.00     0.046 A 
HETATM   19 Br   UNK N   1      -5.697  -0.354  -0.044  0.00  0.00    -0.048 Br
HETATM   20  C   UNK N   1      -2.838  -0.398   0.114  0.00  0.00     0.036 A 
BRANCH  17  21
HETATM   21  O   UNK N   1      -4.968  -3.362   0.027  0.00  0.00    -0.358 OA
HETATM   22  H   UNK N   1      -5.816  -2.967  -0.019  0.00  0.00     0.217 HD
ENDBRANCH  17  21
ENDBRANCH   2  13
BRANCH   7  23
HETATM   23  O   UNK N   1       5.764   1.438  -0.514  0.00  0.00    -0.361 OA
HETATM   24  H   UNK N   1       6.518   0.901  -0.656  0.00  0.00     0.217 HD
ENDBRANCH   7  23
TORSDOF 3
