REMARK  6 active torsions:
REMARK  status: ('A' for Active; 'I' for Inactive)
REMARK    1  A    between atoms: C_2  and  N_1 
REMARK       I    between atoms: N_1  and  C_10 
REMARK    2  A    between atoms: C_2  and  C_3 
REMARK    3  A    between atoms: C_2  and  C_7 
REMARK    4  A    between atoms: C_3  and  C_4 
REMARK    5  A    between atoms: C_7  and  O_8 
REMARK    6  A    between atoms: C_10  and  C_12 
ROOT
HETATM    1  N   UNK N   1       0.492   0.930   0.003  0.00  0.00    -0.341 N 
HETATM    2  C   UNK N   1       1.753   0.514   0.298  0.00  0.00     0.276 C 
HETATM    3  O   UNK N   1       1.957  -0.582   0.790  0.00  0.00    -0.265 OA
HETATM    4  H   UNK N   1       0.408   1.815  -0.420  0.00  0.00     0.163 HD
ENDROOT
BRANCH   1   5
HETATM    5  C   UNK N   1      -0.743   0.206   0.244  0.00  0.00     0.183 C 
BRANCH   5   6
HETATM    6  C   UNK N   1      -1.866   1.177  -0.159  0.00  0.00     0.040 C 
BRANCH   6   7
HETATM    7  C   UNK N   1      -3.298   0.645  -0.176  0.00  0.00    -0.020 C 
HETATM    8  C   UNK N   1      -4.239   1.807  -0.419  0.00  0.00     0.009 C 
HETATM    9  C   UNK N   1      -3.682  -0.050   1.114  0.00  0.00     0.009 C 
ENDBRANCH   6   7
ENDBRANCH   5   6
BRANCH   5  10
HETATM   10  C   UNK N   1      -0.794  -1.114  -0.511  0.00  0.00     0.163 C 
HETATM   11  O   UNK N   1      -0.005  -2.004  -0.239  0.00  0.00    -0.648 OA
BRANCH  10  12
HETATM   12  O   UNK N   1      -1.736  -1.341  -1.447  0.00  0.00    -0.775 OA
HETATM   13  H   UNK N   1      -2.201  -0.853  -2.098  0.00  0.00     0.167 HD
ENDBRANCH  10  12
ENDBRANCH   5  10
ENDBRANCH   1   5
BRANCH   2  14
HETATM   14  C   UNK N   1       2.876   1.432   0.045  0.00  0.00     0.142 A 
HETATM   15  O   UNK N   1       2.733   2.650  -0.409  0.00  0.00    -0.317 OA
HETATM   16  C   UNK N   1       3.910   3.223  -0.500  0.00  0.00     0.143 A 
HETATM   17  C   UNK N   1       4.878   2.325  -0.081  0.00  0.00     0.027 A 
HETATM   18  C   UNK N   1       4.210   1.167   0.273  0.00  0.00     0.045 A 
ENDBRANCH   2  14
TORSDOF 6
