MODEL 1
REMARK VINA RESULT:      -5.6      0.000      0.000
REMARK  6 active torsions:
REMARK  status: ('A' for Active; 'I' for Inactive)
REMARK    1  A    between atoms: C_2  and  N_1 
REMARK       I    between atoms: N_1  and  C_10 
REMARK    2  A    between atoms: C_2  and  C_3 
REMARK    3  A    between atoms: C_2  and  C_7 
REMARK    4  A    between atoms: C_3  and  C_4 
REMARK    5  A    between atoms: C_7  and  O_8 
REMARK    6  A    between atoms: C_10  and  C_12 
ROOT
HETATM    1  N   UNK N   1      22.090  13.032   9.964  0.00  0.00    -0.341 N 
HETATM    2  C   UNK N   1      20.784  13.379  10.127  0.00  0.00     0.276 C 
HETATM    3  O   UNK N   1      20.014  12.663  10.742  0.00  0.00    -0.265 OA
HETATM    4  H   UNK N   1      22.659  13.674   9.481  0.00  0.00     0.163 HD
ENDROOT
BRANCH   1   5
HETATM    5  C   UNK N   1      22.733  11.816  10.428  0.00  0.00     0.183 C 
BRANCH   5   6
HETATM    6  C   UNK N   1      23.587  11.333   9.244  0.00  0.00     0.040 C 
BRANCH   6   7
HETATM    7  C   UNK N   1      23.645  12.215   7.998  0.00  0.00    -0.020 C 
HETATM    8  C   UNK N   1      23.589  11.323   6.775  0.00  0.00     0.009 C 
HETATM    9  C   UNK N   1      24.895  13.068   7.940  0.00  0.00     0.009 C 
ENDBRANCH   6   7
ENDBRANCH   5   6
BRANCH   5  10
HETATM   10  C   UNK N   1      23.542  12.041  11.697  0.00  0.00     0.163 C 
HETATM   11  O   UNK N   1      23.016  11.902  12.789  0.00  0.00    -0.648 OA
BRANCH  10  12
HETATM   12  O   UNK N   1      24.854  12.342  11.638  0.00  0.00    -0.775 OA
HETATM   13  H   UNK N   1      25.666  11.890  11.517  0.00  0.00     0.167 HD
ENDBRANCH  10  12
ENDBRANCH   5  10
ENDBRANCH   1   5
BRANCH   2  14
HETATM   14  C   UNK N   1      20.304  14.627   9.511  0.00  0.00     0.142 A 
HETATM   15  O   UNK N   1      19.071  15.053   9.596  0.00  0.00    -0.317 OA
HETATM   16  C   UNK N   1      18.962  16.203   8.972  0.00  0.00     0.143 A 
HETATM   17  C   UNK N   1      20.198  16.546   8.449  0.00  0.00     0.027 A 
HETATM   18  C   UNK N   1      21.066  15.528   8.798  0.00  0.00     0.045 A 
ENDBRANCH   2  14
TORSDOF 6
ENDMDL
MODEL 2
REMARK VINA RESULT:      -5.6     17.977     18.747
REMARK  6 active torsions:
REMARK  status: ('A' for Active; 'I' for Inactive)
REMARK    1  A    between atoms: C_2  and  N_1 
REMARK       I    between atoms: N_1  and  C_10 
REMARK    2  A    between atoms: C_2  and  C_3 
REMARK    3  A    between atoms: C_2  and  C_7 
REMARK    4  A    between atoms: C_3  and  C_4 
REMARK    5  A    between atoms: C_7  and  O_8 
REMARK    6  A    between atoms: C_10  and  C_12 
ROOT
HETATM    1  N   UNK N   1      28.306  24.336  -4.189  0.00  0.00    -0.341 N 
HETATM    2  C   UNK N   1      27.067  24.585  -3.686  0.00  0.00     0.276 C 
HETATM    3  O   UNK N   1      26.608  23.915  -2.778  0.00  0.00    -0.265 OA
HETATM    4  H   UNK N   1      28.621  24.938  -4.902  0.00  0.00     0.163 HD
ENDROOT
BRANCH   1   5
HETATM    5  C   UNK N   1      29.214  23.279  -3.785  0.00  0.00     0.183 C 
BRANCH   5   6
HETATM    6  C   UNK N   1      29.843  22.765  -5.091  0.00  0.00     0.040 C 
BRANCH   6   7
HETATM    7  C   UNK N   1      30.053  21.259  -5.238  0.00  0.00    -0.020 C 
HETATM    8  C   UNK N   1      31.491  20.938  -4.885  0.00  0.00     0.009 C 
HETATM    9  C   UNK N   1      29.757  20.758  -6.637  0.00  0.00     0.009 C 
ENDBRANCH   6   7
ENDBRANCH   5   6
BRANCH   5  10
HETATM   10  C   UNK N   1      30.244  23.759  -2.773  0.00  0.00     0.163 C 
HETATM   11  O   UNK N   1      30.733  24.872  -2.880  0.00  0.00    -0.648 OA
BRANCH  10  12
HETATM   12  O   UNK N   1      30.592  22.992  -1.721  0.00  0.00    -0.775 OA
HETATM   13  H   UNK N   1      30.452  22.978  -0.795  0.00  0.00     0.167 HD
ENDBRANCH  10  12
ENDBRANCH   5  10
ENDBRANCH   1   5
BRANCH   2  14
HETATM   14  C   UNK N   1      26.265  25.664  -4.287  0.00  0.00     0.142 A 
HETATM   15  O   UNK N   1      26.195  26.876  -3.801  0.00  0.00    -0.317 OA
HETATM   16  C   UNK N   1      25.429  27.612  -4.572  0.00  0.00     0.143 A 
HETATM   17  C   UNK N   1      24.972  26.833  -5.622  0.00  0.00     0.027 A 
HETATM   18  C   UNK N   1      25.514  25.574  -5.440  0.00  0.00     0.045 A 
ENDBRANCH   2  14
TORSDOF 6
ENDMDL
MODEL 3
REMARK VINA RESULT:      -5.6      7.722     10.020
REMARK  6 active torsions:
REMARK  status: ('A' for Active; 'I' for Inactive)
REMARK    1  A    between atoms: C_2  and  N_1 
REMARK       I    between atoms: N_1  and  C_10 
REMARK    2  A    between atoms: C_2  and  C_3 
REMARK    3  A    between atoms: C_2  and  C_7 
REMARK    4  A    between atoms: C_3  and  C_4 
REMARK    5  A    between atoms: C_7  and  O_8 
REMARK    6  A    between atoms: C_10  and  C_12 
ROOT
HETATM    1  N   UNK N   1      23.502  19.619   3.741  0.00  0.00    -0.341 N 
HETATM    2  C   UNK N   1      24.578  20.280   3.236  0.00  0.00     0.276 C 
HETATM    3  O   UNK N   1      24.541  20.793   2.131  0.00  0.00    -0.265 OA
HETATM    4  H   UNK N   1      23.596  19.256   4.652  0.00  0.00     0.163 HD
ENDROOT
BRANCH   1   5
HETATM    5  C   UNK N   1      22.229  19.392   3.081  0.00  0.00     0.183 C 
BRANCH   5   6
HETATM    6  C   UNK N   1      21.637  18.146   3.761  0.00  0.00     0.040 C 
BRANCH   6   7
HETATM    7  C   UNK N   1      22.232  17.713   5.100  0.00  0.00    -0.020 C 
HETATM    8  C   UNK N   1      22.389  16.206   5.091  0.00  0.00     0.009 C 
HETATM    9  C   UNK N   1      21.376  18.121   6.282  0.00  0.00     0.009 C 
ENDBRANCH   6   7
ENDBRANCH   5   6
BRANCH   5  10
HETATM   10  C   UNK N   1      21.316  20.606   3.158  0.00  0.00     0.163 C 
HETATM   11  O   UNK N   1      20.308  20.569   3.844  0.00  0.00    -0.648 OA
BRANCH  10  12
HETATM   12  O   UNK N   1      21.628  21.750   2.519  0.00  0.00    -0.775 OA
HETATM   13  H   UNK N   1      21.373  22.204   1.740  0.00  0.00     0.167 HD
ENDBRANCH  10  12
ENDBRANCH   5  10
ENDBRANCH   1   5
BRANCH   2  14
HETATM   14  C   UNK N   1      25.812  20.336   4.037  0.00  0.00     0.142 A 
HETATM   15  O   UNK N   1      25.859  20.760   5.273  0.00  0.00    -0.317 OA
HETATM   16  C   UNK N   1      27.088  20.661   5.722  0.00  0.00     0.143 A 
HETATM   17  C   UNK N   1      27.890  20.143   4.718  0.00  0.00     0.027 A 
HETATM   18  C   UNK N   1      27.065  19.931   3.629  0.00  0.00     0.045 A 
ENDBRANCH   2  14
TORSDOF 6
ENDMDL
MODEL 4
REMARK VINA RESULT:      -5.4      8.851      9.783
REMARK  6 active torsions:
REMARK  status: ('A' for Active; 'I' for Inactive)
REMARK    1  A    between atoms: C_2  and  N_1 
REMARK       I    between atoms: N_1  and  C_10 
REMARK    2  A    between atoms: C_2  and  C_3 
REMARK    3  A    between atoms: C_2  and  C_7 
REMARK    4  A    between atoms: C_3  and  C_4 
REMARK    5  A    between atoms: C_7  and  O_8 
REMARK    6  A    between atoms: C_10  and  C_12 
ROOT
HETATM    1  N   UNK N   1      25.641  19.613   3.767  0.00  0.00    -0.341 N 
HETATM    2  C   UNK N   1      24.824  20.288   2.914  0.00  0.00     0.276 C 
HETATM    3  O   UNK N   1      25.279  20.997   2.033  0.00  0.00    -0.265 OA
HETATM    4  H   UNK N   1      25.202  19.036   4.433  0.00  0.00     0.163 HD
ENDROOT
BRANCH   1   5
HETATM    5  C   UNK N   1      27.092  19.650   3.797  0.00  0.00     0.183 C 
BRANCH   5   6
HETATM    6  C   UNK N   1      27.448  20.584   4.966  0.00  0.00     0.040 C 
BRANCH   6   7
HETATM    7  C   UNK N   1      26.866  20.261   6.341  0.00  0.00    -0.020 C 
HETATM    8  C   UNK N   1      26.373  21.549   6.969  0.00  0.00     0.009 C 
HETATM    9  C   UNK N   1      27.871  19.605   7.265  0.00  0.00     0.009 C 
ENDBRANCH   6   7
ENDBRANCH   5   6
BRANCH   5  10
HETATM   10  C   UNK N   1      27.702  18.263   3.932  0.00  0.00     0.163 C 
HETATM   11  O   UNK N   1      26.999  17.273   3.814  0.00  0.00    -0.648 OA
BRANCH  10  12
HETATM   12  O   UNK N   1      29.025  18.104   4.130  0.00  0.00    -0.775 OA
HETATM   13  H   UNK N   1      29.785  17.903   3.619  0.00  0.00     0.167 HD
ENDBRANCH  10  12
ENDBRANCH   5  10
ENDBRANCH   1   5
BRANCH   2  14
HETATM   14  C   UNK N   1      23.368  20.176   3.096  0.00  0.00     0.142 A 
HETATM   15  O   UNK N   1      22.509  21.058   2.653  0.00  0.00    -0.317 OA
HETATM   16  C   UNK N   1      21.291  20.665   2.944  0.00  0.00     0.143 A 
HETATM   17  C   UNK N   1      21.360  19.456   3.616  0.00  0.00     0.027 A 
HETATM   18  C   UNK N   1      22.702  19.139   3.714  0.00  0.00     0.045 A 
ENDBRANCH   2  14
TORSDOF 6
ENDMDL
MODEL 5
REMARK VINA RESULT:      -5.2      9.229     11.294
REMARK  6 active torsions:
REMARK  status: ('A' for Active; 'I' for Inactive)
REMARK    1  A    between atoms: C_2  and  N_1 
REMARK       I    between atoms: N_1  and  C_10 
REMARK    2  A    between atoms: C_2  and  C_3 
REMARK    3  A    between atoms: C_2  and  C_7 
REMARK    4  A    between atoms: C_3  and  C_4 
REMARK    5  A    between atoms: C_7  and  O_8 
REMARK    6  A    between atoms: C_10  and  C_12 
ROOT
HETATM    1  N   UNK N   1      32.506  17.430   8.006  0.00  0.00    -0.341 N 
HETATM    2  C   UNK N   1      31.560  16.614   8.544  0.00  0.00     0.276 C 
HETATM    3  O   UNK N   1      31.849  15.510   8.971  0.00  0.00    -0.265 OA
HETATM    4  H   UNK N   1      32.204  18.319   7.709  0.00  0.00     0.163 HD
ENDROOT
BRANCH   1   5
HETATM    5  C   UNK N   1      33.915  17.130   7.825  0.00  0.00     0.183 C 
BRANCH   5   6
HETATM    6  C   UNK N   1      34.169  17.278   6.315  0.00  0.00     0.040 C 
BRANCH   6   7
HETATM    7  C   UNK N   1      33.124  16.710   5.356  0.00  0.00    -0.020 C 
HETATM    8  C   UNK N   1      33.647  15.403   4.795  0.00  0.00     0.009 C 
HETATM    9  C   UNK N   1      32.799  17.652   4.215  0.00  0.00     0.009 C 
ENDBRANCH   6   7
ENDBRANCH   5   6
BRANCH   5  10
HETATM   10  C   UNK N   1      34.808  18.025   8.672  0.00  0.00     0.163 C 
HETATM   11  O   UNK N   1      35.076  19.153   8.294  0.00  0.00    -0.648 OA
BRANCH  10  12
HETATM   12  O   UNK N   1      35.271  17.610   9.867  0.00  0.00    -0.775 OA
HETATM   13  H   UNK N   1      35.139  16.889  10.451  0.00  0.00     0.167 HD
ENDBRANCH  10  12
ENDBRANCH   5  10
ENDBRANCH   1   5
BRANCH   2  14
HETATM   14  C   UNK N   1      30.162  17.075   8.569  0.00  0.00     0.142 A 
HETATM   15  O   UNK N   1      29.543  17.463   9.654  0.00  0.00    -0.317 OA
HETATM   16  C   UNK N   1      28.324  17.841   9.349  0.00  0.00     0.143 A 
HETATM   17  C   UNK N   1      28.137  17.691   7.984  0.00  0.00     0.027 A 
HETATM   18  C   UNK N   1      29.326  17.197   7.479  0.00  0.00     0.045 A 
ENDBRANCH   2  14
TORSDOF 6
ENDMDL
MODEL 6
REMARK VINA RESULT:      -5.2     10.072     12.892
REMARK  6 active torsions:
REMARK  status: ('A' for Active; 'I' for Inactive)
REMARK    1  A    between atoms: C_2  and  N_1 
REMARK       I    between atoms: N_1  and  C_10 
REMARK    2  A    between atoms: C_2  and  C_3 
REMARK    3  A    between atoms: C_2  and  C_7 
REMARK    4  A    between atoms: C_3  and  C_4 
REMARK    5  A    between atoms: C_7  and  O_8 
REMARK    6  A    between atoms: C_10  and  C_12 
ROOT
HETATM    1  N   UNK N   1      32.810  17.090   8.795  0.00  0.00    -0.341 N 
HETATM    2  C   UNK N   1      34.105  17.440   9.021  0.00  0.00     0.276 C 
HETATM    3  O   UNK N   1      34.584  18.444   8.524  0.00  0.00    -0.265 OA
HETATM    4  H   UNK N   1      32.485  16.282   9.255  0.00  0.00     0.163 HD
ENDROOT
BRANCH   1   5
HETATM    5  C   UNK N   1      31.855  17.784   7.950  0.00  0.00     0.183 C 
BRANCH   5   6
HETATM    6  C   UNK N   1      31.870  17.023   6.614  0.00  0.00     0.040 C 
BRANCH   6   7
HETATM    7  C   UNK N   1      32.935  17.403   5.587  0.00  0.00    -0.020 C 
HETATM    8  C   UNK N   1      32.257  17.614   4.248  0.00  0.00     0.009 C 
HETATM    9  C   UNK N   1      34.014  16.350   5.442  0.00  0.00     0.009 C 
ENDBRANCH   6   7
ENDBRANCH   5   6
BRANCH   5  10
HETATM   10  C   UNK N   1      30.473  17.858   8.582  0.00  0.00     0.163 C 
HETATM   11  O   UNK N   1      29.524  17.314   8.040  0.00  0.00    -0.648 OA
BRANCH  10  12
HETATM   12  O   UNK N   1      30.284  18.473   9.766  0.00  0.00    -0.775 OA
HETATM   13  H   UNK N   1      29.941  18.261  10.612  0.00  0.00     0.167 HD
ENDBRANCH  10  12
ENDBRANCH   5  10
ENDBRANCH   1   5
BRANCH   2  14
HETATM   14  C   UNK N   1      34.938  16.557   9.855  0.00  0.00     0.142 A 
HETATM   15  O   UNK N   1      35.248  16.810  11.100  0.00  0.00    -0.317 OA
HETATM   16  C   UNK N   1      35.973  15.827  11.578  0.00  0.00     0.143 A 
HETATM   17  C   UNK N   1      36.147  14.876  10.585  0.00  0.00     0.027 A 
HETATM   18  C   UNK N   1      35.477  15.347   9.471  0.00  0.00     0.045 A 
ENDBRANCH   2  14
TORSDOF 6
ENDMDL
MODEL 7
REMARK VINA RESULT:      -5.1     10.702     13.298
REMARK  6 active torsions:
REMARK  status: ('A' for Active; 'I' for Inactive)
REMARK    1  A    between atoms: C_2  and  N_1 
REMARK       I    between atoms: N_1  and  C_10 
REMARK    2  A    between atoms: C_2  and  C_3 
REMARK    3  A    between atoms: C_2  and  C_7 
REMARK    4  A    between atoms: C_3  and  C_4 
REMARK    5  A    between atoms: C_7  and  O_8 
REMARK    6  A    between atoms: C_10  and  C_12 
ROOT
HETATM    1  N   UNK N   1      33.647  15.866   9.253  0.00  0.00    -0.341 N 
HETATM    2  C   UNK N   1      34.637  16.266  10.095  0.00  0.00     0.276 C 
HETATM    3  O   UNK N   1      35.222  17.321   9.925  0.00  0.00    -0.265 OA
HETATM    4  H   UNK N   1      33.200  15.017   9.471  0.00  0.00     0.163 HD
ENDROOT
BRANCH   1   5
HETATM    5  C   UNK N   1      33.177  16.561   8.068  0.00  0.00     0.183 C 
BRANCH   5   6
HETATM    6  C   UNK N   1      32.290  17.703   8.594  0.00  0.00     0.040 C 
BRANCH   6   7
HETATM    7  C   UNK N   1      30.781  17.467   8.650  0.00  0.00    -0.020 C 
HETATM    8  C   UNK N   1      30.276  17.253   7.238  0.00  0.00     0.009 C 
HETATM    9  C   UNK N   1      30.029  18.619   9.283  0.00  0.00     0.009 C 
ENDBRANCH   6   7
ENDBRANCH   5   6
BRANCH   5  10
HETATM   10  C   UNK N   1      34.323  17.049   7.194  0.00  0.00     0.163 C 
HETATM   11  O   UNK N   1      34.906  16.268   6.460  0.00  0.00    -0.648 OA
BRANCH  10  12
HETATM   12  O   UNK N   1      34.675  18.349   7.175  0.00  0.00    -0.775 OA
HETATM   13  H   UNK N   1      34.785  19.031   6.541  0.00  0.00     0.167 HD
ENDBRANCH  10  12
ENDBRANCH   5  10
ENDBRANCH   1   5
BRANCH   2  14
HETATM   14  C   UNK N   1      35.021  15.378  11.205  0.00  0.00     0.142 A 
HETATM   15  O   UNK N   1      34.363  14.296  11.533  0.00  0.00    -0.317 OA
HETATM   16  C   UNK N   1      34.966  13.706  12.538  0.00  0.00     0.143 A 
HETATM   17  C   UNK N   1      36.083  14.448  12.886  0.00  0.00     0.027 A 
HETATM   18  C   UNK N   1      36.120  15.528  12.024  0.00  0.00     0.045 A 
ENDBRANCH   2  14
TORSDOF 6
ENDMDL
MODEL 8
REMARK VINA RESULT:      -5.1     11.590     13.639
REMARK  6 active torsions:
REMARK  status: ('A' for Active; 'I' for Inactive)
REMARK    1  A    between atoms: C_2  and  N_1 
REMARK       I    between atoms: N_1  and  C_10 
REMARK    2  A    between atoms: C_2  and  C_3 
REMARK    3  A    between atoms: C_2  and  C_7 
REMARK    4  A    between atoms: C_3  and  C_4 
REMARK    5  A    between atoms: C_7  and  O_8 
REMARK    6  A    between atoms: C_10  and  C_12 
ROOT
HETATM    1  N   UNK N   1      34.540  14.050  11.519  0.00  0.00    -0.341 N 
HETATM    2  C   UNK N   1      35.345  13.150  12.145  0.00  0.00     0.276 C 
HETATM    3  O   UNK N   1      36.489  12.959  11.771  0.00  0.00    -0.265 OA
HETATM    4  H   UNK N   1      33.639  14.171  11.896  0.00  0.00     0.163 HD
ENDROOT
BRANCH   1   5
HETATM    5  C   UNK N   1      34.870  14.852  10.355  0.00  0.00     0.183 C 
BRANCH   5   6
HETATM    6  C   UNK N   1      33.519  15.201   9.708  0.00  0.00     0.040 C 
BRANCH   6   7
HETATM    7  C   UNK N   1      33.491  15.443   8.200  0.00  0.00    -0.020 C 
HETATM    8  C   UNK N   1      32.181  14.913   7.653  0.00  0.00     0.009 C 
HETATM    9  C   UNK N   1      34.643  14.778   7.476  0.00  0.00     0.009 C 
ENDBRANCH   6   7
ENDBRANCH   5   6
BRANCH   5  10
HETATM   10  C   UNK N   1      35.696  16.078  10.715  0.00  0.00     0.163 C 
HETATM   11  O   UNK N   1      35.151  17.160  10.859  0.00  0.00    -0.648 OA
BRANCH  10  12
HETATM   12  O   UNK N   1      37.022  15.981  10.931  0.00  0.00    -0.775 OA
HETATM   13  H   UNK N   1      37.639  15.322  11.183  0.00  0.00     0.167 HD
ENDBRANCH  10  12
ENDBRANCH   5  10
ENDBRANCH   1   5
BRANCH   2  14
HETATM   14  C   UNK N   1      34.795  12.375  13.270  0.00  0.00     0.142 A 
HETATM   15  O   UNK N   1      34.675  12.842  14.486  0.00  0.00    -0.317 OA
HETATM   16  C   UNK N   1      34.127  11.928  15.252  0.00  0.00     0.143 A 
HETATM   17  C   UNK N   1      33.876  10.798  14.491  0.00  0.00     0.027 A 
HETATM   18  C   UNK N   1      34.307  11.087  13.209  0.00  0.00     0.045 A 
ENDBRANCH   2  14
TORSDOF 6
ENDMDL
MODEL 9
REMARK VINA RESULT:      -5.1      9.441     11.451
REMARK  6 active torsions:
REMARK  status: ('A' for Active; 'I' for Inactive)
REMARK    1  A    between atoms: C_2  and  N_1 
REMARK       I    between atoms: N_1  and  C_10 
REMARK    2  A    between atoms: C_2  and  C_3 
REMARK    3  A    between atoms: C_2  and  C_7 
REMARK    4  A    between atoms: C_3  and  C_4 
REMARK    5  A    between atoms: C_7  and  O_8 
REMARK    6  A    between atoms: C_10  and  C_12 
ROOT
HETATM    1  N   UNK N   1      32.111  17.132   8.034  0.00  0.00    -0.341 N 
HETATM    2  C   UNK N   1      30.890  17.687   8.258  0.00  0.00     0.276 C 
HETATM    3  O   UNK N   1      30.735  18.554   9.101  0.00  0.00    -0.265 OA
HETATM    4  H   UNK N   1      32.164  16.460   7.317  0.00  0.00     0.163 HD
ENDROOT
BRANCH   1   5
HETATM    5  C   UNK N   1      33.345  17.428   8.739  0.00  0.00     0.183 C 
BRANCH   5   6
HETATM    6  C   UNK N   1      33.894  16.061   9.184  0.00  0.00     0.040 C 
BRANCH   6   7
HETATM    7  C   UNK N   1      35.320  16.007   9.728  0.00  0.00    -0.020 C 
HETATM    8  C   UNK N   1      35.920  14.663   9.371  0.00  0.00     0.009 C 
HETATM    9  C   UNK N   1      35.384  16.203  11.229  0.00  0.00     0.009 C 
ENDBRANCH   6   7
ENDBRANCH   5   6
BRANCH   5  10
HETATM   10  C   UNK N   1      34.324  18.215   7.881  0.00  0.00     0.163 C 
HETATM   11  O   UNK N   1      34.981  19.117   8.376  0.00  0.00    -0.648 OA
BRANCH  10  12
HETATM   12  O   UNK N   1      34.521  17.900   6.587  0.00  0.00    -0.775 OA
HETATM   13  H   UNK N   1      34.091  18.035   5.765  0.00  0.00     0.167 HD
ENDBRANCH  10  12
ENDBRANCH   5  10
ENDBRANCH   1   5
BRANCH   2  14
HETATM   14  C   UNK N   1      29.738  17.195   7.484  0.00  0.00     0.142 A 
HETATM   15  O   UNK N   1      28.497  17.521   7.737  0.00  0.00    -0.317 OA
HETATM   16  C   UNK N   1      27.708  16.948   6.859  0.00  0.00     0.143 A 
HETATM   17  C   UNK N   1      28.480  16.204   5.982  0.00  0.00     0.027 A 
HETATM   18  C   UNK N   1      29.793  16.364   6.384  0.00  0.00     0.045 A 
ENDBRANCH   2  14
TORSDOF 6
ENDMDL
