MODEL 1
REMARK VINA RESULT:      -7.2      0.000      0.000
REMARK  5 active torsions:
REMARK  status: ('A' for Active; 'I' for Inactive)
REMARK    1  A    between atoms: C_1  and  C_9 
REMARK    2  A    between atoms: O_5  and  C_9 
REMARK    3  A    between atoms: C_8  and  N_10 
REMARK    4  A    between atoms: N_10  and  C_11 
REMARK    5  A    between atoms: C_13  and  C_17 
ROOT
HETATM    1  N   UNK N   1      32.852  15.967   7.553  0.00  0.00    -0.355 N 
HETATM    2  H   UNK N   1      33.283  15.550   6.772  0.00  0.00     0.166 HD
ENDROOT
BRANCH   1   3
HETATM    3  C   UNK N   1      33.609  15.947   8.761  0.00  0.00     0.049 A 
HETATM    4  C   UNK N   1      34.514  17.006   9.040  0.00  0.00     0.064 A 
HETATM    5  C   UNK N   1      35.257  16.976  10.228  0.00  0.00     0.020 A 
HETATM    6  C   UNK N   1      35.117  15.924  11.133  0.00  0.00     0.001 A 
HETATM    7  C   UNK N   1      34.232  14.883  10.861  0.00  0.00     0.002 A 
HETATM    8  C   UNK N   1      33.484  14.895   9.683  0.00  0.00     0.030 A 
BRANCH   4   9
HETATM    9  C   UNK N   1      34.717  18.149   8.109  0.00  0.00     0.178 C 
HETATM   10  O   UNK N   1      35.006  19.260   8.525  0.00  0.00    -0.646 OA
BRANCH   9  11
HETATM   11  O   UNK N   1      34.574  17.966   6.781  0.00  0.00    -0.773 OA
HETATM   12  H   UNK N   1      34.389  18.696   6.223  0.00  0.00     0.167 HD
ENDBRANCH   9  11
ENDBRANCH   4   9
ENDBRANCH   1   3
BRANCH   1  13
HETATM   13  C   UNK N   1      31.557  16.510   7.327  0.00  0.00     0.033 A 
HETATM   14  C   UNK N   1      30.822  16.934   8.436  0.00  0.00     0.045 A 
HETATM   15  C   UNK N   1      29.574  17.547   8.280  0.00  0.00     0.050 A 
HETATM   16  C   UNK N   1      29.050  17.724   6.993  0.00  0.00     0.016 A 
HETATM   17  C   UNK N   1      29.767  17.281   5.877  0.00  0.00     0.003 A 
HETATM   18  C   UNK N   1      31.022  16.685   6.042  0.00  0.00     0.029 A 
BRANCH  15  19
HETATM   19  C   UNK N   1      28.834  18.028   9.494  0.00  0.00     0.417 C 
HETATM   20  F   UNK N   1      29.631  18.906  10.205  0.00  0.00    -0.166 F 
HETATM   21  F   UNK N   1      28.483  16.972  10.318  0.00  0.00    -0.166 F 
HETATM   22  F   UNK N   1      27.681  18.684   9.100  0.00  0.00    -0.166 F 
ENDBRANCH  15  19
ENDBRANCH   1  13
TORSDOF 5
ENDMDL
MODEL 2
REMARK VINA RESULT:      -7.0      3.644      6.452
REMARK  5 active torsions:
REMARK  status: ('A' for Active; 'I' for Inactive)
REMARK    1  A    between atoms: C_1  and  C_9 
REMARK    2  A    between atoms: O_5  and  C_9 
REMARK    3  A    between atoms: C_8  and  N_10 
REMARK    4  A    between atoms: N_10  and  C_11 
REMARK    5  A    between atoms: C_13  and  C_17 
ROOT
HETATM    1  N   UNK N   1      29.558  17.423   6.201  0.00  0.00    -0.355 N 
HETATM    2  H   UNK N   1      29.163  16.586   6.537  0.00  0.00     0.166 HD
ENDROOT
BRANCH   1   3
HETATM    3  C   UNK N   1      28.654  18.515   6.044  0.00  0.00     0.049 A 
HETATM    4  C   UNK N   1      28.087  19.127   7.194  0.00  0.00     0.064 A 
HETATM    5  C   UNK N   1      27.196  20.197   7.031  0.00  0.00     0.020 A 
HETATM    6  C   UNK N   1      26.863  20.663   5.760  0.00  0.00     0.001 A 
HETATM    7  C   UNK N   1      27.415  20.063   4.630  0.00  0.00     0.002 A 
HETATM    8  C   UNK N   1      28.304  18.997   4.772  0.00  0.00     0.030 A 
BRANCH   4   9
HETATM    9  C   UNK N   1      28.393  18.668   8.577  0.00  0.00     0.178 C 
HETATM   10  O   UNK N   1      29.507  18.802   9.056  0.00  0.00    -0.646 OA
BRANCH   9  11
HETATM   11  O   UNK N   1      27.429  18.085   9.318  0.00  0.00    -0.773 OA
HETATM   12  H   UNK N   1      26.924  17.380   8.961  0.00  0.00     0.167 HD
ENDBRANCH   9  11
ENDBRANCH   4   9
ENDBRANCH   1   3
BRANCH   1  13
HETATM   13  C   UNK N   1      30.954  17.384   5.934  0.00  0.00     0.033 A 
HETATM   14  C   UNK N   1      31.831  17.484   7.017  0.00  0.00     0.045 A 
HETATM   15  C   UNK N   1      33.214  17.376   6.835  0.00  0.00     0.050 A 
HETATM   16  C   UNK N   1      33.725  17.180   5.545  0.00  0.00     0.016 A 
HETATM   17  C   UNK N   1      32.857  17.102   4.451  0.00  0.00     0.003 A 
HETATM   18  C   UNK N   1      31.475  17.193   4.645  0.00  0.00     0.029 A 
BRANCH  15  19
HETATM   19  C   UNK N   1      34.121  17.446   8.029  0.00  0.00     0.417 C 
HETATM   20  F   UNK N   1      33.366  17.415   9.187  0.00  0.00    -0.166 F 
HETATM   21  F   UNK N   1      34.876  18.606   8.016  0.00  0.00    -0.166 F 
HETATM   22  F   UNK N   1      34.977  16.359   8.020  0.00  0.00    -0.166 F 
ENDBRANCH  15  19
ENDBRANCH   1  13
TORSDOF 5
ENDMDL
MODEL 3
REMARK VINA RESULT:      -6.9      4.309      5.936
REMARK  5 active torsions:
REMARK  status: ('A' for Active; 'I' for Inactive)
REMARK    1  A    between atoms: C_1  and  C_9 
REMARK    2  A    between atoms: O_5  and  C_9 
REMARK    3  A    between atoms: C_8  and  N_10 
REMARK    4  A    between atoms: N_10  and  C_11 
REMARK    5  A    between atoms: C_13  and  C_17 
ROOT
HETATM    1  N   UNK N   1      28.131  17.784   6.761  0.00  0.00    -0.355 N 
HETATM    2  H   UNK N   1      27.480  17.067   6.940  0.00  0.00     0.166 HD
ENDROOT
BRANCH   1   3
HETATM    3  C   UNK N   1      29.498  17.451   6.994  0.00  0.00     0.049 A 
HETATM    4  C   UNK N   1      30.012  17.484   8.318  0.00  0.00     0.064 A 
HETATM    5  C   UNK N   1      31.358  17.159   8.538  0.00  0.00     0.020 A 
HETATM    6  C   UNK N   1      32.191  16.807   7.476  0.00  0.00     0.001 A 
HETATM    7  C   UNK N   1      31.690  16.776   6.176  0.00  0.00     0.002 A 
HETATM    8  C   UNK N   1      30.353  17.096   5.938  0.00  0.00     0.030 A 
BRANCH   4   9
HETATM    9  C   UNK N   1      29.178  17.865   9.491  0.00  0.00     0.178 C 
HETATM   10  O   UNK N   1      28.038  17.446   9.618  0.00  0.00    -0.646 OA
BRANCH   9  11
HETATM   11  O   UNK N   1      29.679  18.692  10.429  0.00  0.00    -0.773 OA
HETATM   12  H   UNK N   1      29.324  18.688  11.297  0.00  0.00     0.167 HD
ENDBRANCH   9  11
ENDBRANCH   4   9
ENDBRANCH   1   3
BRANCH   1  13
HETATM   13  C   UNK N   1      27.584  19.015   6.304  0.00  0.00     0.033 A 
HETATM   14  C   UNK N   1      26.899  19.016   5.087  0.00  0.00     0.045 A 
HETATM   15  C   UNK N   1      26.271  20.175   4.616  0.00  0.00     0.050 A 
HETATM   16  C   UNK N   1      26.345  21.353   5.372  0.00  0.00     0.016 A 
HETATM   17  C   UNK N   1      27.049  21.369   6.580  0.00  0.00     0.003 A 
HETATM   18  C   UNK N   1      27.658  20.201   7.051  0.00  0.00     0.029 A 
BRANCH  15  19
HETATM   19  C   UNK N   1      25.509  20.126   3.325  0.00  0.00     0.417 C 
HETATM   20  F   UNK N   1      26.113  20.955   2.398  0.00  0.00    -0.166 F 
HETATM   21  F   UNK N   1      24.197  20.531   3.502  0.00  0.00    -0.166 F 
HETATM   22  F   UNK N   1      25.510  18.830   2.839  0.00  0.00    -0.166 F 
ENDBRANCH  15  19
ENDBRANCH   1  13
TORSDOF 5
ENDMDL
MODEL 4
REMARK VINA RESULT:      -6.6     13.521     15.656
REMARK  5 active torsions:
REMARK  status: ('A' for Active; 'I' for Inactive)
REMARK    1  A    between atoms: C_1  and  C_9 
REMARK    2  A    between atoms: O_5  and  C_9 
REMARK    3  A    between atoms: C_8  and  N_10 
REMARK    4  A    between atoms: N_10  and  C_11 
REMARK    5  A    between atoms: C_13  and  C_17 
ROOT
HETATM    1  N   UNK N   1      29.243  24.227  -4.747  0.00  0.00    -0.355 N 
HETATM    2  H   UNK N   1      29.811  24.990  -4.493  0.00  0.00     0.166 HD
ENDROOT
BRANCH   1   3
HETATM    3  C   UNK N   1      29.887  22.955  -4.767  0.00  0.00     0.049 A 
HETATM    4  C   UNK N   1      30.109  22.262  -3.547  0.00  0.00     0.064 A 
HETATM    5  C   UNK N   1      30.746  21.014  -3.575  0.00  0.00     0.020 A 
HETATM    6  C   UNK N   1      31.163  20.450  -4.781  0.00  0.00     0.001 A 
HETATM    7  C   UNK N   1      30.949  21.130  -5.979  0.00  0.00     0.002 A 
HETATM    8  C   UNK N   1      30.316  22.373  -5.970  0.00  0.00     0.030 A 
BRANCH   4   9
HETATM    9  C   UNK N   1      29.699  22.815  -2.227  0.00  0.00     0.178 C 
HETATM   10  O   UNK N   1      30.521  23.041  -1.353  0.00  0.00    -0.646 OA
BRANCH   9  11
HETATM   11  O   UNK N   1      28.398  23.068  -1.981  0.00  0.00    -0.773 OA
HETATM   12  H   UNK N   1      28.060  23.936  -2.086  0.00  0.00     0.167 HD
ENDBRANCH   9  11
ENDBRANCH   4   9
ENDBRANCH   1   3
BRANCH   1  13
HETATM   13  C   UNK N   1      27.887  24.539  -5.046  0.00  0.00     0.033 A 
HETATM   14  C   UNK N   1      27.399  25.785  -4.648  0.00  0.00     0.045 A 
HETATM   15  C   UNK N   1      26.099  26.186  -4.977  0.00  0.00     0.050 A 
HETATM   16  C   UNK N   1      25.274  25.317  -5.704  0.00  0.00     0.016 A 
HETATM   17  C   UNK N   1      25.746  24.058  -6.088  0.00  0.00     0.003 A 
HETATM   18  C   UNK N   1      27.052  23.673  -5.769  0.00  0.00     0.029 A 
BRANCH  15  19
HETATM   19  C   UNK N   1      25.624  27.549  -4.567  0.00  0.00     0.417 C 
HETATM   20  F   UNK N   1      26.554  28.498  -4.949  0.00  0.00    -0.166 F 
HETATM   21  F   UNK N   1      25.441  27.625  -3.198  0.00  0.00    -0.166 F 
HETATM   22  F   UNK N   1      24.419  27.823  -5.191  0.00  0.00    -0.166 F 
ENDBRANCH  15  19
ENDBRANCH   1  13
TORSDOF 5
ENDMDL
MODEL 5
REMARK VINA RESULT:      -6.6      4.213      6.610
REMARK  5 active torsions:
REMARK  status: ('A' for Active; 'I' for Inactive)
REMARK    1  A    between atoms: C_1  and  C_9 
REMARK    2  A    between atoms: O_5  and  C_9 
REMARK    3  A    between atoms: C_8  and  N_10 
REMARK    4  A    between atoms: N_10  and  C_11 
REMARK    5  A    between atoms: C_13  and  C_17 
ROOT
HETATM    1  N   UNK N   1      28.524  16.818   6.067  0.00  0.00    -0.355 N 
HETATM    2  H   UNK N   1      27.841  16.234   6.470  0.00  0.00     0.166 HD
ENDROOT
BRANCH   1   3
HETATM    3  C   UNK N   1      28.137  18.176   5.869  0.00  0.00     0.049 A 
HETATM    4  C   UNK N   1      28.064  19.055   6.982  0.00  0.00     0.064 A 
HETATM    5  C   UNK N   1      27.679  20.388   6.779  0.00  0.00     0.020 A 
HETATM    6  C   UNK N   1      27.369  20.855   5.502  0.00  0.00     0.001 A 
HETATM    7  C   UNK N   1      27.437  19.994   4.408  0.00  0.00     0.002 A 
HETATM    8  C   UNK N   1      27.818  18.665   4.591  0.00  0.00     0.030 A 
BRANCH   4   9
HETATM    9  C   UNK N   1      28.370  18.613   8.371  0.00  0.00     0.178 C 
HETATM   10  O   UNK N   1      29.517  18.399   8.728  0.00  0.00    -0.646 OA
BRANCH   9  11
HETATM   11  O   UNK N   1      27.367  18.438   9.254  0.00  0.00    -0.773 OA
HETATM   12  H   UNK N   1      27.476  18.701  10.147  0.00  0.00     0.167 HD
ENDBRANCH   9  11
ENDBRANCH   4   9
ENDBRANCH   1   3
BRANCH   1  13
HETATM   13  C   UNK N   1      29.766  16.196   5.761  0.00  0.00     0.033 A 
HETATM   14  C   UNK N   1      30.913  16.993   5.755  0.00  0.00     0.045 A 
HETATM   15  C   UNK N   1      32.176  16.432   5.537  0.00  0.00     0.050 A 
HETATM   16  C   UNK N   1      32.287  15.054   5.307  0.00  0.00     0.016 A 
HETATM   17  C   UNK N   1      31.142  14.252   5.288  0.00  0.00     0.003 A 
HETATM   18  C   UNK N   1      29.886  14.818   5.524  0.00  0.00     0.029 A 
BRANCH  15  19
HETATM   19  C   UNK N   1      33.390  17.314   5.580  0.00  0.00     0.417 C 
HETATM   20  F   UNK N   1      34.531  16.533   5.553  0.00  0.00    -0.166 F 
HETATM   21  F   UNK N   1      33.405  18.089   6.726  0.00  0.00    -0.166 F 
HETATM   22  F   UNK N   1      33.390  18.151   4.478  0.00  0.00    -0.166 F 
ENDBRANCH  15  19
ENDBRANCH   1  13
TORSDOF 5
ENDMDL
MODEL 6
REMARK VINA RESULT:      -6.6      3.163      4.408
REMARK  5 active torsions:
REMARK  status: ('A' for Active; 'I' for Inactive)
REMARK    1  A    between atoms: C_1  and  C_9 
REMARK    2  A    between atoms: O_5  and  C_9 
REMARK    3  A    between atoms: C_8  and  N_10 
REMARK    4  A    between atoms: N_10  and  C_11 
REMARK    5  A    between atoms: C_13  and  C_17 
ROOT
HETATM    1  N   UNK N   1      29.627  17.052   6.234  0.00  0.00    -0.355 N 
HETATM    2  H   UNK N   1      29.271  16.242   6.666  0.00  0.00     0.166 HD
ENDROOT
BRANCH   1   3
HETATM    3  C   UNK N   1      31.040  17.224   6.308  0.00  0.00     0.049 A 
HETATM    4  C   UNK N   1      31.655  17.450   7.568  0.00  0.00     0.064 A 
HETATM    5  C   UNK N   1      33.045  17.620   7.631  0.00  0.00     0.020 A 
HETATM    6  C   UNK N   1      33.825  17.572   6.476  0.00  0.00     0.001 A 
HETATM    7  C   UNK N   1      33.224  17.353   5.237  0.00  0.00     0.002 A 
HETATM    8  C   UNK N   1      31.842  17.180   5.155  0.00  0.00     0.030 A 
BRANCH   4   9
HETATM    9  C   UNK N   1      30.877  17.526   8.835  0.00  0.00     0.178 C 
HETATM   10  O   UNK N   1      30.257  18.533   9.137  0.00  0.00    -0.646 OA
BRANCH   9  11
HETATM   11  O   UNK N   1      30.857  16.470   9.673  0.00  0.00    -0.773 OA
HETATM   12  H   UNK N   1      30.042  16.155  10.012  0.00  0.00     0.167 HD
ENDBRANCH   9  11
ENDBRANCH   4   9
ENDBRANCH   1   3
BRANCH   1  13
HETATM   13  C   UNK N   1      28.662  17.899   5.619  0.00  0.00     0.033 A 
HETATM   14  C   UNK N   1      28.240  19.029   6.322  0.00  0.00     0.045 A 
HETATM   15  C   UNK N   1      27.352  19.944   5.746  0.00  0.00     0.050 A 
HETATM   16  C   UNK N   1      26.871  19.713   4.450  0.00  0.00     0.016 A 
HETATM   17  C   UNK N   1      27.269  18.571   3.747  0.00  0.00     0.003 A 
HETATM   18  C   UNK N   1      28.171  17.672   4.324  0.00  0.00     0.029 A 
BRANCH  15  19
HETATM   19  C   UNK N   1      26.954  21.168   6.516  0.00  0.00     0.417 C 
HETATM   20  F   UNK N   1      28.023  22.043   6.580  0.00  0.00    -0.166 F 
HETATM   21  F   UNK N   1      26.561  20.844   7.803  0.00  0.00    -0.166 F 
HETATM   22  F   UNK N   1      25.898  21.793   5.875  0.00  0.00    -0.166 F 
ENDBRANCH  15  19
ENDBRANCH   1  13
TORSDOF 5
ENDMDL
MODEL 7
REMARK VINA RESULT:      -6.5      6.056      8.424
REMARK  5 active torsions:
REMARK  status: ('A' for Active; 'I' for Inactive)
REMARK    1  A    between atoms: C_1  and  C_9 
REMARK    2  A    between atoms: O_5  and  C_9 
REMARK    3  A    between atoms: C_8  and  N_10 
REMARK    4  A    between atoms: N_10  and  C_11 
REMARK    5  A    between atoms: C_13  and  C_17 
ROOT
HETATM    1  N   UNK N   1      36.912  14.023  12.926  0.00  0.00    -0.355 N 
HETATM    2  H   UNK N   1      37.492  14.813  13.026  0.00  0.00     0.166 HD
ENDROOT
BRANCH   1   3
HETATM    3  C   UNK N   1      36.778  13.518  11.600  0.00  0.00     0.049 A 
HETATM    4  C   UNK N   1      35.776  14.050  10.744  0.00  0.00     0.064 A 
HETATM    5  C   UNK N   1      35.650  13.545   9.442  0.00  0.00     0.020 A 
HETATM    6  C   UNK N   1      36.490  12.532   8.983  0.00  0.00     0.001 A 
HETATM    7  C   UNK N   1      37.472  12.006   9.821  0.00  0.00     0.002 A 
HETATM    8  C   UNK N   1      37.613  12.497  11.120  0.00  0.00     0.030 A 
BRANCH   4   9
HETATM    9  C   UNK N   1      34.840  15.123  11.179  0.00  0.00     0.178 C 
HETATM   10  O   UNK N   1      35.244  16.243  11.450  0.00  0.00    -0.646 OA
BRANCH   9  11
HETATM   11  O   UNK N   1      33.522  14.859  11.285  0.00  0.00    -0.773 OA
HETATM   12  H   UNK N   1      33.177  14.504  12.081  0.00  0.00     0.167 HD
ENDBRANCH   9  11
ENDBRANCH   4   9
ENDBRANCH   1   3
BRANCH   1  13
HETATM   13  C   UNK N   1      36.318  13.537  14.124  0.00  0.00     0.033 A 
HETATM   14  C   UNK N   1      35.544  12.377  14.047  0.00  0.00     0.045 A 
HETATM   15  C   UNK N   1      34.994  11.802  15.198  0.00  0.00     0.050 A 
HETATM   16  C   UNK N   1      35.213  12.409  16.442  0.00  0.00     0.016 A 
HETATM   17  C   UNK N   1      35.967  13.583  16.527  0.00  0.00     0.003 A 
HETATM   18  C   UNK N   1      36.527  14.141  15.373  0.00  0.00     0.029 A 
BRANCH  15  19
HETATM   19  C   UNK N   1      34.204  10.532  15.081  0.00  0.00     0.417 C 
HETATM   20  F   UNK N   1      34.208   9.870  16.295  0.00  0.00    -0.166 F 
HETATM   21  F   UNK N   1      34.737   9.698  14.113  0.00  0.00    -0.166 F 
HETATM   22  F   UNK N   1      32.898  10.833  14.736  0.00  0.00    -0.166 F 
ENDBRANCH  15  19
ENDBRANCH   1  13
TORSDOF 5
ENDMDL
MODEL 8
REMARK VINA RESULT:      -6.3      3.143      4.307
REMARK  5 active torsions:
REMARK  status: ('A' for Active; 'I' for Inactive)
REMARK    1  A    between atoms: C_1  and  C_9 
REMARK    2  A    between atoms: O_5  and  C_9 
REMARK    3  A    between atoms: C_8  and  N_10 
REMARK    4  A    between atoms: N_10  and  C_11 
REMARK    5  A    between atoms: C_13  and  C_17 
ROOT
HETATM    1  N   UNK N   1      29.846  16.802   6.292  0.00  0.00    -0.355 N 
HETATM    2  H   UNK N   1      29.581  15.876   6.498  0.00  0.00     0.166 HD
ENDROOT
BRANCH   1   3
HETATM    3  C   UNK N   1      31.176  17.160   6.661  0.00  0.00     0.049 A 
HETATM    4  C   UNK N   1      32.213  17.103   5.691  0.00  0.00     0.064 A 
HETATM    5  C   UNK N   1      33.518  17.454   6.063  0.00  0.00     0.020 A 
HETATM    6  C   UNK N   1      33.807  17.855   7.367  0.00  0.00     0.001 A 
HETATM    7  C   UNK N   1      32.792  17.910   8.321  0.00  0.00     0.002 A 
HETATM    8  C   UNK N   1      31.487  17.565   7.969  0.00  0.00     0.030 A 
BRANCH   4   9
HETATM    9  C   UNK N   1      31.972  16.670   4.287  0.00  0.00     0.178 C 
HETATM   10  O   UNK N   1      32.256  17.392   3.345  0.00  0.00    -0.646 OA
BRANCH   9  11
HETATM   11  O   UNK N   1      31.423  15.463   4.044  0.00  0.00    -0.773 OA
HETATM   12  H   UNK N   1      30.690  15.170   4.549  0.00  0.00     0.167 HD
ENDBRANCH   9  11
ENDBRANCH   4   9
ENDBRANCH   1   3
BRANCH   1  13
HETATM   13  C   UNK N   1      28.853  17.605   5.667  0.00  0.00     0.033 A 
HETATM   14  C   UNK N   1      28.421  18.752   6.336  0.00  0.00     0.045 A 
HETATM   15  C   UNK N   1      27.502  19.626   5.745  0.00  0.00     0.050 A 
HETATM   16  C   UNK N   1      27.001  19.338   4.468  0.00  0.00     0.016 A 
HETATM   17  C   UNK N   1      27.410  18.180   3.799  0.00  0.00     0.003 A 
HETATM   18  C   UNK N   1      28.341  17.321   4.391  0.00  0.00     0.029 A 
BRANCH  15  19
HETATM   19  C   UNK N   1      27.094  20.870   6.478  0.00  0.00     0.417 C 
HETATM   20  F   UNK N   1      26.779  20.554   7.787  0.00  0.00    -0.166 F 
HETATM   21  F   UNK N   1      25.994  21.463   5.883  0.00  0.00    -0.166 F 
HETATM   22  F   UNK N   1      28.142  21.773   6.472  0.00  0.00    -0.166 F 
ENDBRANCH  15  19
ENDBRANCH   1  13
TORSDOF 5
ENDMDL
MODEL 9
REMARK VINA RESULT:      -6.3     11.278     13.692
REMARK  5 active torsions:
REMARK  status: ('A' for Active; 'I' for Inactive)
REMARK    1  A    between atoms: C_1  and  C_9 
REMARK    2  A    between atoms: O_5  and  C_9 
REMARK    3  A    between atoms: C_8  and  N_10 
REMARK    4  A    between atoms: N_10  and  C_11 
REMARK    5  A    between atoms: C_13  and  C_17 
ROOT
HETATM    1  N   UNK N   1      35.095   9.958  19.433  0.00  0.00    -0.355 N 
HETATM    2  H   UNK N   1      35.979   9.601  19.681  0.00  0.00     0.166 HD
ENDROOT
BRANCH   1   3
HETATM    3  C   UNK N   1      35.064  10.772  18.262  0.00  0.00     0.049 A 
HETATM    4  C   UNK N   1      35.169  12.183  18.385  0.00  0.00     0.064 A 
HETATM    5  C   UNK N   1      35.134  12.976  17.230  0.00  0.00     0.020 A 
HETATM    6  C   UNK N   1      34.996  12.397  15.969  0.00  0.00     0.001 A 
HETATM    7  C   UNK N   1      34.890  11.012  15.845  0.00  0.00     0.002 A 
HETATM    8  C   UNK N   1      34.924  10.207  16.984  0.00  0.00     0.030 A 
BRANCH   4   9
HETATM    9  C   UNK N   1      35.305  12.863  19.703  0.00  0.00     0.178 C 
HETATM   10  O   UNK N   1      34.614  13.827  19.992  0.00  0.00    -0.646 OA
BRANCH   9  11
HETATM   11  O   UNK N   1      36.209  12.415  20.597  0.00  0.00    -0.773 OA
HETATM   12  H   UNK N   1      36.448  11.509  20.611  0.00  0.00     0.167 HD
ENDBRANCH   9  11
ENDBRANCH   4   9
ENDBRANCH   1   3
BRANCH   1  13
HETATM   13  C   UNK N   1      34.018   9.595  20.288  0.00  0.00     0.033 A 
HETATM   14  C   UNK N   1      33.086   8.671  19.811  0.00  0.00     0.045 A 
HETATM   15  C   UNK N   1      32.046   8.213  20.628  0.00  0.00     0.050 A 
HETATM   16  C   UNK N   1      31.933   8.699  21.937  0.00  0.00     0.016 A 
HETATM   17  C   UNK N   1      32.849   9.641  22.417  0.00  0.00     0.003 A 
HETATM   18  C   UNK N   1      33.895  10.081  21.599  0.00  0.00     0.029 A 
BRANCH  15  19
HETATM   19  C   UNK N   1      31.088   7.188  20.093  0.00  0.00     0.417 C 
HETATM   20  F   UNK N   1      31.720   6.418  19.134  0.00  0.00    -0.166 F 
HETATM   21  F   UNK N   1      29.978   7.789  19.526  0.00  0.00    -0.166 F 
HETATM   22  F   UNK N   1      30.669   6.368  21.126  0.00  0.00    -0.166 F 
ENDBRANCH  15  19
ENDBRANCH   1  13
TORSDOF 5
ENDMDL
