MODEL 1
REMARK VINA RESULT:      -5.9      0.000      0.000
REMARK  3 active torsions:
REMARK  status: ('A' for Active; 'I' for Inactive)
REMARK    1  A    between atoms: C_5  and  O_6 
REMARK    2  A    between atoms: C_8  and  O_9 
REMARK    3  A    between atoms: C_14  and  O_15 
ROOT
HETATM    1  O   UNK N   1      31.858  14.866   7.556  0.00  0.00    -0.284 OA
HETATM    2  C   UNK N   1      32.620  15.803   7.748  0.00  0.00     0.216 A 
HETATM    3  C   UNK N   1      33.488  15.822   8.941  0.00  0.00     0.036 A 
HETATM    4  C   UNK N   1      33.438  14.765   9.853  0.00  0.00     0.053 A 
HETATM    5  C   UNK N   1      34.250  14.768  10.981  0.00  0.00     0.069 A 
HETATM    6  C   UNK N   1      35.123  15.833  11.211  0.00  0.00     0.074 A 
HETATM    7  C   UNK N   1      35.190  16.902  10.311  0.00  0.00     0.083 A 
HETATM    8  C   UNK N   1      34.367  16.907   9.159  0.00  0.00     0.062 A 
HETATM    9  C   UNK N   1      34.389  18.015   8.161  0.00  0.00     0.188 A 
HETATM   10  O   UNK N   1      35.130  18.977   8.300  0.00  0.00    -0.287 OA
HETATM   11  C   UNK N   1      33.501  17.955   6.978  0.00  0.00     0.096 A 
HETATM   12  C   UNK N   1      32.671  16.920   6.781  0.00  0.00     0.120 A 
ENDROOT
BRANCH   5  13
HETATM   13  O   UNK N   1      34.188  13.744  11.846  0.00  0.00    -0.361 OA
HETATM   14  H   UNK N   1      34.544  13.838  12.709  0.00  0.00     0.217 HD
ENDBRANCH   5  13
BRANCH   7  15
HETATM   15  O   UNK N   1      36.041  17.913  10.560  0.00  0.00    -0.360 OA
HETATM   16  H   UNK N   1      36.293  18.495   9.870  0.00  0.00     0.217 HD
ENDBRANCH   7  15
BRANCH  12  17
HETATM   17  O   UNK N   1      31.878  16.901   5.693  0.00  0.00    -0.357 OA
HETATM   18  H   UNK N   1      31.014  17.262   5.736  0.00  0.00     0.218 HD
ENDBRANCH  12  17
TORSDOF 3
ENDMDL
MODEL 2
REMARK VINA RESULT:      -5.9      3.183      5.332
REMARK  3 active torsions:
REMARK  status: ('A' for Active; 'I' for Inactive)
REMARK    1  A    between atoms: C_5  and  O_6 
REMARK    2  A    between atoms: C_8  and  O_9 
REMARK    3  A    between atoms: C_14  and  O_15 
ROOT
HETATM    1  O   UNK N   1      29.985  18.856   9.970  0.00  0.00    -0.284 OA
HETATM    2  C   UNK N   1      29.807  18.212   8.946  0.00  0.00     0.216 A 
HETATM    3  C   UNK N   1      30.946  17.884   8.067  0.00  0.00     0.036 A 
HETATM    4  C   UNK N   1      32.232  18.312   8.409  0.00  0.00     0.053 A 
HETATM    5  C   UNK N   1      33.315  18.011   7.591  0.00  0.00     0.069 A 
HETATM    6  C   UNK N   1      33.124  17.277   6.420  0.00  0.00     0.074 A 
HETATM    7  C   UNK N   1      31.845  16.838   6.059  0.00  0.00     0.083 A 
HETATM    8  C   UNK N   1      30.736  17.140   6.885  0.00  0.00     0.062 A 
HETATM    9  C   UNK N   1      29.348  16.703   6.558  0.00  0.00     0.188 A 
HETATM   10  O   UNK N   1      29.110  16.057   5.549  0.00  0.00    -0.287 OA
HETATM   11  C   UNK N   1      28.235  17.054   7.468  0.00  0.00     0.096 A 
HETATM   12  C   UNK N   1      28.446  17.761   8.588  0.00  0.00     0.120 A 
ENDROOT
BRANCH   5  13
HETATM   13  O   UNK N   1      34.543  18.430   7.935  0.00  0.00    -0.361 OA
HETATM   14  H   UNK N   1      35.024  18.992   7.359  0.00  0.00     0.217 HD
ENDBRANCH   5  13
BRANCH   7  15
HETATM   15  O   UNK N   1      31.693  16.132   4.924  0.00  0.00    -0.360 OA
HETATM   16  H   UNK N   1      30.888  15.685   4.754  0.00  0.00     0.217 HD
ENDBRANCH   7  15
BRANCH  12  17
HETATM   17  O   UNK N   1      27.407  18.061   9.391  0.00  0.00    -0.357 OA
HETATM   18  H   UNK N   1      26.531  17.998   9.067  0.00  0.00     0.218 HD
ENDBRANCH  12  17
TORSDOF 3
ENDMDL
MODEL 3
REMARK VINA RESULT:      -5.8     10.322     12.413
REMARK  3 active torsions:
REMARK  status: ('A' for Active; 'I' for Inactive)
REMARK    1  A    between atoms: C_5  and  O_6 
REMARK    2  A    between atoms: C_8  and  O_9 
REMARK    3  A    between atoms: C_14  and  O_15 
ROOT
HETATM    1  O   UNK N   1      24.838  11.896  11.621  0.00  0.00    -0.284 OA
HETATM    2  C   UNK N   1      23.731  12.203  11.202  0.00  0.00     0.216 A 
HETATM    3  C   UNK N   1      23.589  12.863   9.890  0.00  0.00     0.036 A 
HETATM    4  C   UNK N   1      24.725  13.136   9.124  0.00  0.00     0.053 A 
HETATM    5  C   UNK N   1      24.609  13.757   7.886  0.00  0.00     0.069 A 
HETATM    6  C   UNK N   1      23.350  14.113   7.398  0.00  0.00     0.074 A 
HETATM    7  C   UNK N   1      22.199  13.848   8.149  0.00  0.00     0.083 A 
HETATM    8  C   UNK N   1      22.308  13.217   9.411  0.00  0.00     0.062 A 
HETATM    9  C   UNK N   1      21.122  12.907  10.260  0.00  0.00     0.188 A 
HETATM   10  O   UNK N   1      19.991  13.190   9.894  0.00  0.00    -0.287 OA
HETATM   11  C   UNK N   1      21.310  12.244  11.570  0.00  0.00     0.096 A 
HETATM   12  C   UNK N   1      22.531  11.913  12.015  0.00  0.00     0.120 A 
ENDROOT
BRANCH   5  13
HETATM   13  O   UNK N   1      25.711  14.012   7.164  0.00  0.00    -0.361 OA
HETATM   14  H   UNK N   1      25.759  13.736   6.270  0.00  0.00     0.217 HD
ENDBRANCH   5  13
BRANCH   7  15
HETATM   15  O   UNK N   1      21.000  14.203   7.652  0.00  0.00    -0.360 OA
HETATM   16  H   UNK N   1      20.866  15.070   7.324  0.00  0.00     0.217 HD
ENDBRANCH   7  15
BRANCH  12  17
HETATM   17  O   UNK N   1      22.662  11.311  13.212  0.00  0.00    -0.357 OA
HETATM   18  H   UNK N   1      21.906  11.147  13.740  0.00  0.00     0.218 HD
ENDBRANCH  12  17
TORSDOF 3
ENDMDL
MODEL 4
REMARK VINA RESULT:      -5.7      0.682      4.096
REMARK  3 active torsions:
REMARK  status: ('A' for Active; 'I' for Inactive)
REMARK    1  A    between atoms: C_5  and  O_6 
REMARK    2  A    between atoms: C_8  and  O_9 
REMARK    3  A    between atoms: C_14  and  O_15 
ROOT
HETATM    1  O   UNK N   1      32.723  13.519   9.055  0.00  0.00    -0.284 OA
HETATM    2  C   UNK N   1      33.426  14.470   9.364  0.00  0.00     0.216 A 
HETATM    3  C   UNK N   1      33.457  15.678   8.518  0.00  0.00     0.036 A 
HETATM    4  C   UNK N   1      32.679  15.734   7.359  0.00  0.00     0.053 A 
HETATM    5  C   UNK N   1      32.697  16.864   6.551  0.00  0.00     0.069 A 
HETATM    6  C   UNK N   1      33.497  17.956   6.894  0.00  0.00     0.074 A 
HETATM    7  C   UNK N   1      34.284  17.922   8.050  0.00  0.00     0.083 A 
HETATM    8  C   UNK N   1      34.272  16.775   8.879  0.00  0.00     0.062 A 
HETATM    9  C   UNK N   1      35.088  16.674  10.124  0.00  0.00     0.188 A 
HETATM   10  O   UNK N   1      35.809  17.592  10.483  0.00  0.00    -0.287 OA
HETATM   11  C   UNK N   1      35.026  15.443  10.944  0.00  0.00     0.096 A 
HETATM   12  C   UNK N   1      34.249  14.408  10.591  0.00  0.00     0.120 A 
ENDROOT
BRANCH   5  13
HETATM   13  O   UNK N   1      31.943  16.901   5.441  0.00  0.00    -0.361 OA
HETATM   14  H   UNK N   1      31.607  17.718   5.130  0.00  0.00     0.217 HD
ENDBRANCH   5  13
BRANCH   7  15
HETATM   15  O   UNK N   1      35.044  18.989   8.354  0.00  0.00    -0.360 OA
HETATM   16  H   UNK N   1      35.752  19.237   7.792  0.00  0.00     0.217 HD
ENDBRANCH   7  15
BRANCH  12  17
HETATM   17  O   UNK N   1      34.219  13.305  11.363  0.00  0.00    -0.357 OA
HETATM   18  H   UNK N   1      34.404  13.369  12.279  0.00  0.00     0.218 HD
ENDBRANCH  12  17
TORSDOF 3
ENDMDL
MODEL 5
REMARK VINA RESULT:      -5.6     10.569     12.108
REMARK  3 active torsions:
REMARK  status: ('A' for Active; 'I' for Inactive)
REMARK    1  A    between atoms: C_5  and  O_6 
REMARK    2  A    between atoms: C_8  and  O_9 
REMARK    3  A    between atoms: C_14  and  O_15 
ROOT
HETATM    1  O   UNK N   1      24.389  14.238   7.504  0.00  0.00    -0.284 OA
HETATM    2  C   UNK N   1      23.298  14.094   8.037  0.00  0.00     0.216 A 
HETATM    3  C   UNK N   1      23.183  13.348   9.305  0.00  0.00     0.036 A 
HETATM    4  C   UNK N   1      24.326  12.806   9.897  0.00  0.00     0.053 A 
HETATM    5  C   UNK N   1      24.235  12.101  11.091  0.00  0.00     0.069 A 
HETATM    6  C   UNK N   1      22.995  11.930  11.709  0.00  0.00     0.074 A 
HETATM    7  C   UNK N   1      21.837  12.465  11.134  0.00  0.00     0.083 A 
HETATM    8  C   UNK N   1      21.920  13.184   9.917  0.00  0.00     0.062 A 
HETATM    9  C   UNK N   1      20.725  13.779   9.252  0.00  0.00     0.188 A 
HETATM   10  O   UNK N   1      19.610  13.667   9.738  0.00  0.00    -0.287 OA
HETATM   11  C   UNK N   1      20.886  14.519   7.981  0.00  0.00     0.096 A 
HETATM   12  C   UNK N   1      22.090  14.669   7.408  0.00  0.00     0.120 A 
ENDROOT
BRANCH   5  13
HETATM   13  O   UNK N   1      25.343  11.587  11.646  0.00  0.00    -0.361 OA
HETATM   14  H   UNK N   1      25.273  10.980  12.357  0.00  0.00     0.217 HD
ENDBRANCH   5  13
BRANCH   7  15
HETATM   15  O   UNK N   1      20.656  12.283  11.753  0.00  0.00    -0.360 OA
HETATM   16  H   UNK N   1      20.058  12.999  11.840  0.00  0.00     0.217 HD
ENDBRANCH   7  15
BRANCH  12  17
HETATM   17  O   UNK N   1      22.196  15.349   6.250  0.00  0.00    -0.357 OA
HETATM   18  H   UNK N   1      22.405  14.896   5.458  0.00  0.00     0.218 HD
ENDBRANCH  12  17
TORSDOF 3
ENDMDL
MODEL 6
REMARK VINA RESULT:      -5.6     11.311     13.359
REMARK  3 active torsions:
REMARK  status: ('A' for Active; 'I' for Inactive)
REMARK    1  A    between atoms: C_5  and  O_6 
REMARK    2  A    between atoms: C_8  and  O_9 
REMARK    3  A    between atoms: C_14  and  O_15 
ROOT
HETATM    1  O   UNK N   1      19.717  16.815   3.850  0.00  0.00    -0.284 OA
HETATM    2  C   UNK N   1      20.286  17.850   3.534  0.00  0.00     0.216 A 
HETATM    3  C   UNK N   1      21.683  18.086   3.947  0.00  0.00     0.036 A 
HETATM    4  C   UNK N   1      22.356  17.122   4.701  0.00  0.00     0.053 A 
HETATM    5  C   UNK N   1      23.672  17.329   5.098  0.00  0.00     0.069 A 
HETATM    6  C   UNK N   1      24.332  18.507   4.743  0.00  0.00     0.074 A 
HETATM    7  C   UNK N   1      23.676  19.486   3.987  0.00  0.00     0.083 A 
HETATM    8  C   UNK N   1      22.336  19.284   3.579  0.00  0.00     0.062 A 
HETATM    9  C   UNK N   1      21.581  20.286   2.773  0.00  0.00     0.188 A 
HETATM   10  O   UNK N   1      22.098  21.338   2.428  0.00  0.00    -0.287 OA
HETATM   11  C   UNK N   1      20.182  20.009   2.381  0.00  0.00     0.096 A 
HETATM   12  C   UNK N   1      19.571  18.868   2.736  0.00  0.00     0.120 A 
ENDROOT
BRANCH   5  13
HETATM   13  O   UNK N   1      24.303  16.393   5.822  0.00  0.00    -0.361 OA
HETATM   14  H   UNK N   1      23.828  15.892   6.456  0.00  0.00     0.217 HD
ENDBRANCH   5  13
BRANCH   7  15
HETATM   15  O   UNK N   1      24.339  20.611   3.661  0.00  0.00    -0.360 OA
HETATM   16  H   UNK N   1      24.026  21.442   3.959  0.00  0.00     0.217 HD
ENDBRANCH   7  15
BRANCH  12  17
HETATM   17  O   UNK N   1      18.296  18.651   2.360  0.00  0.00    -0.357 OA
HETATM   18  H   UNK N   1      18.030  17.800   2.074  0.00  0.00     0.218 HD
ENDBRANCH  12  17
TORSDOF 3
ENDMDL
MODEL 7
REMARK VINA RESULT:      -5.6      1.444      5.333
REMARK  3 active torsions:
REMARK  status: ('A' for Active; 'I' for Inactive)
REMARK    1  A    between atoms: C_5  and  O_6 
REMARK    2  A    between atoms: C_8  and  O_9 
REMARK    3  A    between atoms: C_14  and  O_15 
ROOT
HETATM    1  O   UNK N   1      34.926  18.786   7.757  0.00  0.00    -0.284 OA
HETATM    2  C   UNK N   1      34.403  17.707   7.995  0.00  0.00     0.216 A 
HETATM    3  C   UNK N   1      33.491  17.089   7.012  0.00  0.00     0.036 A 
HETATM    4  C   UNK N   1      33.225  17.742   5.807  0.00  0.00     0.053 A 
HETATM    5  C   UNK N   1      32.369  17.174   4.871  0.00  0.00     0.069 A 
HETATM    6  C   UNK N   1      31.766  15.942   5.132  0.00  0.00     0.074 A 
HETATM    7  C   UNK N   1      32.019  15.271   6.333  0.00  0.00     0.083 A 
HETATM    8  C   UNK N   1      32.890  15.842   7.292  0.00  0.00     0.062 A 
HETATM    9  C   UNK N   1      33.201  15.178   8.591  0.00  0.00     0.188 A 
HETATM   10  O   UNK N   1      32.709  14.099   8.884  0.00  0.00    -0.287 OA
HETATM   11  C   UNK N   1      34.121  15.833   9.547  0.00  0.00     0.096 A 
HETATM   12  C   UNK N   1      34.687  17.018   9.272  0.00  0.00     0.120 A 
ENDROOT
BRANCH   5  13
HETATM   13  O   UNK N   1      32.124  17.816   3.718  0.00  0.00    -0.361 OA
HETATM   14  H   UNK N   1      32.672  18.529   3.454  0.00  0.00     0.217 HD
ENDBRANCH   5  13
BRANCH   7  15
HETATM   15  O   UNK N   1      31.424  14.085   6.556  0.00  0.00    -0.360 OA
HETATM   16  H   UNK N   1      31.084  13.588   5.838  0.00  0.00     0.217 HD
ENDBRANCH   7  15
BRANCH  12  17
HETATM   17  O   UNK N   1      35.519  17.582  10.167  0.00  0.00    -0.357 OA
HETATM   18  H   UNK N   1      35.537  17.272  11.051  0.00  0.00     0.218 HD
ENDBRANCH  12  17
TORSDOF 3
ENDMDL
MODEL 8
REMARK VINA RESULT:      -5.6      1.069      3.504
REMARK  3 active torsions:
REMARK  status: ('A' for Active; 'I' for Inactive)
REMARK    1  A    between atoms: C_5  and  O_6 
REMARK    2  A    between atoms: C_8  and  O_9 
REMARK    3  A    between atoms: C_14  and  O_15 
ROOT
HETATM    1  O   UNK N   1      35.576  17.327  10.241  0.00  0.00    -0.284 OA
HETATM    2  C   UNK N   1      34.840  17.087   9.295  0.00  0.00     0.216 A 
HETATM    3  C   UNK N   1      34.253  15.742   9.132  0.00  0.00     0.036 A 
HETATM    4  C   UNK N   1      34.541  14.742  10.064  0.00  0.00     0.053 A 
HETATM    5  C   UNK N   1      33.997  13.471   9.926  0.00  0.00     0.069 A 
HETATM    6  C   UNK N   1      33.155  13.185   8.849  0.00  0.00     0.074 A 
HETATM    7  C   UNK N   1      32.853  14.172   7.904  0.00  0.00     0.083 A 
HETATM    8  C   UNK N   1      33.403  15.469   8.037  0.00  0.00     0.062 A 
HETATM    9  C   UNK N   1      33.122  16.565   7.065  0.00  0.00     0.188 A 
HETATM   10  O   UNK N   1      32.394  16.383   6.101  0.00  0.00    -0.287 OA
HETATM   11  C   UNK N   1      33.731  17.899   7.267  0.00  0.00     0.096 A 
HETATM   12  C   UNK N   1      34.537  18.147   8.311  0.00  0.00     0.120 A 
ENDROOT
BRANCH   5  13
HETATM   13  O   UNK N   1      34.284  12.523  10.830  0.00  0.00    -0.361 OA
HETATM   14  H   UNK N   1      34.942  11.881  10.644  0.00  0.00     0.217 HD
ENDBRANCH   5  13
BRANCH   7  15
HETATM   15  O   UNK N   1      32.039  13.866   6.878  0.00  0.00    -0.360 OA
HETATM   16  H   UNK N   1      32.401  13.632   6.046  0.00  0.00     0.217 HD
ENDBRANCH   7  15
BRANCH  12  17
HETATM   17  O   UNK N   1      35.073  19.373   8.460  0.00  0.00    -0.357 OA
HETATM   18  H   UNK N   1      35.395  19.645   9.296  0.00  0.00     0.218 HD
ENDBRANCH  12  17
TORSDOF 3
ENDMDL
MODEL 9
REMARK VINA RESULT:      -5.6      3.278      5.369
REMARK  3 active torsions:
REMARK  status: ('A' for Active; 'I' for Inactive)
REMARK    1  A    between atoms: C_5  and  O_6 
REMARK    2  A    between atoms: C_8  and  O_9 
REMARK    3  A    between atoms: C_14  and  O_15 
ROOT
HETATM    1  O   UNK N   1      28.481  17.098   6.034  0.00  0.00    -0.284 OA
HETATM    2  C   UNK N   1      29.554  17.225   6.606  0.00  0.00     0.216 A 
HETATM    3  C   UNK N   1      30.807  17.288   5.829  0.00  0.00     0.036 A 
HETATM    4  C   UNK N   1      30.766  17.200   4.436  0.00  0.00     0.053 A 
HETATM    5  C   UNK N   1      31.937  17.257   3.690  0.00  0.00     0.069 A 
HETATM    6  C   UNK N   1      33.168  17.403   4.332  0.00  0.00     0.074 A 
HETATM    7  C   UNK N   1      33.233  17.492   5.727  0.00  0.00     0.083 A 
HETATM    8  C   UNK N   1      32.045  17.435   6.495  0.00  0.00     0.062 A 
HETATM    9  C   UNK N   1      32.045  17.525   7.984  0.00  0.00     0.188 A 
HETATM   10  O   UNK N   1      33.086  17.654   8.609  0.00  0.00    -0.287 OA
HETATM   11  C   UNK N   1      30.764  17.459   8.723  0.00  0.00     0.096 A 
HETATM   12  C   UNK N   1      29.595  17.318   8.080  0.00  0.00     0.120 A 
ENDROOT
BRANCH   5  13
HETATM   13  O   UNK N   1      31.878  17.171   2.352  0.00  0.00    -0.361 OA
HETATM   14  H   UNK N   1      32.431  16.566   1.897  0.00  0.00     0.217 HD
ENDBRANCH   5  13
BRANCH   7  15
HETATM   15  O   UNK N   1      34.434  17.633   6.317  0.00  0.00    -0.360 OA
HETATM   16  H   UNK N   1      34.505  18.082   7.136  0.00  0.00     0.217 HD
ENDBRANCH   7  15
BRANCH  12  17
HETATM   17  O   UNK N   1      28.450  17.261   8.788  0.00  0.00    -0.357 OA
HETATM   18  H   UNK N   1      27.625  17.329   8.350  0.00  0.00     0.218 HD
ENDBRANCH  12  17
TORSDOF 3
ENDMDL
