REMARK  3 active torsions:
REMARK  status: ('A' for Active; 'I' for Inactive)
REMARK    1  A    between atoms: C_5  and  O_6 
REMARK    2  A    between atoms: C_8  and  O_9 
REMARK    3  A    between atoms: C_14  and  O_15 
ROOT
HETATM    1  O   UNK N   1      -1.553   2.515   0.000  0.00  0.00    -0.284 OA
HETATM    2  C   UNK N   1      -1.458   1.296  -0.000  0.00  0.00     0.216 A 
HETATM    3  C   UNK N   1      -0.129   0.654  -0.000  0.00  0.00     0.036 A 
HETATM    4  C   UNK N   1       1.023   1.444   0.000  0.00  0.00     0.053 A 
HETATM    5  C   UNK N   1       2.282   0.855   0.000  0.00  0.00     0.069 A 
HETATM    6  C   UNK N   1       2.403  -0.536   0.000  0.00  0.00     0.074 A 
HETATM    7  C   UNK N   1       1.262  -1.346  -0.000  0.00  0.00     0.083 A 
HETATM    8  C   UNK N   1      -0.024  -0.755  -0.000  0.00  0.00     0.062 A 
HETATM    9  C   UNK N   1      -1.279  -1.561  -0.000  0.00  0.00     0.188 A 
HETATM   10  O   UNK N   1      -1.246  -2.782  -0.000  0.00  0.00    -0.287 OA
HETATM   11  C   UNK N   1      -2.591  -0.876  -0.000  0.00  0.00     0.096 A 
HETATM   12  C   UNK N   1      -2.679   0.463   0.000  0.00  0.00     0.120 A 
ENDROOT
BRANCH   5  13
HETATM   13  O   UNK N   1       3.378   1.629   0.000  0.00  0.00    -0.361 OA
HETATM   14  H   UNK N   1       4.229   1.236   0.000  0.00  0.00     0.217 HD
ENDBRANCH   5  13
BRANCH   7  15
HETATM   15  O   UNK N   1       1.411  -2.683  -0.000  0.00  0.00    -0.360 OA
HETATM   16  H   UNK N   1       0.657  -3.239  -0.000  0.00  0.00     0.217 HD
ENDBRANCH   7  15
BRANCH  12  17
HETATM   17  O   UNK N   1      -3.891   1.050   0.000  0.00  0.00    -0.357 OA
HETATM   18  H   UNK N   1      -3.959   1.984   0.000  0.00  0.00     0.218 HD
ENDBRANCH  12  17
TORSDOF 3
