MODEL 1
REMARK VINA RESULT:      -7.0      0.000      0.000
REMARK  11 active torsions:
REMARK  status: ('A' for Active; 'I' for Inactive)
REMARK       I    between atoms: N_1  and  C_2 
REMARK    1  A    between atoms: C_9  and  N_1 
REMARK    2  A    between atoms: C_2  and  C_4 
REMARK    3  A    between atoms: C_9  and  C_10 
REMARK    4  A    between atoms: C_9  and  C_14 
REMARK    5  A    between atoms: C_10  and  C_11 
REMARK       I    between atoms: C_14  and  N_16 
REMARK    6  A    between atoms: C_17  and  N_16 
REMARK    7  A    between atoms: C_17  and  C_18 
REMARK    8  A    between atoms: C_17  and  P_28 
REMARK    9  A    between atoms: C_18  and  C_19 
REMARK   10  A    between atoms: P_28  and  O_30 
REMARK   11  A    between atoms: P_28  and  O_31 
ROOT
HETATM    1  C   UNK N   1      26.864  24.063  -4.423  0.00  0.00     0.241 C 
HETATM    2  O   UNK N   1      26.329  23.938  -3.332  0.00  0.00    -0.271 OA
HETATM    3  N   UNK N   1      26.116  23.813  -5.525  0.00  0.00    -0.344 N 
HETATM    4  H   UNK N   1      25.221  23.445  -5.347  0.00  0.00     0.163 HD
ENDROOT
BRANCH   3   5
HETATM    5  C   UNK N   1      26.435  24.007  -6.928  0.00  0.00     0.200 C 
BRANCH   5   6
HETATM    6  C   UNK N   1      25.820  25.376  -7.224  0.00  0.00     0.078 C 
BRANCH   6   7
HETATM    7  C   UNK N   1      26.645  26.603  -7.027  0.00  0.00    -0.028 A 
HETATM    8  C   UNK N   1      26.538  27.504  -6.000  0.00  0.00    -0.002 A 
HETATM    9  C   UNK N   1      27.398  28.526  -6.284  0.00  0.00     0.042 A 
HETATM   10  C   UNK N   1      25.738  27.509  -4.859  0.00  0.00     0.014 A 
HETATM   11  N   UNK N   1      28.041  28.309  -7.445  0.00  0.00    -0.365 N 
HETATM   12  C   UNK N   1      27.526  29.633  -5.452  0.00  0.00     0.030 A 
HETATM   13  C   UNK N   1      27.577  27.125  -7.916  0.00  0.00     0.096 A 
HETATM   14  H   UNK N   1      28.715  28.891  -7.867  0.00  0.00     0.165 HD
HETATM   15  C   UNK N   1      26.737  29.669  -4.286  0.00  0.00     0.002 A 
HETATM   16  C   UNK N   1      25.848  28.611  -3.991  0.00  0.00     0.001 A 
ENDBRANCH   6   7
ENDBRANCH   5   6
BRANCH   5  17
HETATM   17  P   UNK N   1      25.642  22.637  -7.972  0.00  0.00     0.259 P 
HETATM   18  O   UNK N   1      24.467  23.421  -8.609  0.00  0.00    -0.652 OA
BRANCH  17  19
HETATM   19  O   UNK N   1      24.803  22.380  -6.470  0.00  0.00    -0.328 OA
HETATM   20  H   UNK N   1      24.134  21.688  -6.354  0.00  0.00     0.220 HD
ENDBRANCH  17  19
BRANCH  17  21
HETATM   21  O   UNK N   1      25.020  21.028  -8.174  0.00  0.00    -0.328 OA
HETATM   22  H   UNK N   1      25.214  20.206  -7.698  0.00  0.00     0.220 HD
ENDBRANCH  17  21
ENDBRANCH   5  17
ENDBRANCH   3   5
BRANCH   1  23
HETATM   23  C   UNK N   1      28.332  24.450  -4.468  0.00  0.00     0.177 C 
BRANCH  23  24
HETATM   24  N   UNK N   1      29.064  23.309  -3.941  0.00  0.00    -0.342 N 
HETATM   25  C   UNK N   1      29.780  22.443  -4.716  0.00  0.00     0.276 C 
HETATM   26  O   UNK N   1      29.558  22.339  -5.909  0.00  0.00    -0.265 OA
HETATM   27  H   UNK N   1      29.041  23.152  -2.969  0.00  0.00     0.163 HD
BRANCH  25  28
HETATM   28  C   UNK N   1      30.951  21.771  -4.140  0.00  0.00     0.142 A 
HETATM   29  O   UNK N   1      31.680  20.899  -4.791  0.00  0.00    -0.317 OA
HETATM   30  C   UNK N   1      32.730  20.591  -4.068  0.00  0.00     0.143 A 
HETATM   31  C   UNK N   1      32.691  21.312  -2.886  0.00  0.00     0.027 A 
HETATM   32  C   UNK N   1      31.541  22.079  -2.936  0.00  0.00     0.045 A 
ENDBRANCH  25  28
ENDBRANCH  23  24
BRANCH  23  33
HETATM   33  C   UNK N   1      28.572  25.746  -3.678  0.00  0.00     0.038 C 
BRANCH  33  34
HETATM   34  C   UNK N   1      29.950  26.343  -3.977  0.00  0.00    -0.020 C 
HETATM   35  C   UNK N   1      30.251  26.261  -5.457  0.00  0.00     0.009 C 
HETATM   36  C   UNK N   1      30.044  27.784  -3.512  0.00  0.00     0.009 C 
ENDBRANCH  33  34
ENDBRANCH  23  33
ENDBRANCH   1  23
TORSDOF 11
ENDMDL
MODEL 2
REMARK VINA RESULT:      -6.8      1.206      1.824
REMARK  11 active torsions:
REMARK  status: ('A' for Active; 'I' for Inactive)
REMARK       I    between atoms: N_1  and  C_2 
REMARK    1  A    between atoms: C_9  and  N_1 
REMARK    2  A    between atoms: C_2  and  C_4 
REMARK    3  A    between atoms: C_9  and  C_10 
REMARK    4  A    between atoms: C_9  and  C_14 
REMARK    5  A    between atoms: C_10  and  C_11 
REMARK       I    between atoms: C_14  and  N_16 
REMARK    6  A    between atoms: C_17  and  N_16 
REMARK    7  A    between atoms: C_17  and  C_18 
REMARK    8  A    between atoms: C_17  and  P_28 
REMARK    9  A    between atoms: C_18  and  C_19 
REMARK   10  A    between atoms: P_28  and  O_30 
REMARK   11  A    between atoms: P_28  and  O_31 
ROOT
HETATM    1  C   UNK N   1      27.049  24.361  -4.049  0.00  0.00     0.241 C 
HETATM    2  O   UNK N   1      26.681  23.954  -2.958  0.00  0.00    -0.271 OA
HETATM    3  N   UNK N   1      26.118  24.476  -5.027  0.00  0.00    -0.344 N 
HETATM    4  H   UNK N   1      25.230  24.118  -4.801  0.00  0.00     0.163 HD
ENDROOT
BRANCH   3   5
HETATM    5  C   UNK N   1      26.232  25.050  -6.356  0.00  0.00     0.200 C 
BRANCH   5   6
HETATM    6  C   UNK N   1      25.321  26.275  -6.270  0.00  0.00     0.078 C 
BRANCH   6   7
HETATM    7  C   UNK N   1      25.726  27.426  -5.412  0.00  0.00    -0.028 A 
HETATM    8  C   UNK N   1      26.746  28.308  -5.656  0.00  0.00    -0.002 A 
HETATM    9  C   UNK N   1      26.838  29.115  -4.558  0.00  0.00     0.042 A 
HETATM   10  C   UNK N   1      27.606  28.444  -6.744  0.00  0.00     0.014 A 
HETATM   11  N   UNK N   1      25.921  28.780  -3.633  0.00  0.00    -0.365 N 
HETATM   12  C   UNK N   1      27.794  30.120  -4.460  0.00  0.00     0.030 A 
HETATM   13  C   UNK N   1      25.233  27.731  -4.149  0.00  0.00     0.096 A 
HETATM   14  H   UNK N   1      25.777  29.209  -2.758  0.00  0.00     0.165 HD
HETATM   15  C   UNK N   1      28.677  30.290  -5.544  0.00  0.00     0.002 A 
HETATM   16  C   UNK N   1      28.582  29.456  -6.682  0.00  0.00     0.001 A 
ENDBRANCH   6   7
ENDBRANCH   5   6
BRANCH   5  17
HETATM   17  P   UNK N   1      25.626  23.808  -7.655  0.00  0.00     0.259 P 
HETATM   18  O   UNK N   1      25.083  22.688  -6.732  0.00  0.00    -0.652 OA
BRANCH  17  19
HETATM   19  O   UNK N   1      27.278  23.287  -7.503  0.00  0.00    -0.328 OA
HETATM   20  H   UNK N   1      27.835  23.079  -8.269  0.00  0.00     0.220 HD
ENDBRANCH  17  19
BRANCH  17  21
HETATM   21  O   UNK N   1      25.843  22.870  -9.100  0.00  0.00    -0.328 OA
HETATM   22  H   UNK N   1      25.264  22.739  -9.867  0.00  0.00     0.220 HD
ENDBRANCH  17  21
ENDBRANCH   5  17
ENDBRANCH   3   5
BRANCH   1  23
HETATM   23  C   UNK N   1      28.523  24.670  -4.246  0.00  0.00     0.177 C 
BRANCH  23  24
HETATM   24  N   UNK N   1      29.248  23.533  -3.700  0.00  0.00    -0.342 N 
HETATM   25  C   UNK N   1      29.761  22.523  -4.460  0.00  0.00     0.276 C 
HETATM   26  O   UNK N   1      29.336  22.305  -5.582  0.00  0.00    -0.265 OA
HETATM   27  H   UNK N   1      29.376  23.491  -2.724  0.00  0.00     0.163 HD
BRANCH  25  28
HETATM   28  C   UNK N   1      30.959  21.816  -3.994  0.00  0.00     0.142 A 
HETATM   29  O   UNK N   1      31.599  20.924  -4.710  0.00  0.00    -0.317 OA
HETATM   30  C   UNK N   1      32.702  20.583  -4.085  0.00  0.00     0.143 A 
HETATM   31  C   UNK N   1      32.793  21.303  -2.906  0.00  0.00     0.027 A 
HETATM   32  C   UNK N   1      31.667  22.104  -2.851  0.00  0.00     0.045 A 
ENDBRANCH  25  28
ENDBRANCH  23  24
BRANCH  23  33
HETATM   33  C   UNK N   1      28.888  26.004  -3.576  0.00  0.00     0.038 C 
BRANCH  33  34
HETATM   34  C   UNK N   1      30.309  26.448  -3.936  0.00  0.00    -0.020 C 
HETATM   35  C   UNK N   1      30.490  26.472  -5.437  0.00  0.00     0.009 C 
HETATM   36  C   UNK N   1      30.627  27.813  -3.357  0.00  0.00     0.009 C 
ENDBRANCH  33  34
ENDBRANCH  23  33
ENDBRANCH   1  23
TORSDOF 11
ENDMDL
MODEL 3
REMARK VINA RESULT:      -6.4      1.563      3.548
REMARK  11 active torsions:
REMARK  status: ('A' for Active; 'I' for Inactive)
REMARK       I    between atoms: N_1  and  C_2 
REMARK    1  A    between atoms: C_9  and  N_1 
REMARK    2  A    between atoms: C_2  and  C_4 
REMARK    3  A    between atoms: C_9  and  C_10 
REMARK    4  A    between atoms: C_9  and  C_14 
REMARK    5  A    between atoms: C_10  and  C_11 
REMARK       I    between atoms: C_14  and  N_16 
REMARK    6  A    between atoms: C_17  and  N_16 
REMARK    7  A    between atoms: C_17  and  C_18 
REMARK    8  A    between atoms: C_17  and  P_28 
REMARK    9  A    between atoms: C_18  and  C_19 
REMARK   10  A    between atoms: P_28  and  O_30 
REMARK   11  A    between atoms: P_28  and  O_31 
ROOT
HETATM    1  C   UNK N   1      26.970  24.004  -4.188  0.00  0.00     0.241 C 
HETATM    2  O   UNK N   1      26.425  23.969  -3.095  0.00  0.00    -0.271 OA
HETATM    3  N   UNK N   1      26.180  23.961  -5.289  0.00  0.00    -0.344 N 
HETATM    4  H   UNK N   1      25.226  23.797  -5.111  0.00  0.00     0.163 HD
ENDROOT
BRANCH   3   5
HETATM    5  C   UNK N   1      26.528  24.122  -6.689  0.00  0.00     0.200 C 
BRANCH   5   6
HETATM    6  C   UNK N   1      25.888  25.466  -7.040  0.00  0.00     0.078 C 
BRANCH   6   7
HETATM    7  C   UNK N   1      26.675  26.719  -6.849  0.00  0.00    -0.028 A 
HETATM    8  C   UNK N   1      26.567  27.601  -5.806  0.00  0.00    -0.002 A 
HETATM    9  C   UNK N   1      27.381  28.658  -6.100  0.00  0.00     0.042 A 
HETATM   10  C   UNK N   1      25.802  27.562  -4.642  0.00  0.00     0.014 A 
HETATM   11  N   UNK N   1      27.997  28.480  -7.282  0.00  0.00    -0.365 N 
HETATM   12  C   UNK N   1      27.495  29.757  -5.256  0.00  0.00     0.030 A 
HETATM   13  C   UNK N   1      27.561  27.286  -7.757  0.00  0.00     0.096 A 
HETATM   14  H   UNK N   1      28.636  29.092  -7.716  0.00  0.00     0.165 HD
HETATM   15  C   UNK N   1      26.740  29.749  -4.067  0.00  0.00     0.002 A 
HETATM   16  C   UNK N   1      25.899  28.656  -3.761  0.00  0.00     0.001 A 
ENDBRANCH   6   7
ENDBRANCH   5   6
BRANCH   5  17
HETATM   17  P   UNK N   1      25.794  22.703  -7.709  0.00  0.00     0.259 P 
HETATM   18  O   UNK N   1      24.725  23.474  -8.524  0.00  0.00    -0.652 OA
BRANCH  17  19
HETATM   19  O   UNK N   1      24.794  22.588  -6.291  0.00  0.00    -0.328 OA
HETATM   20  H   UNK N   1      24.532  21.741  -5.901  0.00  0.00     0.220 HD
ENDBRANCH  17  19
BRANCH  17  21
HETATM   21  O   UNK N   1      25.132  21.104  -7.861  0.00  0.00    -0.328 OA
HETATM   22  H   UNK N   1      25.361  20.375  -8.458  0.00  0.00     0.220 HD
ENDBRANCH  17  21
ENDBRANCH   5  17
ENDBRANCH   3   5
BRANCH   1  23
HETATM   23  C   UNK N   1      28.487  24.054  -4.238  0.00  0.00     0.177 C 
BRANCH  23  24
HETATM   24  N   UNK N   1      28.837  25.453  -4.425  0.00  0.00    -0.342 N 
HETATM   25  C   UNK N   1      30.003  26.009  -3.986  0.00  0.00     0.276 C 
HETATM   26  O   UNK N   1      30.651  25.486  -3.097  0.00  0.00    -0.265 OA
HETATM   27  H   UNK N   1      28.195  26.032  -4.897  0.00  0.00     0.163 HD
BRANCH  25  28
HETATM   28  C   UNK N   1      30.572  27.146  -4.718  0.00  0.00     0.142 A 
HETATM   29  O   UNK N   1      30.729  27.165  -6.019  0.00  0.00    -0.317 OA
HETATM   30  C   UNK N   1      31.121  28.362  -6.387  0.00  0.00     0.143 A 
HETATM   31  C   UNK N   1      31.210  29.172  -5.267  0.00  0.00     0.027 A 
HETATM   32  C   UNK N   1      30.850  28.384  -4.189  0.00  0.00     0.045 A 
ENDBRANCH  25  28
ENDBRANCH  23  24
BRANCH  23  33
HETATM   33  C   UNK N   1      29.019  23.138  -5.351  0.00  0.00     0.038 C 
BRANCH  33  34
HETATM   34  C   UNK N   1      30.184  22.272  -4.862  0.00  0.00    -0.020 C 
HETATM   35  C   UNK N   1      30.064  22.017  -3.376  0.00  0.00     0.009 C 
HETATM   36  C   UNK N   1      30.246  20.952  -5.606  0.00  0.00     0.009 C 
ENDBRANCH  33  34
ENDBRANCH  23  33
ENDBRANCH   1  23
TORSDOF 11
ENDMDL
MODEL 4
REMARK VINA RESULT:      -6.1     14.900     17.661
REMARK  11 active torsions:
REMARK  status: ('A' for Active; 'I' for Inactive)
REMARK       I    between atoms: N_1  and  C_2 
REMARK    1  A    between atoms: C_9  and  N_1 
REMARK    2  A    between atoms: C_2  and  C_4 
REMARK    3  A    between atoms: C_9  and  C_10 
REMARK    4  A    between atoms: C_9  and  C_14 
REMARK    5  A    between atoms: C_10  and  C_11 
REMARK       I    between atoms: C_14  and  N_16 
REMARK    6  A    between atoms: C_17  and  N_16 
REMARK    7  A    between atoms: C_17  and  C_18 
REMARK    8  A    between atoms: C_17  and  P_28 
REMARK    9  A    between atoms: C_18  and  C_19 
REMARK   10  A    between atoms: P_28  and  O_30 
REMARK   11  A    between atoms: P_28  and  O_31 
ROOT
HETATM    1  C   UNK N   1      21.558  14.545   4.690  0.00  0.00     0.241 C 
HETATM    2  O   UNK N   1      21.308  13.774   3.776  0.00  0.00    -0.271 OA
HETATM    3  N   UNK N   1      20.961  14.321   5.886  0.00  0.00    -0.344 N 
HETATM    4  H   UNK N   1      20.285  13.607   5.887  0.00  0.00     0.163 HD
ENDROOT
BRANCH   3   5
HETATM    5  C   UNK N   1      21.169  14.976   7.165  0.00  0.00     0.200 C 
BRANCH   5   6
HETATM    6  C   UNK N   1      21.158  13.803   8.146  0.00  0.00     0.078 C 
BRANCH   6   7
HETATM    7  C   UNK N   1      22.447  13.334   8.735  0.00  0.00    -0.028 A 
HETATM    8  C   UNK N   1      22.627  12.796   9.982  0.00  0.00    -0.002 A 
HETATM    9  C   UNK N   1      23.973  12.627  10.145  0.00  0.00     0.042 A 
HETATM   10  C   UNK N   1      21.717  12.467  10.985  0.00  0.00     0.014 A 
HETATM   11  N   UNK N   1      24.647  13.035   9.055  0.00  0.00    -0.365 N 
HETATM   12  C   UNK N   1      24.514  12.117  11.320  0.00  0.00     0.030 A 
HETATM   13  C   UNK N   1      23.712  13.481   8.180  0.00  0.00     0.096 A 
HETATM   14  H   UNK N   1      25.623  13.013   8.919  0.00  0.00     0.165 HD
HETATM   15  C   UNK N   1      23.623  11.768  12.353  0.00  0.00     0.002 A 
HETATM   16  C   UNK N   1      22.230  11.941  12.185  0.00  0.00     0.001 A 
ENDBRANCH   6   7
ENDBRANCH   5   6
BRANCH   5  17
HETATM   17  P   UNK N   1      19.759  16.196   7.509  0.00  0.00     0.259 P 
HETATM   18  O   UNK N   1      20.515  17.262   8.343  0.00  0.00    -0.652 OA
BRANCH  17  19
HETATM   19  O   UNK N   1      19.550  15.123   8.862  0.00  0.00    -0.328 OA
HETATM   20  H   UNK N   1      18.748  14.595   8.994  0.00  0.00     0.220 HD
ENDBRANCH  17  19
BRANCH  17  21
HETATM   21  O   UNK N   1      18.142  16.568   8.020  0.00  0.00    -0.328 OA
HETATM   22  H   UNK N   1      17.583  16.168   8.705  0.00  0.00     0.220 HD
ENDBRANCH  17  21
ENDBRANCH   5  17
ENDBRANCH   3   5
BRANCH   1  23
HETATM   23  C   UNK N   1      22.485  15.716   4.414  0.00  0.00     0.177 C 
BRANCH  23  24
HETATM   24  N   UNK N   1      21.644  16.777   3.883  0.00  0.00    -0.342 N 
HETATM   25  C   UNK N   1      21.675  18.066   4.330  0.00  0.00     0.276 C 
HETATM   26  O   UNK N   1      22.120  18.337   5.431  0.00  0.00    -0.265 OA
HETATM   27  H   UNK N   1      21.016  16.552   3.158  0.00  0.00     0.163 HD
BRANCH  25  28
HETATM   28  C   UNK N   1      21.340  19.151   3.402  0.00  0.00     0.142 A 
HETATM   29  O   UNK N   1      21.931  20.322   3.411  0.00  0.00    -0.317 OA
HETATM   30  C   UNK N   1      21.520  21.018   2.377  0.00  0.00     0.143 A 
HETATM   31  C   UNK N   1      20.625  20.255   1.646  0.00  0.00     0.027 A 
HETATM   32  C   UNK N   1      20.513  19.046   2.308  0.00  0.00     0.045 A 
ENDBRANCH  25  28
ENDBRANCH  23  24
BRANCH  23  33
HETATM   33  C   UNK N   1      23.614  15.296   3.459  0.00  0.00     0.038 C 
BRANCH  33  34
HETATM   34  C   UNK N   1      24.989  15.704   3.996  0.00  0.00    -0.020 C 
HETATM   35  C   UNK N   1      25.430  17.011   3.376  0.00  0.00     0.009 C 
HETATM   36  C   UNK N   1      24.981  15.827   5.508  0.00  0.00     0.009 C 
ENDBRANCH  33  34
ENDBRANCH  23  33
ENDBRANCH   1  23
TORSDOF 11
ENDMDL
MODEL 5
REMARK VINA RESULT:      -6.1     11.152     12.939
REMARK  11 active torsions:
REMARK  status: ('A' for Active; 'I' for Inactive)
REMARK       I    between atoms: N_1  and  C_2 
REMARK    1  A    between atoms: C_9  and  N_1 
REMARK    2  A    between atoms: C_2  and  C_4 
REMARK    3  A    between atoms: C_9  and  C_10 
REMARK    4  A    between atoms: C_9  and  C_14 
REMARK    5  A    between atoms: C_10  and  C_11 
REMARK       I    between atoms: C_14  and  N_16 
REMARK    6  A    between atoms: C_17  and  N_16 
REMARK    7  A    between atoms: C_17  and  C_18 
REMARK    8  A    between atoms: C_17  and  P_28 
REMARK    9  A    between atoms: C_18  and  C_19 
REMARK   10  A    between atoms: P_28  and  O_30 
REMARK   11  A    between atoms: P_28  and  O_31 
ROOT
HETATM    1  C   UNK N   1      27.156  16.867   6.638  0.00  0.00     0.241 C 
HETATM    2  O   UNK N   1      27.218  16.287   7.712  0.00  0.00    -0.271 OA
HETATM    3  N   UNK N   1      26.106  16.587   5.829  0.00  0.00    -0.344 N 
HETATM    4  H   UNK N   1      25.529  15.851   6.135  0.00  0.00     0.163 HD
ENDROOT
BRANCH   3   5
HETATM    5  C   UNK N   1      25.703  17.209   4.581  0.00  0.00     0.200 C 
BRANCH   5   6
HETATM    6  C   UNK N   1      24.280  17.681   4.886  0.00  0.00     0.078 C 
BRANCH   6   7
HETATM    7  C   UNK N   1      23.715  18.832   4.124  0.00  0.00    -0.028 A 
HETATM    8  C   UNK N   1      22.430  18.956   3.665  0.00  0.00    -0.002 A 
HETATM    9  C   UNK N   1      22.389  20.101   2.922  0.00  0.00     0.042 A 
HETATM   10  C   UNK N   1      21.311  18.143   3.828  0.00  0.00     0.014 A 
HETATM   11  N   UNK N   1      23.591  20.703   2.892  0.00  0.00    -0.365 N 
HETATM   12  C   UNK N   1      21.227  20.522   2.282  0.00  0.00     0.030 A 
HETATM   13  C   UNK N   1      24.421  19.921   3.627  0.00  0.00     0.096 A 
HETATM   14  H   UNK N   1      23.823  21.542   2.430  0.00  0.00     0.165 HD
HETATM   15  C   UNK N   1      20.075  19.727   2.430  0.00  0.00     0.002 A 
HETATM   16  C   UNK N   1      20.117  18.543   3.200  0.00  0.00     0.001 A 
ENDBRANCH   6   7
ENDBRANCH   5   6
BRANCH   5  17
HETATM   17  P   UNK N   1      25.738  15.934   3.177  0.00  0.00     0.259 P 
HETATM   18  O   UNK N   1      26.116  14.659   3.973  0.00  0.00    -0.652 OA
BRANCH  17  19
HETATM   19  O   UNK N   1      27.379  16.504   3.093  0.00  0.00    -0.328 OA
HETATM   20  H   UNK N   1      27.988  16.247   2.384  0.00  0.00     0.220 HD
ENDBRANCH  17  19
BRANCH  17  21
HETATM   21  O   UNK N   1      26.224  15.406   1.596  0.00  0.00    -0.328 OA
HETATM   22  H   UNK N   1      27.013  15.612   1.071  0.00  0.00     0.220 HD
ENDBRANCH  17  21
ENDBRANCH   5  17
ENDBRANCH   3   5
BRANCH   1  23
HETATM   23  C   UNK N   1      28.275  17.826   6.269  0.00  0.00     0.177 C 
BRANCH  23  24
HETATM   24  N   UNK N   1      29.502  17.220   6.762  0.00  0.00    -0.342 N 
HETATM   25  C   UNK N   1      30.690  17.258   6.092  0.00  0.00     0.276 C 
HETATM   26  O   UNK N   1      30.726  17.464   4.891  0.00  0.00    -0.265 OA
HETATM   27  H   UNK N   1      29.473  16.756   7.631  0.00  0.00     0.163 HD
BRANCH  25  28
HETATM   28  C   UNK N   1      31.942  17.236   6.856  0.00  0.00     0.142 A 
HETATM   29  O   UNK N   1      32.022  16.849   8.106  0.00  0.00    -0.317 OA
HETATM   30  C   UNK N   1      33.285  16.802   8.461  0.00  0.00     0.143 A 
HETATM   31  C   UNK N   1      34.071  17.164   7.379  0.00  0.00     0.027 A 
HETATM   32  C   UNK N   1      33.201  17.440   6.341  0.00  0.00     0.045 A 
ENDBRANCH  25  28
ENDBRANCH  23  24
BRANCH  23  33
HETATM   33  C   UNK N   1      28.004  19.220   6.856  0.00  0.00     0.038 C 
BRANCH  33  34
HETATM   34  C   UNK N   1      27.336  20.144   5.833  0.00  0.00    -0.020 C 
HETATM   35  C   UNK N   1      27.375  21.578   6.314  0.00  0.00     0.009 C 
HETATM   36  C   UNK N   1      28.001  20.039   4.474  0.00  0.00     0.009 C 
ENDBRANCH  33  34
ENDBRANCH  23  33
ENDBRANCH   1  23
TORSDOF 11
ENDMDL
MODEL 6
REMARK VINA RESULT:      -6.0      3.148      7.598
REMARK  11 active torsions:
REMARK  status: ('A' for Active; 'I' for Inactive)
REMARK       I    between atoms: N_1  and  C_2 
REMARK    1  A    between atoms: C_9  and  N_1 
REMARK    2  A    between atoms: C_2  and  C_4 
REMARK    3  A    between atoms: C_9  and  C_10 
REMARK    4  A    between atoms: C_9  and  C_14 
REMARK    5  A    between atoms: C_10  and  C_11 
REMARK       I    between atoms: C_14  and  N_16 
REMARK    6  A    between atoms: C_17  and  N_16 
REMARK    7  A    between atoms: C_17  and  C_18 
REMARK    8  A    between atoms: C_17  and  P_28 
REMARK    9  A    between atoms: C_18  and  C_19 
REMARK   10  A    between atoms: P_28  and  O_30 
REMARK   11  A    between atoms: P_28  and  O_31 
ROOT
HETATM    1  C   UNK N   1      27.740  24.020  -3.345  0.00  0.00     0.241 C 
HETATM    2  O   UNK N   1      27.026  23.938  -2.357  0.00  0.00    -0.271 OA
HETATM    3  N   UNK N   1      28.915  23.346  -3.332  0.00  0.00    -0.344 N 
HETATM    4  H   UNK N   1      29.145  22.926  -2.472  0.00  0.00     0.163 HD
ENDROOT
BRANCH   3   5
HETATM    5  C   UNK N   1      29.886  23.149  -4.394  0.00  0.00     0.200 C 
BRANCH   5   6
HETATM    6  C   UNK N   1      30.239  21.668  -4.253  0.00  0.00     0.078 C 
BRANCH   6   7
HETATM    7  C   UNK N   1      30.889  20.963  -5.396  0.00  0.00    -0.028 A 
HETATM    8  C   UNK N   1      30.288  20.568  -6.562  0.00  0.00    -0.002 A 
HETATM    9  C   UNK N   1      31.220  19.857  -7.263  0.00  0.00     0.042 A 
HETATM   10  C   UNK N   1      28.994  20.762  -7.043  0.00  0.00     0.014 A 
HETATM   11  N   UNK N   1      32.382  19.786  -6.590  0.00  0.00    -0.365 N 
HETATM   12  C   UNK N   1      30.933  19.284  -8.498  0.00  0.00     0.030 A 
HETATM   13  C   UNK N   1      32.185  20.461  -5.429  0.00  0.00     0.096 A 
HETATM   14  H   UNK N   1      33.209  19.336  -6.880  0.00  0.00     0.165 HD
HETATM   15  C   UNK N   1      29.637  19.465  -9.017  0.00  0.00     0.002 A 
HETATM   16  C   UNK N   1      28.673  20.202  -8.294  0.00  0.00     0.001 A 
ENDBRANCH   6   7
ENDBRANCH   5   6
BRANCH   5  17
HETATM   17  P   UNK N   1      31.393  24.264  -4.113  0.00  0.00     0.259 P 
HETATM   18  O   UNK N   1      30.790  25.300  -3.130  0.00  0.00    -0.652 OA
BRANCH  17  19
HETATM   19  O   UNK N   1      30.719  25.037  -5.518  0.00  0.00    -0.328 OA
HETATM   20  H   UNK N   1      29.764  25.098  -5.675  0.00  0.00     0.220 HD
ENDBRANCH  17  19
BRANCH  17  21
HETATM   21  O   UNK N   1      32.735  25.205  -4.689  0.00  0.00    -0.328 OA
HETATM   22  H   UNK N   1      33.682  25.001  -4.732  0.00  0.00     0.220 HD
ENDBRANCH  17  21
ENDBRANCH   5  17
ENDBRANCH   3   5
BRANCH   1  23
HETATM   23  C   UNK N   1      27.282  24.898  -4.496  0.00  0.00     0.177 C 
BRANCH  23  24
HETATM   24  N   UNK N   1      27.254  26.256  -3.979  0.00  0.00    -0.342 N 
HETATM   25  C   UNK N   1      27.934  27.297  -4.541  0.00  0.00     0.276 C 
HETATM   26  O   UNK N   1      28.891  27.100  -5.270  0.00  0.00    -0.265 OA
HETATM   27  H   UNK N   1      26.711  26.436  -3.177  0.00  0.00     0.163 HD
BRANCH  25  28
HETATM   28  C   UNK N   1      27.394  28.655  -4.414  0.00  0.00     0.142 A 
HETATM   29  O   UNK N   1      26.595  29.031  -3.445  0.00  0.00    -0.317 OA
HETATM   30  C   UNK N   1      26.406  30.327  -3.522  0.00  0.00     0.143 A 
HETATM   31  C   UNK N   1      27.131  30.826  -4.591  0.00  0.00     0.027 A 
HETATM   32  C   UNK N   1      27.773  29.744  -5.164  0.00  0.00     0.045 A 
ENDBRANCH  25  28
ENDBRANCH  23  24
BRANCH  23  33
HETATM   33  C   UNK N   1      25.923  24.420  -5.031  0.00  0.00     0.038 C 
BRANCH  33  34
HETATM   34  C   UNK N   1      26.009  23.997  -6.500  0.00  0.00    -0.020 C 
HETATM   35  C   UNK N   1      27.413  24.199  -7.025  0.00  0.00     0.009 C 
HETATM   36  C   UNK N   1      25.594  22.550  -6.687  0.00  0.00     0.009 C 
ENDBRANCH  33  34
ENDBRANCH  23  33
ENDBRANCH   1  23
TORSDOF 11
ENDMDL
MODEL 7
REMARK VINA RESULT:      -6.0     11.963     14.337
REMARK  11 active torsions:
REMARK  status: ('A' for Active; 'I' for Inactive)
REMARK       I    between atoms: N_1  and  C_2 
REMARK    1  A    between atoms: C_9  and  N_1 
REMARK    2  A    between atoms: C_2  and  C_4 
REMARK    3  A    between atoms: C_9  and  C_10 
REMARK    4  A    between atoms: C_9  and  C_14 
REMARK    5  A    between atoms: C_10  and  C_11 
REMARK       I    between atoms: C_14  and  N_16 
REMARK    6  A    between atoms: C_17  and  N_16 
REMARK    7  A    between atoms: C_17  and  C_18 
REMARK    8  A    between atoms: C_17  and  P_28 
REMARK    9  A    between atoms: C_18  and  C_19 
REMARK   10  A    between atoms: P_28  and  O_30 
REMARK   11  A    between atoms: P_28  and  O_31 
ROOT
HETATM    1  C   UNK N   1      20.058  17.017   4.003  0.00  0.00     0.241 C 
HETATM    2  O   UNK N   1      19.034  16.924   4.662  0.00  0.00    -0.271 OA
HETATM    3  N   UNK N   1      20.553  18.257   3.777  0.00  0.00    -0.344 N 
HETATM    4  H   UNK N   1      19.979  18.997   4.081  0.00  0.00     0.163 HD
ENDROOT
BRANCH   3   5
HETATM    5  C   UNK N   1      21.803  18.661   3.158  0.00  0.00     0.200 C 
BRANCH   5   6
HETATM    6  C   UNK N   1      22.766  18.704   4.345  0.00  0.00     0.078 C 
BRANCH   6   7
HETATM    7  C   UNK N   1      24.163  18.210   4.167  0.00  0.00    -0.028 A 
HETATM    8  C   UNK N   1      25.315  18.912   4.408  0.00  0.00    -0.002 A 
HETATM    9  C   UNK N   1      26.349  18.121   3.996  0.00  0.00     0.042 A 
HETATM   10  C   UNK N   1      25.525  20.186   4.932  0.00  0.00     0.014 A 
HETATM   11  N   UNK N   1      25.899  16.951   3.508  0.00  0.00    -0.365 N 
HETATM   12  C   UNK N   1      27.673  18.539   4.076  0.00  0.00     0.030 A 
HETATM   13  C   UNK N   1      24.547  17.000   3.603  0.00  0.00     0.096 A 
HETATM   14  H   UNK N   1      26.441  16.209   3.153  0.00  0.00     0.165 HD
HETATM   15  C   UNK N   1      27.924  19.818   4.607  0.00  0.00     0.002 A 
HETATM   16  C   UNK N   1      26.854  20.638   5.034  0.00  0.00     0.001 A 
ENDBRANCH   6   7
ENDBRANCH   5   6
BRANCH   5  17
HETATM   17  P   UNK N   1      21.607  20.363   2.345  0.00  0.00     0.259 P 
HETATM   18  O   UNK N   1      22.801  21.114   2.988  0.00  0.00    -0.652 OA
BRANCH  17  19
HETATM   19  O   UNK N   1      20.578  20.583   3.731  0.00  0.00    -0.328 OA
HETATM   20  H   UNK N   1      20.375  21.455   4.100  0.00  0.00     0.220 HD
ENDBRANCH  17  19
BRANCH  17  21
HETATM   21  O   UNK N   1      20.658  21.740   1.878  0.00  0.00    -0.328 OA
HETATM   22  H   UNK N   1      19.725  21.812   1.619  0.00  0.00     0.220 HD
ENDBRANCH  17  21
ENDBRANCH   5  17
ENDBRANCH   3   5
BRANCH   1  23
HETATM   23  C   UNK N   1      20.680  15.745   3.451  0.00  0.00     0.177 C 
BRANCH  23  24
HETATM   24  N   UNK N   1      19.743  15.237   2.462  0.00  0.00    -0.342 N 
HETATM   25  C   UNK N   1      20.116  14.756   1.241  0.00  0.00     0.276 C 
HETATM   26  O   UNK N   1      21.190  15.057   0.749  0.00  0.00    -0.265 OA
HETATM   27  H   UNK N   1      18.784  15.240   2.687  0.00  0.00     0.163 HD
BRANCH  25  28
HETATM   28  C   UNK N   1      19.297  13.720   0.601  0.00  0.00     0.142 A 
HETATM   29  O   UNK N   1      19.678  12.472   0.470  0.00  0.00    -0.317 OA
HETATM   30  C   UNK N   1      18.679  11.766  -0.003  0.00  0.00     0.143 A 
HETATM   31  C   UNK N   1      17.583  12.594  -0.177  0.00  0.00     0.027 A 
HETATM   32  C   UNK N   1      17.983  13.857   0.219  0.00  0.00     0.045 A 
ENDBRANCH  25  28
ENDBRANCH  23  24
BRANCH  23  33
HETATM   33  C   UNK N   1      20.968  14.750   4.587  0.00  0.00     0.038 C 
BRANCH  33  34
HETATM   34  C   UNK N   1      22.171  15.186   5.428  0.00  0.00    -0.020 C 
HETATM   35  C   UNK N   1      21.729  15.562   6.825  0.00  0.00     0.009 C 
HETATM   36  C   UNK N   1      23.224  14.096   5.499  0.00  0.00     0.009 C 
ENDBRANCH  33  34
ENDBRANCH  23  33
ENDBRANCH   1  23
TORSDOF 11
ENDMDL
MODEL 8
REMARK VINA RESULT:      -6.0     20.860     23.275
REMARK  11 active torsions:
REMARK  status: ('A' for Active; 'I' for Inactive)
REMARK       I    between atoms: N_1  and  C_2 
REMARK    1  A    between atoms: C_9  and  N_1 
REMARK    2  A    between atoms: C_2  and  C_4 
REMARK    3  A    between atoms: C_9  and  C_10 
REMARK    4  A    between atoms: C_9  and  C_14 
REMARK    5  A    between atoms: C_10  and  C_11 
REMARK       I    between atoms: C_14  and  N_16 
REMARK    6  A    between atoms: C_17  and  N_16 
REMARK    7  A    between atoms: C_17  and  C_18 
REMARK    8  A    between atoms: C_17  and  P_28 
REMARK    9  A    between atoms: C_18  and  C_19 
REMARK   10  A    between atoms: P_28  and  O_30 
REMARK   11  A    between atoms: P_28  and  O_31 
ROOT
HETATM    1  C   UNK N   1      35.568  11.960   9.684  0.00  0.00     0.241 C 
HETATM    2  O   UNK N   1      34.873  11.313   8.916  0.00  0.00    -0.271 OA
HETATM    3  N   UNK N   1      35.128  13.188  10.052  0.00  0.00    -0.344 N 
HETATM    4  H   UNK N   1      34.324  13.502   9.580  0.00  0.00     0.163 HD
ENDROOT
BRANCH   3   5
HETATM    5  C   UNK N   1      35.662  14.109  11.039  0.00  0.00     0.200 C 
BRANCH   5   6
HETATM    6  C   UNK N   1      34.811  13.808  12.273  0.00  0.00     0.078 C 
BRANCH   6   7
HETATM    7  C   UNK N   1      35.486  13.433  13.550  0.00  0.00    -0.028 A 
HETATM    8  C   UNK N   1      35.166  12.379  14.364  0.00  0.00    -0.002 A 
HETATM    9  C   UNK N   1      35.955  12.487  15.474  0.00  0.00     0.042 A 
HETATM   10  C   UNK N   1      34.232  11.354  14.222  0.00  0.00     0.014 A 
HETATM   11  N   UNK N   1      36.757  13.563  15.394  0.00  0.00    -0.365 N 
HETATM   12  C   UNK N   1      35.873  11.582  16.527  0.00  0.00     0.030 A 
HETATM   13  C   UNK N   1      36.470  14.160  14.210  0.00  0.00     0.096 A 
HETATM   14  H   UNK N   1      37.421  13.858  16.060  0.00  0.00     0.165 HD
HETATM   15  C   UNK N   1      34.943  10.530  16.414  0.00  0.00     0.002 A 
HETATM   16  C   UNK N   1      34.127  10.417  15.266  0.00  0.00     0.001 A 
ENDBRANCH   6   7
ENDBRANCH   5   6
BRANCH   5  17
HETATM   17  P   UNK N   1      35.441  15.897  10.447  0.00  0.00     0.259 P 
HETATM   18  O   UNK N   1      35.473  15.685   8.912  0.00  0.00    -0.652 OA
BRANCH  17  19
HETATM   19  O   UNK N   1      37.173  15.855  10.603  0.00  0.00    -0.328 OA
HETATM   20  H   UNK N   1      37.620  15.654  11.439  0.00  0.00     0.220 HD
ENDBRANCH  17  19
BRANCH  17  21
HETATM   21  O   UNK N   1      35.842  17.586  10.483  0.00  0.00    -0.328 OA
HETATM   22  H   UNK N   1      35.514  18.330   9.953  0.00  0.00     0.220 HD
ENDBRANCH  17  21
ENDBRANCH   5  17
ENDBRANCH   3   5
BRANCH   1  23
HETATM   23  C   UNK N   1      36.888  11.364  10.140  0.00  0.00     0.177 C 
BRANCH  23  24
HETATM   24  N   UNK N   1      37.856  11.696   9.107  0.00  0.00    -0.342 N 
HETATM   25  C   UNK N   1      38.937  12.504   9.312  0.00  0.00     0.276 C 
HETATM   26  O   UNK N   1      38.965  13.291  10.242  0.00  0.00    -0.265 OA
HETATM   27  H   UNK N   1      37.725  11.316   8.208  0.00  0.00     0.163 HD
BRANCH  25  28
HETATM   28  C   UNK N   1      40.150  12.289   8.514  0.00  0.00     0.142 A 
HETATM   29  O   UNK N   1      40.458  12.999   7.457  0.00  0.00    -0.317 OA
HETATM   30  C   UNK N   1      41.663  12.668   7.053  0.00  0.00     0.143 A 
HETATM   31  C   UNK N   1      42.173  11.700   7.903  0.00  0.00     0.027 A 
HETATM   32  C   UNK N   1      41.195  11.460   8.850  0.00  0.00     0.045 A 
ENDBRANCH  25  28
ENDBRANCH  23  24
BRANCH  23  33
HETATM   33  C   UNK N   1      36.743   9.853  10.377  0.00  0.00     0.038 C 
BRANCH  33  34
HETATM   34  C   UNK N   1      37.477   9.406  11.645  0.00  0.00    -0.020 C 
HETATM   35  C   UNK N   1      38.800   8.765  11.290  0.00  0.00     0.009 C 
HETATM   36  C   UNK N   1      37.706  10.568  12.593  0.00  0.00     0.009 C 
ENDBRANCH  33  34
ENDBRANCH  23  33
ENDBRANCH   1  23
TORSDOF 11
ENDMDL
MODEL 9
REMARK VINA RESULT:      -5.9      2.984      5.878
REMARK  11 active torsions:
REMARK  status: ('A' for Active; 'I' for Inactive)
REMARK       I    between atoms: N_1  and  C_2 
REMARK    1  A    between atoms: C_9  and  N_1 
REMARK    2  A    between atoms: C_2  and  C_4 
REMARK    3  A    between atoms: C_9  and  C_10 
REMARK    4  A    between atoms: C_9  and  C_14 
REMARK    5  A    between atoms: C_10  and  C_11 
REMARK       I    between atoms: C_14  and  N_16 
REMARK    6  A    between atoms: C_17  and  N_16 
REMARK    7  A    between atoms: C_17  and  C_18 
REMARK    8  A    between atoms: C_17  and  P_28 
REMARK    9  A    between atoms: C_18  and  C_19 
REMARK   10  A    between atoms: P_28  and  O_30 
REMARK   11  A    between atoms: P_28  and  O_31 
ROOT
HETATM    1  C   UNK N   1      27.639  24.577  -3.615  0.00  0.00     0.241 C 
HETATM    2  O   UNK N   1      26.540  24.552  -3.082  0.00  0.00    -0.271 OA
HETATM    3  N   UNK N   1      28.439  23.494  -3.466  0.00  0.00    -0.344 N 
HETATM    4  H   UNK N   1      28.103  22.810  -2.843  0.00  0.00     0.163 HD
ENDROOT
BRANCH   3   5
HETATM    5  C   UNK N   1      29.715  23.188  -4.086  0.00  0.00     0.200 C 
BRANCH   5   6
HETATM    6  C   UNK N   1      29.302  22.414  -5.338  0.00  0.00     0.078 C 
BRANCH   6   7
HETATM    7  C   UNK N   1      28.969  23.166  -6.583  0.00  0.00    -0.028 A 
HETATM    8  C   UNK N   1      27.723  23.329  -7.130  0.00  0.00    -0.002 A 
HETATM    9  C   UNK N   1      27.900  23.975  -8.321  0.00  0.00     0.042 A 
HETATM   10  C   UNK N   1      26.462  22.941  -6.684  0.00  0.00     0.014 A 
HETATM   11  N   UNK N   1      29.202  24.226  -8.547  0.00  0.00    -0.365 N 
HETATM   12  C   UNK N   1      26.833  24.282  -9.158  0.00  0.00     0.030 A 
HETATM   13  C   UNK N   1      29.872  23.723  -7.480  0.00  0.00     0.096 A 
HETATM   14  H   UNK N   1      29.591  24.683  -9.328  0.00  0.00     0.165 HD
HETATM   15  C   UNK N   1      25.543  23.909  -8.735  0.00  0.00     0.002 A 
HETATM   16  C   UNK N   1      25.358  23.243  -7.503  0.00  0.00     0.001 A 
ENDBRANCH   6   7
ENDBRANCH   5   6
BRANCH   5  17
HETATM   17  P   UNK N   1      30.770  22.131  -2.918  0.00  0.00     0.259 P 
HETATM   18  O   UNK N   1      30.717  23.000  -1.636  0.00  0.00    -0.652 OA
BRANCH  17  19
HETATM   19  O   UNK N   1      32.022  23.090  -3.651  0.00  0.00    -0.328 OA
HETATM   20  H   UNK N   1      32.328  22.948  -4.560  0.00  0.00     0.220 HD
ENDBRANCH  17  19
BRANCH  17  21
HETATM   21  O   UNK N   1      32.196  21.211  -2.547  0.00  0.00    -0.328 OA
HETATM   22  H   UNK N   1      33.125  21.352  -2.788  0.00  0.00     0.220 HD
ENDBRANCH  17  21
ENDBRANCH   5  17
ENDBRANCH   3   5
BRANCH   1  23
HETATM   23  C   UNK N   1      28.046  25.830  -4.371  0.00  0.00     0.177 C 
BRANCH  23  24
HETATM   24  N   UNK N   1      29.122  26.433  -3.601  0.00  0.00    -0.342 N 
HETATM   25  C   UNK N   1      29.912  27.444  -4.063  0.00  0.00     0.276 C 
HETATM   26  O   UNK N   1      30.024  27.656  -5.258  0.00  0.00    -0.265 OA
HETATM   27  H   UNK N   1      29.289  26.091  -2.692  0.00  0.00     0.163 HD
BRANCH  25  28
HETATM   28  C   UNK N   1      30.482  28.399  -3.106  0.00  0.00     0.142 A 
HETATM   29  O   UNK N   1      31.319  28.062  -2.155  0.00  0.00    -0.317 OA
HETATM   30  C   UNK N   1      31.760  29.148  -1.565  0.00  0.00     0.143 A 
HETATM   31  C   UNK N   1      31.191  30.254  -2.174  0.00  0.00     0.027 A 
HETATM   32  C   UNK N   1      30.368  29.768  -3.173  0.00  0.00     0.045 A 
ENDBRANCH  25  28
ENDBRANCH  23  24
BRANCH  23  33
HETATM   33  C   UNK N   1      26.837  26.760  -4.562  0.00  0.00     0.038 C 
BRANCH  33  34
HETATM   34  C   UNK N   1      26.203  26.587  -5.946  0.00  0.00    -0.020 C 
HETATM   35  C   UNK N   1      24.759  27.035  -5.923  0.00  0.00     0.009 C 
HETATM   36  C   UNK N   1      26.965  27.358  -7.007  0.00  0.00     0.009 C 
ENDBRANCH  33  34
ENDBRANCH  23  33
ENDBRANCH   1  23
TORSDOF 11
ENDMDL
