REMARK  11 active torsions:
REMARK  status: ('A' for Active; 'I' for Inactive)
REMARK       I    between atoms: N_1  and  C_2 
REMARK    1  A    between atoms: C_9  and  N_1 
REMARK    2  A    between atoms: C_2  and  C_4 
REMARK    3  A    between atoms: C_9  and  C_10 
REMARK    4  A    between atoms: C_9  and  C_14 
REMARK    5  A    between atoms: C_10  and  C_11 
REMARK       I    between atoms: C_14  and  N_16 
REMARK    6  A    between atoms: C_17  and  N_16 
REMARK    7  A    between atoms: C_17  and  C_18 
REMARK    8  A    between atoms: C_17  and  P_28 
REMARK    9  A    between atoms: C_18  and  C_19 
REMARK   10  A    between atoms: P_28  and  O_30 
REMARK   11  A    between atoms: P_28  and  O_31 
ROOT
HETATM    1  C   UNK N   1      -0.532   1.270   0.876  0.00  0.00     0.241 C 
HETATM    2  O   UNK N   1      -1.063   1.826   1.825  0.00  0.00    -0.271 OA
HETATM    3  N   UNK N   1       0.666   0.672   1.084  0.00  0.00    -0.344 N 
HETATM    4  H   UNK N   1       1.062   0.829   1.971  0.00  0.00     0.163 HD
ENDROOT
BRANCH   3   5
HETATM    5  C   UNK N   1       1.453  -0.166   0.197  0.00  0.00     0.200 C 
BRANCH   5   6
HETATM    6  C   UNK N   1       1.610  -1.454   1.006  0.00  0.00     0.078 C 
BRANCH   6   7
HETATM    7  C   UNK N   1       2.580  -2.490   0.545  0.00  0.00    -0.028 A 
HETATM    8  C   UNK N   1       2.279  -3.749   0.096  0.00  0.00    -0.002 A 
HETATM    9  C   UNK N   1       3.469  -4.390  -0.100  0.00  0.00     0.042 A 
HETATM   10  C   UNK N   1       1.057  -4.379  -0.131  0.00  0.00     0.014 A 
HETATM   11  N   UNK N   1       4.506  -3.590   0.206  0.00  0.00    -0.365 N 
HETATM   12  C   UNK N   1       3.532  -5.709  -0.537  0.00  0.00     0.030 A 
HETATM   13  C   UNK N   1       3.966  -2.414   0.613  0.00  0.00     0.096 A 
HETATM   14  H   UNK N   1       5.464  -3.812   0.146  0.00  0.00     0.165 HD
HETATM   15  C   UNK N   1       2.316  -6.375  -0.782  0.00  0.00     0.002 A 
HETATM   16  C   UNK N   1       1.084  -5.712  -0.581  0.00  0.00     0.001 A 
ENDBRANCH   6   7
ENDBRANCH   5   6
BRANCH   5  17
HETATM   17  P   UNK N   1       3.126   0.653  -0.158  0.00  0.00     0.259 P 
HETATM   18  O   UNK N   1       3.417   1.294   1.223  0.00  0.00    -0.652 OA
BRANCH  17  19
HETATM   19  O   UNK N   1       2.063   1.937  -0.655  0.00  0.00    -0.328 OA
HETATM   20  H   UNK N   1       2.386   2.808  -0.932  0.00  0.00     0.220 HD
ENDBRANCH  17  19
BRANCH  17  21
HETATM   21  O   UNK N   1       4.177   1.639  -1.127  0.00  0.00    -0.328 OA
HETATM   22  H   UNK N   1       4.948   1.406  -1.668  0.00  0.00     0.220 HD
ENDBRANCH  17  21
ENDBRANCH   5  17
ENDBRANCH   3   5
BRANCH   1  23
HETATM   23  C   UNK N   1      -1.228   1.321  -0.473  0.00  0.00     0.177 C 
BRANCH  23  24
HETATM   24  N   UNK N   1      -1.375   2.731  -0.796  0.00  0.00    -0.342 N 
HETATM   25  C   UNK N   1      -2.228   3.574  -0.145  0.00  0.00     0.276 C 
HETATM   26  O   UNK N   1      -3.179   3.142   0.483  0.00  0.00    -0.265 OA
HETATM   27  H   UNK N   1      -0.827   3.099  -1.527  0.00  0.00     0.163 HD
BRANCH  25  28
HETATM   28  C   UNK N   1      -1.888   4.998  -0.047  0.00  0.00     0.142 A 
HETATM   29  O   UNK N   1      -2.575   5.861   0.661  0.00  0.00    -0.317 OA
HETATM   30  C   UNK N   1      -1.943   7.011   0.668  0.00  0.00     0.143 A 
HETATM   31  C   UNK N   1      -0.773   6.887  -0.063  0.00  0.00     0.027 A 
HETATM   32  C   UNK N   1      -0.737   5.583  -0.521  0.00  0.00     0.045 A 
ENDBRANCH  25  28
ENDBRANCH  23  24
BRANCH  23  33
HETATM   33  C   UNK N   1      -2.565   0.565  -0.418  0.00  0.00     0.038 C 
BRANCH  33  34
HETATM   34  C   UNK N   1      -2.385  -0.866   0.097  0.00  0.00    -0.020 C 
HETATM   35  C   UNK N   1      -3.721  -1.457   0.489  0.00  0.00     0.009 C 
HETATM   36  C   UNK N   1      -1.716  -1.749  -0.939  0.00  0.00     0.009 C 
ENDBRANCH  33  34
ENDBRANCH  23  33
ENDBRANCH   1  23
TORSDOF 11
