MODEL 1
REMARK VINA RESULT:      -7.4      0.000      0.000
REMARK  8 active torsions:
REMARK  status: ('A' for Active; 'I' for Inactive)
REMARK    1  A    between atoms: C_1  and  C_8 
REMARK    2  A    between atoms: C_1  and  P_15 
REMARK    3  A    between atoms: C_2  and  C_12 
REMARK    4  A    between atoms: C_12  and  P_21 
REMARK    5  A    between atoms: P_15  and  O_17 
REMARK    6  A    between atoms: P_15  and  O_18 
REMARK    7  A    between atoms: P_21  and  O_23 
REMARK    8  A    between atoms: P_21  and  O_24 
ROOT
HETATM    1  C   UNK N   1      27.623  18.213   5.616  0.00  0.00     0.026 A 
HETATM    2  C   UNK N   1      28.245  19.252   4.896  0.00  0.00     0.015 A 
HETATM    3  C   UNK N   1      27.491  20.043   4.004  0.00  0.00     0.013 A 
HETATM    4  C   UNK N   1      26.115  19.803   3.845  0.00  0.00    -0.026 A 
HETATM    5  C   UNK N   1      25.324  20.554   2.959  0.00  0.00     0.013 A 
HETATM    6  C   UNK N   1      23.942  20.275   2.837  0.00  0.00     0.015 A 
HETATM    7  C   UNK N   1      23.359  19.255   3.619  0.00  0.00     0.026 A 
HETATM    8  C   UNK N   1      24.163  18.525   4.485  0.00  0.00     0.026 A 
HETATM    9  C   UNK N   1      25.514  18.776   4.593  0.00  0.00    -0.025 A 
HETATM   10  C   UNK N   1      26.260  17.993   5.449  0.00  0.00     0.026 A 
ENDROOT
BRANCH   1  11
HETATM   11  C   UNK N   1      28.366  17.294   6.547  0.00  0.00     0.364 C 
HETATM   12  F   UNK N   1      29.683  17.130   6.158  0.00  0.00    -0.187 F 
HETATM   13  F   UNK N   1      27.738  16.061   6.537  0.00  0.00    -0.187 F 
BRANCH  11  14
HETATM   14  P   UNK N   1      28.306  17.967   8.294  0.00  0.00     0.315 P 
HETATM   15  O   UNK N   1      27.598  16.967   9.246  0.00  0.00    -0.649 OA
BRANCH  14  16
HETATM   16  O   UNK N   1      29.844  18.262   9.040  0.00  0.00    -0.325 OA
HETATM   17  H   UNK N   1      30.598  18.309   9.649  0.00  0.00     0.220 HD
ENDBRANCH  14  16
BRANCH  14  18
HETATM   18  O   UNK N   1      27.379  19.428   8.471  0.00  0.00    -0.325 OA
HETATM   19  H   UNK N   1      27.075  19.706   9.348  0.00  0.00     0.220 HD
ENDBRANCH  14  18
ENDBRANCH  11  14
ENDBRANCH   1  11
BRANCH   7  20
HETATM   20  C   UNK N   1      21.899  18.881   3.613  0.00  0.00     0.364 C 
HETATM   21  F   UNK N   1      21.796  17.560   3.215  0.00  0.00    -0.187 F 
HETATM   22  F   UNK N   1      21.433  18.983   4.912  0.00  0.00    -0.187 F 
BRANCH  20  23
HETATM   23  P   UNK N   1      20.758  19.857   2.515  0.00  0.00     0.315 P 
HETATM   24  O   UNK N   1      21.209  19.868   1.032  0.00  0.00    -0.649 OA
BRANCH  23  25
HETATM   25  O   UNK N   1      19.100  19.350   2.498  0.00  0.00    -0.325 OA
HETATM   26  H   UNK N   1      18.259  19.695   2.162  0.00  0.00     0.220 HD
ENDBRANCH  23  25
BRANCH  23  27
HETATM   27  O   UNK N   1      20.744  21.534   2.966  0.00  0.00    -0.325 OA
HETATM   28  H   UNK N   1      21.388  22.147   2.578  0.00  0.00     0.220 HD
ENDBRANCH  23  27
ENDBRANCH  20  23
ENDBRANCH   7  20
TORSDOF 8
ENDMDL
MODEL 2
REMARK VINA RESULT:      -7.1      5.578      8.128
REMARK  8 active torsions:
REMARK  status: ('A' for Active; 'I' for Inactive)
REMARK    1  A    between atoms: C_1  and  C_8 
REMARK    2  A    between atoms: C_1  and  P_15 
REMARK    3  A    between atoms: C_2  and  C_12 
REMARK    4  A    between atoms: C_12  and  P_21 
REMARK    5  A    between atoms: P_15  and  O_17 
REMARK    6  A    between atoms: P_15  and  O_18 
REMARK    7  A    between atoms: P_21  and  O_23 
REMARK    8  A    between atoms: P_21  and  O_24 
ROOT
HETATM    1  C   UNK N   1      34.283  15.339   7.709  0.00  0.00     0.026 A 
HETATM    2  C   UNK N   1      34.858  15.745   6.488  0.00  0.00     0.015 A 
HETATM    3  C   UNK N   1      34.072  16.404   5.519  0.00  0.00     0.013 A 
HETATM    4  C   UNK N   1      32.716  16.669   5.781  0.00  0.00    -0.026 A 
HETATM    5  C   UNK N   1      31.888  17.311   4.844  0.00  0.00     0.013 A 
HETATM    6  C   UNK N   1      30.529  17.557   5.155  0.00  0.00     0.015 A 
HETATM    7  C   UNK N   1      30.016  17.176   6.413  0.00  0.00     0.026 A 
HETATM    8  C   UNK N   1      30.854  16.541   7.320  0.00  0.00     0.026 A 
HETATM    9  C   UNK N   1      32.173  16.277   7.015  0.00  0.00    -0.025 A 
HETATM   10  C   UNK N   1      32.942  15.615   7.950  0.00  0.00     0.026 A 
ENDROOT
BRANCH   1  11
HETATM   11  C   UNK N   1      35.040  14.589   8.769  0.00  0.00     0.364 C 
HETATM   12  F   UNK N   1      36.388  14.504   8.470  0.00  0.00    -0.187 F 
HETATM   13  F   UNK N   1      34.519  13.310   8.855  0.00  0.00    -0.187 F 
BRANCH  11  14
HETATM   14  P   UNK N   1      34.817  15.425  10.430  0.00  0.00     0.315 P 
HETATM   15  O   UNK N   1      35.984  15.068  11.388  0.00  0.00    -0.649 OA
BRANCH  14  16
HETATM   16  O   UNK N   1      34.794  17.159  10.402  0.00  0.00    -0.325 OA
HETATM   17  H   UNK N   1      34.760  18.101  10.631  0.00  0.00     0.220 HD
ENDBRANCH  14  16
BRANCH  14  18
HETATM   18  O   UNK N   1      33.400  14.922  11.303  0.00  0.00    -0.325 OA
HETATM   19  H   UNK N   1      32.539  15.319  11.100  0.00  0.00     0.220 HD
ENDBRANCH  14  18
ENDBRANCH  11  14
ENDBRANCH   1  11
BRANCH   7  20
HETATM   20  C   UNK N   1      28.604  17.411   6.884  0.00  0.00     0.364 C 
HETATM   21  F   UNK N   1      27.987  18.262   5.986  0.00  0.00    -0.187 F 
HETATM   22  F   UNK N   1      27.944  16.195   6.858  0.00  0.00    -0.187 F 
BRANCH  20  23
HETATM   23  P   UNK N   1      28.366  18.157   8.572  0.00  0.00     0.315 P 
HETATM   24  O   UNK N   1      27.764  17.160   9.595  0.00  0.00    -0.649 OA
BRANCH  23  25
HETATM   25  O   UNK N   1      29.789  18.800   9.326  0.00  0.00    -0.325 OA
HETATM   26  H   UNK N   1      30.139  18.874  10.228  0.00  0.00     0.220 HD
ENDBRANCH  23  25
BRANCH  23  27
HETATM   27  O   UNK N   1      27.217  19.458   8.522  0.00  0.00    -0.325 OA
HETATM   28  H   UNK N   1      27.185  20.047   7.753  0.00  0.00     0.220 HD
ENDBRANCH  23  27
ENDBRANCH  20  23
ENDBRANCH   7  20
TORSDOF 8
ENDMDL
MODEL 3
REMARK VINA RESULT:      -7.0      4.342      9.407
REMARK  8 active torsions:
REMARK  status: ('A' for Active; 'I' for Inactive)
REMARK    1  A    between atoms: C_1  and  C_8 
REMARK    2  A    between atoms: C_1  and  P_15 
REMARK    3  A    between atoms: C_2  and  C_12 
REMARK    4  A    between atoms: C_12  and  P_21 
REMARK    5  A    between atoms: P_15  and  O_17 
REMARK    6  A    between atoms: P_15  and  O_18 
REMARK    7  A    between atoms: P_21  and  O_23 
REMARK    8  A    between atoms: P_21  and  O_24 
ROOT
HETATM    1  C   UNK N   1      28.932  16.751   3.991  0.00  0.00     0.026 A 
HETATM    2  C   UNK N   1      29.763  16.459   2.890  0.00  0.00     0.015 A 
HETATM    3  C   UNK N   1      31.166  16.525   3.026  0.00  0.00     0.013 A 
HETATM    4  C   UNK N   1      31.734  16.868   4.264  0.00  0.00    -0.026 A 
HETATM    5  C   UNK N   1      33.125  16.960   4.446  0.00  0.00     0.013 A 
HETATM    6  C   UNK N   1      33.649  17.307   5.714  0.00  0.00     0.015 A 
HETATM    7  C   UNK N   1      32.774  17.540   6.797  0.00  0.00     0.026 A 
HETATM    8  C   UNK N   1      31.404  17.446   6.591  0.00  0.00     0.026 A 
HETATM    9  C   UNK N   1      30.885  17.130   5.352  0.00  0.00    -0.025 A 
HETATM   10  C   UNK N   1      29.515  17.084   5.209  0.00  0.00     0.026 A 
ENDROOT
BRANCH   1  11
HETATM   11  C   UNK N   1      27.431  16.751   3.915  0.00  0.00     0.364 C 
HETATM   12  F   UNK N   1      26.871  15.898   4.849  0.00  0.00    -0.187 F 
HETATM   13  F   UNK N   1      27.058  16.336   2.649  0.00  0.00    -0.187 F 
BRANCH  11  14
HETATM   14  P   UNK N   1      26.776  18.487   4.178  0.00  0.00     0.315 P 
HETATM   15  O   UNK N   1      25.485  18.721   3.350  0.00  0.00    -0.649 OA
BRANCH  14  16
HETATM   16  O   UNK N   1      26.324  18.881   5.806  0.00  0.00    -0.325 OA
HETATM   17  H   UNK N   1      25.861  18.985   6.652  0.00  0.00     0.220 HD
ENDBRANCH  14  16
BRANCH  14  18
HETATM   18  O   UNK N   1      27.845  19.747   3.639  0.00  0.00    -0.325 OA
HETATM   19  H   UNK N   1      27.499  20.484   3.111  0.00  0.00     0.220 HD
ENDBRANCH  14  18
ENDBRANCH  11  14
ENDBRANCH   1  11
BRANCH   7  20
HETATM   20  C   UNK N   1      33.200  17.880   8.202  0.00  0.00     0.364 C 
HETATM   21  F   UNK N   1      34.096  18.933   8.137  0.00  0.00    -0.187 F 
HETATM   22  F   UNK N   1      32.077  18.305   8.891  0.00  0.00    -0.187 F 
BRANCH  20  23
HETATM   23  P   UNK N   1      34.020  16.546   9.206  0.00  0.00     0.315 P 
HETATM   24  O   UNK N   1      35.003  15.682   8.376  0.00  0.00    -0.649 OA
BRANCH  23  25
HETATM   25  O   UNK N   1      34.918  17.080  10.590  0.00  0.00    -0.325 OA
HETATM   26  H   UNK N   1      34.766  17.664  11.350  0.00  0.00     0.220 HD
ENDBRANCH  23  25
BRANCH  23  27
HETATM   27  O   UNK N   1      32.852  15.407   9.800  0.00  0.00    -0.325 OA
HETATM   28  H   UNK N   1      33.126  14.703  10.407  0.00  0.00     0.220 HD
ENDBRANCH  23  27
ENDBRANCH  20  23
ENDBRANCH   7  20
TORSDOF 8
ENDMDL
MODEL 4
REMARK VINA RESULT:      -7.0     11.625     12.239
REMARK  8 active torsions:
REMARK  status: ('A' for Active; 'I' for Inactive)
REMARK    1  A    between atoms: C_1  and  C_8 
REMARK    2  A    between atoms: C_1  and  P_15 
REMARK    3  A    between atoms: C_2  and  C_12 
REMARK    4  A    between atoms: C_12  and  P_21 
REMARK    5  A    between atoms: P_15  and  O_17 
REMARK    6  A    between atoms: P_15  and  O_18 
REMARK    7  A    between atoms: P_21  and  O_23 
REMARK    8  A    between atoms: P_21  and  O_24 
ROOT
HETATM    1  C   UNK N   1      30.031  23.473  -5.008  0.00  0.00     0.026 A 
HETATM    2  C   UNK N   1      29.404  22.708  -6.012  0.00  0.00     0.015 A 
HETATM    3  C   UNK N   1      28.113  23.054  -6.463  0.00  0.00     0.013 A 
HETATM    4  C   UNK N   1      27.458  24.173  -5.919  0.00  0.00    -0.026 A 
HETATM    5  C   UNK N   1      26.166  24.551  -6.325  0.00  0.00     0.013 A 
HETATM    6  C   UNK N   1      25.550  25.687  -5.748  0.00  0.00     0.015 A 
HETATM    7  C   UNK N   1      26.243  26.448  -4.782  0.00  0.00     0.026 A 
HETATM    8  C   UNK N   1      27.516  26.052  -4.396  0.00  0.00     0.026 A 
HETATM    9  C   UNK N   1      28.114  24.933  -4.937  0.00  0.00    -0.025 A 
HETATM   10  C   UNK N   1      29.368  24.578  -4.486  0.00  0.00     0.026 A 
ENDROOT
BRANCH   1  11
HETATM   11  C   UNK N   1      31.383  23.140  -4.440  0.00  0.00     0.364 C 
HETATM   12  F   UNK N   1      32.111  24.280  -4.153  0.00  0.00    -0.187 F 
HETATM   13  F   UNK N   1      32.076  22.389  -5.373  0.00  0.00    -0.187 F 
BRANCH  11  14
HETATM   14  P   UNK N   1      31.189  22.111  -2.887  0.00  0.00     0.315 P 
HETATM   15  O   UNK N   1      30.209  20.931  -3.126  0.00  0.00    -0.649 OA
BRANCH  14  16
HETATM   16  O   UNK N   1      32.637  21.358  -2.298  0.00  0.00    -0.325 OA
HETATM   17  H   UNK N   1      33.434  20.818  -2.185  0.00  0.00     0.220 HD
ENDBRANCH  14  16
BRANCH  14  18
HETATM   18  O   UNK N   1      30.487  22.962  -1.543  0.00  0.00    -0.325 OA
HETATM   19  H   UNK N   1      31.038  23.207  -0.783  0.00  0.00     0.220 HD
ENDBRANCH  14  18
ENDBRANCH  11  14
ENDBRANCH   1  11
BRANCH   7  20
HETATM   20  C   UNK N   1      25.719  27.696  -4.118  0.00  0.00     0.364 C 
HETATM   21  F   UNK N   1      24.516  28.028  -4.716  0.00  0.00    -0.187 F 
HETATM   22  F   UNK N   1      25.477  27.395  -2.789  0.00  0.00    -0.187 F 
BRANCH  20  23
HETATM   23  P   UNK N   1      26.782  29.221  -4.178  0.00  0.00     0.315 P 
HETATM   24  O   UNK N   1      27.424  29.456  -5.569  0.00  0.00    -0.649 OA
BRANCH  23  25
HETATM   25  O   UNK N   1      25.997  30.712  -3.766  0.00  0.00    -0.325 OA
HETATM   26  H   UNK N   1      25.089  31.010  -3.603  0.00  0.00     0.220 HD
ENDBRANCH  23  25
BRANCH  23  27
HETATM   27  O   UNK N   1      28.139  29.078  -3.104  0.00  0.00    -0.325 OA
HETATM   28  H   UNK N   1      29.017  28.868  -3.457  0.00  0.00     0.220 HD
ENDBRANCH  23  27
ENDBRANCH  20  23
ENDBRANCH   7  20
TORSDOF 8
ENDMDL
MODEL 5
REMARK VINA RESULT:      -7.0      0.455      7.500
REMARK  8 active torsions:
REMARK  status: ('A' for Active; 'I' for Inactive)
REMARK    1  A    between atoms: C_1  and  C_8 
REMARK    2  A    between atoms: C_1  and  P_15 
REMARK    3  A    between atoms: C_2  and  C_12 
REMARK    4  A    between atoms: C_12  and  P_21 
REMARK    5  A    between atoms: P_15  and  O_17 
REMARK    6  A    between atoms: P_15  and  O_18 
REMARK    7  A    between atoms: P_21  and  O_23 
REMARK    8  A    between atoms: P_21  and  O_24 
ROOT
HETATM    1  C   UNK N   1      23.064  19.012   3.782  0.00  0.00     0.026 A 
HETATM    2  C   UNK N   1      23.474  20.085   2.967  0.00  0.00     0.015 A 
HETATM    3  C   UNK N   1      24.811  20.535   3.008  0.00  0.00     0.013 A 
HETATM    4  C   UNK N   1      25.737  19.900   3.854  0.00  0.00    -0.026 A 
HETATM    5  C   UNK N   1      27.076  20.319   3.942  0.00  0.00     0.013 A 
HETATM    6  C   UNK N   1      27.971  19.645   4.807  0.00  0.00     0.015 A 
HETATM    7  C   UNK N   1      27.520  18.543   5.565  0.00  0.00     0.026 A 
HETATM    8  C   UNK N   1      26.192  18.151   5.463  0.00  0.00     0.026 A 
HETATM    9  C   UNK N   1      25.309  18.817   4.639  0.00  0.00    -0.025 A 
HETATM   10  C   UNK N   1      23.996  18.395   4.609  0.00  0.00     0.026 A 
ENDROOT
BRANCH   1  11
HETATM   11  C   UNK N   1      21.648  18.508   3.833  0.00  0.00     0.364 C 
HETATM   12  F   UNK N   1      21.211  18.342   5.134  0.00  0.00    -0.187 F 
HETATM   13  F   UNK N   1      21.597  17.286   3.184  0.00  0.00    -0.187 F 
BRANCH  11  14
HETATM   14  P   UNK N   1      20.513  19.696   2.935  0.00  0.00     0.315 P 
HETATM   15  O   UNK N   1      19.096  19.084   2.766  0.00  0.00    -0.649 OA
BRANCH  14  16
HETATM   16  O   UNK N   1      20.237  21.215   3.725  0.00  0.00    -0.325 OA
HETATM   17  H   UNK N   1      20.265  22.140   4.016  0.00  0.00     0.220 HD
ENDBRANCH  14  16
BRANCH  14  18
HETATM   18  O   UNK N   1      20.998  20.062   1.306  0.00  0.00    -0.325 OA
HETATM   19  H   UNK N   1      20.455  19.765   0.559  0.00  0.00     0.220 HD
ENDBRANCH  14  18
ENDBRANCH  11  14
ENDBRANCH   1  11
BRANCH   7  20
HETATM   20  C   UNK N   1      28.374  17.719   6.494  0.00  0.00     0.364 C 
HETATM   21  F   UNK N   1      27.987  16.396   6.372  0.00  0.00    -0.187 F 
HETATM   22  F   UNK N   1      29.686  17.831   6.070  0.00  0.00    -0.187 F 
BRANCH  20  23
HETATM   23  P   UNK N   1      28.320  18.123   8.309  0.00  0.00     0.315 P 
HETATM   24  O   UNK N   1      27.672  17.000   9.159  0.00  0.00    -0.649 OA
BRANCH  23  25
HETATM   25  O   UNK N   1      29.847  18.457   9.060  0.00  0.00    -0.325 OA
HETATM   26  H   UNK N   1      30.436  18.015   9.690  0.00  0.00     0.220 HD
ENDBRANCH  23  25
BRANCH  23  27
HETATM   27  O   UNK N   1      27.321  19.511   8.609  0.00  0.00    -0.325 OA
HETATM   28  H   UNK N   1      27.634  20.216   9.196  0.00  0.00     0.220 HD
ENDBRANCH  23  27
ENDBRANCH  20  23
ENDBRANCH   7  20
TORSDOF 8
ENDMDL
MODEL 6
REMARK VINA RESULT:      -6.9      5.408     10.407
REMARK  8 active torsions:
REMARK  status: ('A' for Active; 'I' for Inactive)
REMARK    1  A    between atoms: C_1  and  C_8 
REMARK    2  A    between atoms: C_1  and  P_15 
REMARK    3  A    between atoms: C_2  and  C_12 
REMARK    4  A    between atoms: C_12  and  P_21 
REMARK    5  A    between atoms: P_15  and  O_17 
REMARK    6  A    between atoms: P_15  and  O_18 
REMARK    7  A    between atoms: P_21  and  O_23 
REMARK    8  A    between atoms: P_21  and  O_24 
ROOT
HETATM    1  C   UNK N   1      29.916  17.116   6.250  0.00  0.00     0.026 A 
HETATM    2  C   UNK N   1      30.458  17.561   5.027  0.00  0.00     0.015 A 
HETATM    3  C   UNK N   1      31.831  17.384   4.756  0.00  0.00     0.013 A 
HETATM    4  C   UNK N   1      32.656  16.751   5.702  0.00  0.00    -0.026 A 
HETATM    5  C   UNK N   1      34.032  16.564   5.485  0.00  0.00     0.013 A 
HETATM    6  C   UNK N   1      34.820  15.918   6.468  0.00  0.00     0.015 A 
HETATM    7  C   UNK N   1      34.217  15.446   7.654  0.00  0.00     0.026 A 
HETATM    8  C   UNK N   1      32.856  15.646   7.845  0.00  0.00     0.026 A 
HETATM    9  C   UNK N   1      32.086  16.295   6.903  0.00  0.00    -0.025 A 
HETATM   10  C   UNK N   1      30.748  16.488   7.170  0.00  0.00     0.026 A 
ENDROOT
BRANCH   1  11
HETATM   11  C   UNK N   1      28.475  17.311   6.633  0.00  0.00     0.364 C 
HETATM   12  F   UNK N   1      27.869  16.113   6.967  0.00  0.00    -0.187 F 
HETATM   13  F   UNK N   1      27.808  17.866   5.556  0.00  0.00    -0.187 F 
BRANCH  11  14
HETATM   14  P   UNK N   1      28.352  18.501   8.075  0.00  0.00     0.315 P 
HETATM   15  O   UNK N   1      27.643  19.813   7.647  0.00  0.00    -0.649 OA
BRANCH  14  16
HETATM   16  O   UNK N   1      27.438  17.939   9.438  0.00  0.00    -0.325 OA
HETATM   17  H   UNK N   1      27.146  17.532  10.268  0.00  0.00     0.220 HD
ENDBRANCH  14  16
BRANCH  14  18
HETATM   18  O   UNK N   1      29.883  19.044   8.692  0.00  0.00    -0.325 OA
HETATM   19  H   UNK N   1      30.531  19.448   8.094  0.00  0.00     0.220 HD
ENDBRANCH  14  18
ENDBRANCH  11  14
ENDBRANCH   1  11
BRANCH   7  20
HETATM   20  C   UNK N   1      34.930  14.712   8.760  0.00  0.00     0.364 C 
HETATM   21  F   UNK N   1      34.386  13.444   8.855  0.00  0.00    -0.187 F 
HETATM   22  F   UNK N   1      36.260  14.591   8.396  0.00  0.00    -0.187 F 
BRANCH  20  23
HETATM   23  P   UNK N   1      34.867  15.447  10.468  0.00  0.00     0.315 P 
HETATM   24  O   UNK N   1      36.031  14.971  11.375  0.00  0.00    -0.649 OA
BRANCH  23  25
HETATM   25  O   UNK N   1      34.885  17.179  10.553  0.00  0.00    -0.325 OA
HETATM   26  H   UNK N   1      34.293  17.904  10.299  0.00  0.00     0.220 HD
ENDBRANCH  23  25
BRANCH  23  27
HETATM   27  O   UNK N   1      33.437  14.938  11.313  0.00  0.00    -0.325 OA
HETATM   28  H   UNK N   1      33.042  14.074  11.120  0.00  0.00     0.220 HD
ENDBRANCH  23  27
ENDBRANCH  20  23
ENDBRANCH   7  20
TORSDOF 8
ENDMDL
MODEL 7
REMARK VINA RESULT:      -6.8      1.654      2.136
REMARK  8 active torsions:
REMARK  status: ('A' for Active; 'I' for Inactive)
REMARK    1  A    between atoms: C_1  and  C_8 
REMARK    2  A    between atoms: C_1  and  P_15 
REMARK    3  A    between atoms: C_2  and  C_12 
REMARK    4  A    between atoms: C_12  and  P_21 
REMARK    5  A    between atoms: P_15  and  O_17 
REMARK    6  A    between atoms: P_15  and  O_18 
REMARK    7  A    between atoms: P_21  and  O_23 
REMARK    8  A    between atoms: P_21  and  O_24 
ROOT
HETATM    1  C   UNK N   1      27.312  18.407   5.354  0.00  0.00     0.026 A 
HETATM    2  C   UNK N   1      27.872  19.409   4.536  0.00  0.00     0.015 A 
HETATM    3  C   UNK N   1      27.049  20.151   3.662  0.00  0.00     0.013 A 
HETATM    4  C   UNK N   1      25.666  19.899   3.620  0.00  0.00    -0.026 A 
HETATM    5  C   UNK N   1      24.806  20.601   2.757  0.00  0.00     0.013 A 
HETATM    6  C   UNK N   1      23.421  20.311   2.753  0.00  0.00     0.015 A 
HETATM    7  C   UNK N   1      22.905  19.333   3.629  0.00  0.00     0.026 A 
HETATM    8  C   UNK N   1      23.775  18.651   4.470  0.00  0.00     0.026 A 
HETATM    9  C   UNK N   1      25.130  18.911   4.463  0.00  0.00    -0.025 A 
HETATM   10  C   UNK N   1      25.942  18.176   5.301  0.00  0.00     0.026 A 
ENDROOT
BRANCH   1  11
HETATM   11  C   UNK N   1      28.128  17.541   6.274  0.00  0.00     0.364 C 
HETATM   12  F   UNK N   1      29.436  17.427   5.840  0.00  0.00    -0.187 F 
HETATM   13  F   UNK N   1      27.556  16.282   6.309  0.00  0.00    -0.187 F 
BRANCH  11  14
HETATM   14  P   UNK N   1      28.101  18.245   8.009  0.00  0.00     0.315 P 
HETATM   15  O   UNK N   1      29.540  18.556   8.500  0.00  0.00    -0.649 OA
BRANCH  14  16
HETATM   16  O   UNK N   1      27.245  19.742   8.200  0.00  0.00    -0.325 OA
HETATM   17  H   UNK N   1      26.601  20.433   8.420  0.00  0.00     0.220 HD
ENDBRANCH  14  16
BRANCH  14  18
HETATM   18  O   UNK N   1      27.481  17.159   9.216  0.00  0.00    -0.325 OA
HETATM   19  H   UNK N   1      27.519  17.402  10.154  0.00  0.00     0.220 HD
ENDBRANCH  14  18
ENDBRANCH  11  14
ENDBRANCH   1  11
BRANCH   7  20
HETATM   20  C   UNK N   1      21.451  18.955   3.752  0.00  0.00     0.364 C 
HETATM   21  F   UNK N   1      20.959  19.513   4.918  0.00  0.00    -0.187 F 
HETATM   22  F   UNK N   1      20.778  19.517   2.681  0.00  0.00    -0.187 F 
BRANCH  20  23
HETATM   23  P   UNK N   1      21.028  17.144   3.810  0.00  0.00     0.315 P 
HETATM   24  O   UNK N   1      21.794  16.310   2.752  0.00  0.00    -0.649 OA
BRANCH  23  25
HETATM   25  O   UNK N   1      21.304  16.347   5.326  0.00  0.00    -0.325 OA
HETATM   26  H   UNK N   1      22.069  16.124   5.878  0.00  0.00     0.220 HD
ENDBRANCH  23  25
BRANCH  23  27
HETATM   27  O   UNK N   1      19.355  16.882   3.426  0.00  0.00    -0.325 OA
HETATM   28  H   UNK N   1      19.104  16.183   2.804  0.00  0.00     0.220 HD
ENDBRANCH  23  27
ENDBRANCH  20  23
ENDBRANCH   7  20
TORSDOF 8
ENDMDL
MODEL 8
REMARK VINA RESULT:      -6.6      4.324      6.246
REMARK  8 active torsions:
REMARK  status: ('A' for Active; 'I' for Inactive)
REMARK    1  A    between atoms: C_1  and  C_8 
REMARK    2  A    between atoms: C_1  and  P_15 
REMARK    3  A    between atoms: C_2  and  C_12 
REMARK    4  A    between atoms: C_12  and  P_21 
REMARK    5  A    between atoms: P_15  and  O_17 
REMARK    6  A    between atoms: P_15  and  O_18 
REMARK    7  A    between atoms: P_21  and  O_23 
REMARK    8  A    between atoms: P_21  and  O_24 
ROOT
HETATM    1  C   UNK N   1      32.963  17.579   6.643  0.00  0.00     0.026 A 
HETATM    2  C   UNK N   1      33.804  17.171   5.588  0.00  0.00     0.015 A 
HETATM    3  C   UNK N   1      33.247  16.731   4.369  0.00  0.00     0.013 A 
HETATM    4  C   UNK N   1      31.852  16.714   4.202  0.00  0.00    -0.026 A 
HETATM    5  C   UNK N   1      31.248  16.272   3.012  0.00  0.00     0.013 A 
HETATM    6  C   UNK N   1      29.838  16.276   2.892  0.00  0.00     0.015 A 
HETATM    7  C   UNK N   1      29.043  16.743   3.961  0.00  0.00     0.026 A 
HETATM    8  C   UNK N   1      29.663  17.171   5.127  0.00  0.00     0.026 A 
HETATM    9  C   UNK N   1      31.036  17.149   5.260  0.00  0.00    -0.025 A 
HETATM   10  C   UNK N   1      31.585  17.559   6.456  0.00  0.00     0.026 A 
ENDROOT
BRANCH   1  11
HETATM   11  C   UNK N   1      33.477  18.013   7.988  0.00  0.00     0.364 C 
HETATM   12  F   UNK N   1      32.595  18.872   8.618  0.00  0.00    -0.187 F 
HETATM   13  F   UNK N   1      34.683  18.666   7.804  0.00  0.00    -0.187 F 
BRANCH  11  14
HETATM   14  P   UNK N   1      33.780  16.516   9.071  0.00  0.00     0.315 P 
HETATM   15  O   UNK N   1      34.638  15.460   8.325  0.00  0.00    -0.649 OA
BRANCH  14  16
HETATM   16  O   UNK N   1      34.646  16.816  10.544  0.00  0.00    -0.325 OA
HETATM   17  H   UNK N   1      35.246  16.774  11.305  0.00  0.00     0.220 HD
ENDBRANCH  14  16
BRANCH  14  18
HETATM   18  O   UNK N   1      32.342  15.642   9.508  0.00  0.00    -0.325 OA
HETATM   19  H   UNK N   1      31.704  15.384   8.824  0.00  0.00     0.220 HD
ENDBRANCH  14  18
ENDBRANCH  11  14
ENDBRANCH   1  11
BRANCH   7  20
HETATM   20  C   UNK N   1      27.539  16.834   3.952  0.00  0.00     0.364 C 
HETATM   21  F   UNK N   1      27.088  16.364   2.731  0.00  0.00    -0.187 F 
HETATM   22  F   UNK N   1      27.060  15.999   4.946  0.00  0.00    -0.187 F 
BRANCH  20  23
HETATM   23  P   UNK N   1      26.771  18.511   4.191  0.00  0.00     0.315 P 
HETATM   24  O   UNK N   1      25.487  18.715   3.347  0.00  0.00    -0.649 OA
BRANCH  23  25
HETATM   25  O   UNK N   1      26.332  18.921   5.818  0.00  0.00    -0.325 OA
HETATM   26  H   UNK N   1      25.640  19.443   6.253  0.00  0.00     0.220 HD
ENDBRANCH  23  25
BRANCH  23  27
HETATM   27  O   UNK N   1      27.839  19.769   3.649  0.00  0.00    -0.325 OA
HETATM   28  H   UNK N   1      28.680  19.541   3.224  0.00  0.00     0.220 HD
ENDBRANCH  23  27
ENDBRANCH  20  23
ENDBRANCH   7  20
TORSDOF 8
ENDMDL
MODEL 9
REMARK VINA RESULT:      -6.6     10.921     13.375
REMARK  8 active torsions:
REMARK  status: ('A' for Active; 'I' for Inactive)
REMARK    1  A    between atoms: C_1  and  C_8 
REMARK    2  A    between atoms: C_1  and  P_15 
REMARK    3  A    between atoms: C_2  and  C_12 
REMARK    4  A    between atoms: C_12  and  P_21 
REMARK    5  A    between atoms: P_15  and  O_17 
REMARK    6  A    between atoms: P_15  and  O_18 
REMARK    7  A    between atoms: P_21  and  O_23 
REMARK    8  A    between atoms: P_21  and  O_24 
ROOT
HETATM    1  C   UNK N   1      26.603  25.322  -6.133  0.00  0.00     0.026 A 
HETATM    2  C   UNK N   1      26.513  24.951  -7.490  0.00  0.00     0.015 A 
HETATM    3  C   UNK N   1      27.279  23.872  -7.980  0.00  0.00     0.013 A 
HETATM    4  C   UNK N   1      28.122  23.159  -7.110  0.00  0.00    -0.026 A 
HETATM    5  C   UNK N   1      28.915  22.086  -7.553  0.00  0.00     0.013 A 
HETATM    6  C   UNK N   1      29.746  21.398  -6.637  0.00  0.00     0.015 A 
HETATM    7  C   UNK N   1      29.761  21.778  -5.278  0.00  0.00     0.026 A 
HETATM    8  C   UNK N   1      28.970  22.843  -4.866  0.00  0.00     0.026 A 
HETATM    9  C   UNK N   1      28.176  23.533  -5.757  0.00  0.00    -0.025 A 
HETATM   10  C   UNK N   1      27.440  24.601  -5.288  0.00  0.00     0.026 A 
ENDROOT
BRANCH   1  11
HETATM   11  C   UNK N   1      25.859  26.489  -5.546  0.00  0.00     0.364 C 
HETATM   12  F   UNK N   1      24.492  26.277  -5.551  0.00  0.00    -0.187 F 
HETATM   13  F   UNK N   1      26.141  27.612  -6.303  0.00  0.00    -0.187 F 
BRANCH  11  14
HETATM   14  P   UNK N   1      26.439  26.802  -3.793  0.00  0.00     0.315 P 
HETATM   15  O   UNK N   1      25.544  27.862  -3.097  0.00  0.00    -0.649 OA
BRANCH  14  16
HETATM   16  O   UNK N   1      26.396  25.433  -2.730  0.00  0.00    -0.325 OA
HETATM   17  H   UNK N   1      26.618  24.688  -2.150  0.00  0.00     0.220 HD
ENDBRANCH  14  16
BRANCH  14  18
HETATM   18  O   UNK N   1      28.038  27.475  -3.675  0.00  0.00    -0.325 OA
HETATM   19  H   UNK N   1      28.813  26.919  -3.852  0.00  0.00     0.220 HD
ENDBRANCH  14  18
ENDBRANCH  11  14
ENDBRANCH   1  11
BRANCH   7  20
HETATM   20  C   UNK N   1      30.569  21.110  -4.196  0.00  0.00     0.364 C 
HETATM   21  F   UNK N   1      29.691  20.473  -3.336  0.00  0.00    -0.187 F 
HETATM   22  F   UNK N   1      31.365  20.151  -4.797  0.00  0.00    -0.187 F 
BRANCH  20  23
HETATM   23  P   UNK N   1      31.661  22.184  -3.140  0.00  0.00     0.315 P 
HETATM   24  O   UNK N   1      32.634  23.058  -3.971  0.00  0.00    -0.649 OA
BRANCH  23  25
HETATM   25  O   UNK N   1      30.845  23.277  -2.069  0.00  0.00    -0.325 OA
HETATM   26  H   UNK N   1      31.097  23.981  -1.451  0.00  0.00     0.220 HD
ENDBRANCH  23  25
BRANCH  23  27
HETATM   27  O   UNK N   1      32.705  21.220  -2.141  0.00  0.00    -0.325 OA
HETATM   28  H   UNK N   1      33.652  21.168  -2.338  0.00  0.00     0.220 HD
ENDBRANCH  23  27
ENDBRANCH  20  23
ENDBRANCH   7  20
TORSDOF 8
ENDMDL
