MODEL 1
REMARK VINA RESULT:      -4.8      0.000      0.000
REMARK  8 active torsions:
REMARK  status: ('A' for Active; 'I' for Inactive)
REMARK    1  A    between atoms: C_4  and  C_5 
REMARK    2  A    between atoms: C_5  and  C_6 
REMARK    3  A    between atoms: C_6  and  C_7 
REMARK    4  A    between atoms: C_9  and  C_10 
REMARK    5  A    between atoms: C_10  and  C_11 
REMARK    6  A    between atoms: C_11  and  C_12 
REMARK    7  A    between atoms: C_14  and  C_15 
REMARK    8  A    between atoms: C_15  and  O_16 
ROOT
HETATM    1  C   UNK N   1      25.900  24.095  -6.517  0.00  0.00    -0.087 C 
HETATM    2  C   UNK N   1      26.085  22.640  -6.782  0.00  0.00     0.043 C 
HETATM    3  C   UNK N   1      26.003  24.958  -7.539  0.00  0.00    -0.024 C 
ENDROOT
BRANCH   3   4
HETATM    4  C   UNK N   1      25.844  26.445  -7.402  0.00  0.00     0.031 C 
BRANCH   4   5
HETATM    5  C   UNK N   1      27.179  27.177  -7.394  0.00  0.00     0.037 C 
BRANCH   5   6
HETATM    6  C   UNK N   1      27.178  28.187  -6.295  0.00  0.00    -0.085 C 
HETATM    7  C   UNK N   1      28.214  29.267  -6.283  0.00  0.00     0.043 C 
HETATM    8  C   UNK N   1      26.265  28.081  -5.321  0.00  0.00     0.001 C 
BRANCH   8   9
HETATM    9  C   UNK N   1      26.211  29.024  -4.161  0.00  0.00     0.191 C 
BRANCH   9  10
HETATM   10  O   UNK N   1      25.463  28.452  -3.133  0.00  0.00    -0.397 OA
HETATM   11  H   UNK N   1      25.436  28.860  -2.253  0.00  0.00     0.209 HD
ENDBRANCH   9  10
ENDBRANCH   8   9
ENDBRANCH   5   6
ENDBRANCH   4   5
ENDBRANCH   3   4
BRANCH   1  12
HETATM   12  C   UNK N   1      25.546  24.552  -5.131  0.00  0.00     0.037 C 
BRANCH  12  13
HETATM   13  C   UNK N   1      26.571  24.113  -4.101  0.00  0.00     0.031 C 
BRANCH  13  14
HETATM   14  C   UNK N   1      27.495  25.258  -3.814  0.00  0.00    -0.024 C 
HETATM   15  C   UNK N   1      28.722  25.351  -4.343  0.00  0.00    -0.091 C 
HETATM   16  C   UNK N   1      29.563  26.538  -4.026  0.00  0.00     0.042 C 
HETATM   17  C   UNK N   1      29.272  24.291  -5.241  0.00  0.00     0.042 C 
ENDBRANCH  13  14
ENDBRANCH  12  13
ENDBRANCH   1  12
TORSDOF 8
ENDMDL
MODEL 2
REMARK VINA RESULT:      -4.7      2.382      5.105
REMARK  8 active torsions:
REMARK  status: ('A' for Active; 'I' for Inactive)
REMARK    1  A    between atoms: C_4  and  C_5 
REMARK    2  A    between atoms: C_5  and  C_6 
REMARK    3  A    between atoms: C_6  and  C_7 
REMARK    4  A    between atoms: C_9  and  C_10 
REMARK    5  A    between atoms: C_10  and  C_11 
REMARK    6  A    between atoms: C_11  and  C_12 
REMARK    7  A    between atoms: C_14  and  C_15 
REMARK    8  A    between atoms: C_15  and  O_16 
ROOT
HETATM    1  C   UNK N   1      25.886  26.519  -4.162  0.00  0.00    -0.087 C 
HETATM    2  C   UNK N   1      25.961  27.866  -3.526  0.00  0.00     0.043 C 
HETATM    3  C   UNK N   1      26.701  25.549  -3.722  0.00  0.00    -0.024 C 
ENDROOT
BRANCH   3   4
HETATM    4  C   UNK N   1      26.726  24.155  -4.282  0.00  0.00     0.031 C 
BRANCH   4   5
HETATM    5  C   UNK N   1      27.794  23.976  -5.353  0.00  0.00     0.037 C 
BRANCH   5   6
HETATM    6  C   UNK N   1      27.293  23.025  -6.389  0.00  0.00    -0.085 C 
HETATM    7  C   UNK N   1      28.272  22.227  -7.194  0.00  0.00     0.043 C 
HETATM    8  C   UNK N   1      25.974  22.931  -6.597  0.00  0.00     0.001 C 
BRANCH   8   9
HETATM    9  C   UNK N   1      25.384  22.033  -7.637  0.00  0.00     0.191 C 
BRANCH   9  10
HETATM   10  O   UNK N   1      24.242  22.629  -8.171  0.00  0.00    -0.397 OA
HETATM   11  H   UNK N   1      23.775  22.226  -8.920  0.00  0.00     0.209 HD
ENDBRANCH   9  10
ENDBRANCH   8   9
ENDBRANCH   5   6
ENDBRANCH   4   5
ENDBRANCH   3   4
BRANCH   1  12
HETATM   12  C   UNK N   1      24.865  26.266  -5.233  0.00  0.00     0.037 C 
BRANCH  12  13
HETATM   13  C   UNK N   1      25.079  27.148  -6.452  0.00  0.00     0.031 C 
BRANCH  13  14
HETATM   14  C   UNK N   1      26.067  26.487  -7.364  0.00  0.00    -0.024 C 
HETATM   15  C   UNK N   1      27.298  26.971  -7.574  0.00  0.00    -0.091 C 
HETATM   16  C   UNK N   1      28.225  26.233  -8.477  0.00  0.00     0.042 C 
HETATM   17  C   UNK N   1      27.766  28.235  -6.929  0.00  0.00     0.042 C 
ENDBRANCH  13  14
ENDBRANCH  12  13
ENDBRANCH   1  12
TORSDOF 8
ENDMDL
MODEL 3
REMARK VINA RESULT:      -4.7      3.201      5.436
REMARK  8 active torsions:
REMARK  status: ('A' for Active; 'I' for Inactive)
REMARK    1  A    between atoms: C_4  and  C_5 
REMARK    2  A    between atoms: C_5  and  C_6 
REMARK    3  A    between atoms: C_6  and  C_7 
REMARK    4  A    between atoms: C_9  and  C_10 
REMARK    5  A    between atoms: C_10  and  C_11 
REMARK    6  A    between atoms: C_11  and  C_12 
REMARK    7  A    between atoms: C_14  and  C_15 
REMARK    8  A    between atoms: C_15  and  O_16 
ROOT
HETATM    1  C   UNK N   1      26.457  24.115  -5.580  0.00  0.00    -0.087 C 
HETATM    2  C   UNK N   1      26.003  23.412  -6.814  0.00  0.00     0.043 C 
HETATM    3  C   UNK N   1      27.712  23.917  -5.147  0.00  0.00    -0.024 C 
ENDROOT
BRANCH   3   4
HETATM    4  C   UNK N   1      28.287  24.561  -3.918  0.00  0.00     0.031 C 
BRANCH   4   5
HETATM    5  C   UNK N   1      28.740  23.541  -2.883  0.00  0.00     0.037 C 
BRANCH   5   6
HETATM    6  C   UNK N   1      30.191  23.251  -3.083  0.00  0.00    -0.085 C 
HETATM    7  C   UNK N   1      31.134  24.373  -3.387  0.00  0.00     0.043 C 
HETATM    8  C   UNK N   1      30.611  21.982  -3.017  0.00  0.00     0.001 C 
BRANCH   8   9
HETATM    9  C   UNK N   1      32.038  21.592  -3.241  0.00  0.00     0.191 C 
BRANCH   9  10
HETATM   10  O   UNK N   1      32.628  21.270  -2.020  0.00  0.00    -0.397 OA
HETATM   11  H   UNK N   1      33.157  20.463  -1.921  0.00  0.00     0.209 HD
ENDBRANCH   9  10
ENDBRANCH   8   9
ENDBRANCH   5   6
ENDBRANCH   4   5
ENDBRANCH   3   4
BRANCH   1  12
HETATM   12  C   UNK N   1      25.525  25.068  -4.890  0.00  0.00     0.037 C 
BRANCH  12  13
HETATM   13  C   UNK N   1      25.113  26.222  -5.787  0.00  0.00     0.031 C 
BRANCH  13  14
HETATM   14  C   UNK N   1      25.958  27.417  -5.462  0.00  0.00    -0.024 C 
HETATM   15  C   UNK N   1      26.935  27.855  -6.265  0.00  0.00    -0.091 C 
HETATM   16  C   UNK N   1      27.707  29.069  -5.878  0.00  0.00     0.042 C 
HETATM   17  C   UNK N   1      27.276  27.155  -7.541  0.00  0.00     0.042 C 
ENDBRANCH  13  14
ENDBRANCH  12  13
ENDBRANCH   1  12
TORSDOF 8
ENDMDL
MODEL 4
REMARK VINA RESULT:      -4.5     23.510     25.469
REMARK  8 active torsions:
REMARK  status: ('A' for Active; 'I' for Inactive)
REMARK    1  A    between atoms: C_4  and  C_5 
REMARK    2  A    between atoms: C_5  and  C_6 
REMARK    3  A    between atoms: C_6  and  C_7 
REMARK    4  A    between atoms: C_9  and  C_10 
REMARK    5  A    between atoms: C_10  and  C_11 
REMARK    6  A    between atoms: C_11  and  C_12 
REMARK    7  A    between atoms: C_14  and  C_15 
REMARK    8  A    between atoms: C_15  and  O_16 
ROOT
HETATM    1  C   UNK N   1      35.305  13.091  16.453  0.00  0.00    -0.087 C 
HETATM    2  C   UNK N   1      35.153  13.376  17.908  0.00  0.00     0.043 C 
HETATM    3  C   UNK N   1      36.398  13.538  15.816  0.00  0.00    -0.024 C 
ENDROOT
BRANCH   3   4
HETATM    4  C   UNK N   1      36.665  13.321  14.353  0.00  0.00     0.031 C 
BRANCH   4   5
HETATM    5  C   UNK N   1      36.343  14.549  13.513  0.00  0.00     0.037 C 
BRANCH   5   6
HETATM    6  C   UNK N   1      35.421  14.157  12.406  0.00  0.00    -0.085 C 
HETATM    7  C   UNK N   1      35.120  12.709  12.173  0.00  0.00     0.043 C 
HETATM    8  C   UNK N   1      34.910  15.113  11.621  0.00  0.00     0.001 C 
BRANCH   8   9
HETATM    9  C   UNK N   1      34.009  14.812  10.466  0.00  0.00     0.191 C 
BRANCH   9  10
HETATM   10  O   UNK N   1      32.687  15.066  10.830  0.00  0.00    -0.397 OA
HETATM   11  H   UNK N   1      32.357  14.816  11.708  0.00  0.00     0.209 HD
ENDBRANCH   9  10
ENDBRANCH   8   9
ENDBRANCH   5   6
ENDBRANCH   4   5
ENDBRANCH   3   4
BRANCH   1  12
HETATM   12  C   UNK N   1      34.266  12.265  15.751  0.00  0.00     0.037 C 
BRANCH  12  13
HETATM   13  C   UNK N   1      34.421  10.781  16.035  0.00  0.00     0.031 C 
BRANCH  13  14
HETATM   14  C   UNK N   1      34.676  10.062  14.745  0.00  0.00    -0.024 C 
HETATM   15  C   UNK N   1      35.881   9.589  14.403  0.00  0.00    -0.091 C 
HETATM   16  C   UNK N   1      36.038   8.861  13.113  0.00  0.00     0.042 C 
HETATM   17  C   UNK N   1      37.076   9.775  15.282  0.00  0.00     0.042 C 
ENDBRANCH  13  14
ENDBRANCH  12  13
ENDBRANCH   1  12
TORSDOF 8
ENDMDL
MODEL 5
REMARK VINA RESULT:      -4.5     23.568     25.445
REMARK  8 active torsions:
REMARK  status: ('A' for Active; 'I' for Inactive)
REMARK    1  A    between atoms: C_4  and  C_5 
REMARK    2  A    between atoms: C_5  and  C_6 
REMARK    3  A    between atoms: C_6  and  C_7 
REMARK    4  A    between atoms: C_9  and  C_10 
REMARK    5  A    between atoms: C_10  and  C_11 
REMARK    6  A    between atoms: C_11  and  C_12 
REMARK    7  A    between atoms: C_14  and  C_15 
REMARK    8  A    between atoms: C_15  and  O_16 
ROOT
HETATM    1  C   UNK N   1      35.731   9.792  13.550  0.00  0.00    -0.087 C 
HETATM    2  C   UNK N   1      35.564   8.312  13.503  0.00  0.00     0.043 C 
HETATM    3  C   UNK N   1      36.971  10.303  13.611  0.00  0.00    -0.024 C 
ENDROOT
BRANCH   3   4
HETATM    4  C   UNK N   1      37.272  11.773  13.668  0.00  0.00     0.031 C 
BRANCH   4   5
HETATM    5  C   UNK N   1      37.259  12.424  12.292  0.00  0.00     0.037 C 
BRANCH   5   6
HETATM    6  C   UNK N   1      36.421  13.659  12.341  0.00  0.00    -0.085 C 
HETATM    7  C   UNK N   1      36.324  14.435  13.617  0.00  0.00     0.043 C 
HETATM    8  C   UNK N   1      35.746  14.026  11.245  0.00  0.00     0.001 C 
BRANCH   8   9
HETATM    9  C   UNK N   1      34.853  15.225  11.212  0.00  0.00     0.191 C 
BRANCH   9  10
HETATM   10  O   UNK N   1      33.526  14.821  11.345  0.00  0.00    -0.397 OA
HETATM   11  H   UNK N   1      32.856  15.095  10.700  0.00  0.00     0.209 HD
ENDBRANCH   9  10
ENDBRANCH   8   9
ENDBRANCH   5   6
ENDBRANCH   4   5
ENDBRANCH   3   4
BRANCH   1  12
HETATM   12  C   UNK N   1      34.519  10.674  13.468  0.00  0.00     0.037 C 
BRANCH  12  13
HETATM   13  C   UNK N   1      33.789  10.774  14.796  0.00  0.00     0.031 C 
BRANCH  13  14
HETATM   14  C   UNK N   1      34.173  12.059  15.467  0.00  0.00    -0.024 C 
HETATM   15  C   UNK N   1      34.983  12.109  16.532  0.00  0.00    -0.091 C 
HETATM   16  C   UNK N   1      35.333  13.432  17.118  0.00  0.00     0.042 C 
HETATM   17  C   UNK N   1      35.542  10.869  17.152  0.00  0.00     0.042 C 
ENDBRANCH  13  14
ENDBRANCH  12  13
ENDBRANCH   1  12
TORSDOF 8
ENDMDL
MODEL 6
REMARK VINA RESULT:      -4.5     25.661     27.623
REMARK  8 active torsions:
REMARK  status: ('A' for Active; 'I' for Inactive)
REMARK    1  A    between atoms: C_4  and  C_5 
REMARK    2  A    between atoms: C_5  and  C_6 
REMARK    3  A    between atoms: C_6  and  C_7 
REMARK    4  A    between atoms: C_9  and  C_10 
REMARK    5  A    between atoms: C_10  and  C_11 
REMARK    6  A    between atoms: C_11  and  C_12 
REMARK    7  A    between atoms: C_14  and  C_15 
REMARK    8  A    between atoms: C_15  and  O_16 
ROOT
HETATM    1  C   UNK N   1      35.276  12.386  17.975  0.00  0.00    -0.087 C 
HETATM    2  C   UNK N   1      35.198  12.724  19.425  0.00  0.00     0.043 C 
HETATM    3  C   UNK N   1      35.305  13.384  17.078  0.00  0.00    -0.024 C 
ENDROOT
BRANCH   3   4
HETATM    4  C   UNK N   1      35.378  13.175  15.592  0.00  0.00     0.031 C 
BRANCH   4   5
HETATM    5  C   UNK N   1      36.631  13.785  14.979  0.00  0.00     0.037 C 
BRANCH   5   6
HETATM    6  C   UNK N   1      36.481  13.822  13.494  0.00  0.00    -0.085 C 
HETATM    7  C   UNK N   1      36.774  12.594  12.691  0.00  0.00     0.043 C 
HETATM    8  C   UNK N   1      36.117  14.970  12.909  0.00  0.00     0.001 C 
BRANCH   8   9
HETATM    9  C   UNK N   1      35.977  15.112  11.427  0.00  0.00     0.191 C 
BRANCH   9  10
HETATM   10  O   UNK N   1      36.911  16.035  10.958  0.00  0.00    -0.397 OA
HETATM   11  H   UNK N   1      36.975  16.919  11.351  0.00  0.00     0.209 HD
ENDBRANCH   9  10
ENDBRANCH   8   9
ENDBRANCH   5   6
ENDBRANCH   4   5
ENDBRANCH   3   4
BRANCH   1  12
HETATM   12  C   UNK N   1      35.378  10.948  17.558  0.00  0.00     0.037 C 
BRANCH  12  13
HETATM   13  C   UNK N   1      35.411  10.004  18.748  0.00  0.00     0.031 C 
BRANCH  13  14
HETATM   14  C   UNK N   1      34.149   9.195  18.764  0.00  0.00    -0.024 C 
HETATM   15  C   UNK N   1      33.366   9.091  19.845  0.00  0.00    -0.091 C 
HETATM   16  C   UNK N   1      32.115   8.288  19.763  0.00  0.00     0.042 C 
HETATM   17  C   UNK N   1      33.718   9.757  21.136  0.00  0.00     0.042 C 
ENDBRANCH  13  14
ENDBRANCH  12  13
ENDBRANCH   1  12
TORSDOF 8
ENDMDL
MODEL 7
REMARK VINA RESULT:      -4.4     13.676     15.853
REMARK  8 active torsions:
REMARK  status: ('A' for Active; 'I' for Inactive)
REMARK    1  A    between atoms: C_4  and  C_5 
REMARK    2  A    between atoms: C_5  and  C_6 
REMARK    3  A    between atoms: C_6  and  C_7 
REMARK    4  A    between atoms: C_9  and  C_10 
REMARK    5  A    between atoms: C_10  and  C_11 
REMARK    6  A    between atoms: C_11  and  C_12 
REMARK    7  A    between atoms: C_14  and  C_15 
REMARK    8  A    between atoms: C_15  and  O_16 
ROOT
HETATM    1  C   UNK N   1      28.214  18.669   6.335  0.00  0.00    -0.087 C 
HETATM    2  C   UNK N   1      27.406  19.719   5.652  0.00  0.00     0.043 C 
HETATM    3  C   UNK N   1      28.483  18.808   7.642  0.00  0.00    -0.024 C 
ENDROOT
BRANCH   3   4
HETATM    4  C   UNK N   1      29.289  17.824   8.442  0.00  0.00     0.031 C 
BRANCH   4   5
HETATM    5  C   UNK N   1      30.580  18.427   8.978  0.00  0.00     0.037 C 
BRANCH   5   6
HETATM    6  C   UNK N   1      31.735  17.599   8.520  0.00  0.00    -0.085 C 
HETATM    7  C   UNK N   1      31.657  16.107   8.613  0.00  0.00     0.043 C 
HETATM    8  C   UNK N   1      32.832  18.216   8.065  0.00  0.00     0.001 C 
BRANCH   8   9
HETATM    9  C   UNK N   1      34.050  17.471   7.620  0.00  0.00     0.191 C 
BRANCH   9  10
HETATM   10  O   UNK N   1      34.434  17.921   6.357  0.00  0.00    -0.397 OA
HETATM   11  H   UNK N   1      34.310  17.363   5.573  0.00  0.00     0.209 HD
ENDBRANCH   9  10
ENDBRANCH   8   9
ENDBRANCH   5   6
ENDBRANCH   4   5
ENDBRANCH   3   4
BRANCH   1  12
HETATM   12  C   UNK N   1      28.655  17.460   5.563  0.00  0.00     0.037 C 
BRANCH  12  13
HETATM   13  C   UNK N   1      29.966  17.690   4.831  0.00  0.00     0.031 C 
BRANCH  13  14
HETATM   14  C   UNK N   1      30.899  16.556   5.133  0.00  0.00    -0.024 C 
HETATM   15  C   UNK N   1      32.014  16.325   4.429  0.00  0.00    -0.091 C 
HETATM   16  C   UNK N   1      32.898  15.191   4.817  0.00  0.00     0.042 C 
HETATM   17  C   UNK N   1      32.394  17.175   3.259  0.00  0.00     0.042 C 
ENDBRANCH  13  14
ENDBRANCH  12  13
ENDBRANCH   1  12
TORSDOF 8
ENDMDL
MODEL 8
REMARK VINA RESULT:      -4.4      2.430      5.213
REMARK  8 active torsions:
REMARK  status: ('A' for Active; 'I' for Inactive)
REMARK    1  A    between atoms: C_4  and  C_5 
REMARK    2  A    between atoms: C_5  and  C_6 
REMARK    3  A    between atoms: C_6  and  C_7 
REMARK    4  A    between atoms: C_9  and  C_10 
REMARK    5  A    between atoms: C_10  and  C_11 
REMARK    6  A    between atoms: C_11  and  C_12 
REMARK    7  A    between atoms: C_14  and  C_15 
REMARK    8  A    between atoms: C_15  and  O_16 
ROOT
HETATM    1  C   UNK N   1      28.472  28.242  -5.082  0.00  0.00    -0.087 C 
HETATM    2  C   UNK N   1      27.996  29.422  -5.858  0.00  0.00     0.043 C 
HETATM    3  C   UNK N   1      29.365  27.413  -5.645  0.00  0.00    -0.024 C 
ENDROOT
BRANCH   3   4
HETATM    4  C   UNK N   1      29.917  26.190  -4.970  0.00  0.00     0.031 C 
BRANCH   4   5
HETATM    5  C   UNK N   1      29.411  24.899  -5.598  0.00  0.00     0.037 C 
BRANCH   5   6
HETATM    6  C   UNK N   1      29.502  23.798  -4.595  0.00  0.00    -0.085 C 
HETATM    7  C   UNK N   1      29.824  22.408  -5.050  0.00  0.00     0.043 C 
HETATM    8  C   UNK N   1      29.260  24.075  -3.308  0.00  0.00     0.001 C 
BRANCH   8   9
HETATM    9  C   UNK N   1      29.292  23.030  -2.238  0.00  0.00     0.191 C 
BRANCH   9  10
HETATM   10  O   UNK N   1      30.496  23.116  -1.540  0.00  0.00    -0.397 OA
HETATM   11  H   UNK N   1      31.092  22.353  -1.482  0.00  0.00     0.209 HD
ENDBRANCH   9  10
ENDBRANCH   8   9
ENDBRANCH   5   6
ENDBRANCH   4   5
ENDBRANCH   3   4
BRANCH   1  12
HETATM   12  C   UNK N   1      27.989  28.042  -3.674  0.00  0.00     0.037 C 
BRANCH  12  13
HETATM   13  C   UNK N   1      26.509  27.704  -3.616  0.00  0.00     0.031 C 
BRANCH  13  14
HETATM   14  C   UNK N   1      26.336  26.233  -3.845  0.00  0.00    -0.024 C 
HETATM   15  C   UNK N   1      25.792  25.730  -4.960  0.00  0.00    -0.091 C 
HETATM   16  C   UNK N   1      25.684  24.253  -5.116  0.00  0.00     0.042 C 
HETATM   17  C   UNK N   1      25.286  26.614  -6.054  0.00  0.00     0.042 C 
ENDBRANCH  13  14
ENDBRANCH  12  13
ENDBRANCH   1  12
TORSDOF 8
ENDMDL
MODEL 9
REMARK VINA RESULT:      -4.3     12.699     15.112
REMARK  8 active torsions:
REMARK  status: ('A' for Active; 'I' for Inactive)
REMARK    1  A    between atoms: C_4  and  C_5 
REMARK    2  A    between atoms: C_5  and  C_6 
REMARK    3  A    between atoms: C_6  and  C_7 
REMARK    4  A    between atoms: C_9  and  C_10 
REMARK    5  A    between atoms: C_10  and  C_11 
REMARK    6  A    between atoms: C_11  and  C_12 
REMARK    7  A    between atoms: C_14  and  C_15 
REMARK    8  A    between atoms: C_15  and  O_16 
ROOT
HETATM    1  C   UNK N   1      29.986  17.942   8.634  0.00  0.00    -0.087 C 
HETATM    2  C   UNK N   1      29.760  18.726   9.882  0.00  0.00     0.043 C 
HETATM    3  C   UNK N   1      31.190  17.384   8.429  0.00  0.00    -0.024 C 
ENDROOT
BRANCH   3   4
HETATM    4  C   UNK N   1      31.544  16.577   7.212  0.00  0.00     0.031 C 
BRANCH   4   5
HETATM    5  C   UNK N   1      32.390  17.361   6.219  0.00  0.00     0.037 C 
BRANCH   5   6
HETATM    6  C   UNK N   1      31.916  17.069   4.834  0.00  0.00    -0.085 C 
HETATM    7  C   UNK N   1      32.863  17.209   3.683  0.00  0.00     0.043 C 
HETATM    8  C   UNK N   1      30.637  16.718   4.649  0.00  0.00     0.001 C 
BRANCH   8   9
HETATM    9  C   UNK N   1      30.064  16.442   3.296  0.00  0.00     0.191 C 
BRANCH   9  10
HETATM   10  O   UNK N   1      28.943  17.245   3.094  0.00  0.00    -0.397 OA
HETATM   11  H   UNK N   1      28.104  16.861   2.795  0.00  0.00     0.209 HD
ENDBRANCH   9  10
ENDBRANCH   8   9
ENDBRANCH   5   6
ENDBRANCH   4   5
ENDBRANCH   3   4
BRANCH   1  12
HETATM   12  C   UNK N   1      28.852  17.748   7.670  0.00  0.00     0.037 C 
BRANCH  12  13
HETATM   13  C   UNK N   1      28.124  19.046   7.369  0.00  0.00     0.031 C 
BRANCH  13  14
HETATM   14  C   UNK N   1      27.810  19.101   5.904  0.00  0.00    -0.024 C 
HETATM   15  C   UNK N   1      27.362  20.207   5.298  0.00  0.00    -0.091 C 
HETATM   16  C   UNK N   1      27.103  20.180   3.832  0.00  0.00     0.042 C 
HETATM   17  C   UNK N   1      27.111  21.471   6.056  0.00  0.00     0.042 C 
ENDBRANCH  13  14
ENDBRANCH  12  13
ENDBRANCH   1  12
TORSDOF 8
ENDMDL
