MODEL 1
REMARK VINA RESULT:      -6.7      0.000      0.000
REMARK  6 active torsions:
REMARK  status: ('A' for Active; 'I' for Inactive)
REMARK    1  A    between atoms: C_1  and  O_2 
REMARK    2  A    between atoms: C_7  and  O_8 
REMARK    3  A    between atoms: C_9  and  O_10 
REMARK    4  A    between atoms: O_10  and  C_27 
REMARK    5  A    between atoms: C_13  and  O_14 
REMARK    6  A    between atoms: C_19  and  C_20 
ROOT
HETATM    1  C   UNK N   1      25.793  25.252  -6.997  0.00  0.00     0.130 C 
HETATM    2  C   UNK N   1      25.581  26.748  -6.989  0.00  0.00     0.033 C 
HETATM    3  C   UNK N   1      25.178  27.122  -5.567  0.00  0.00     0.012 C 
HETATM    4  C   UNK N   1      26.398  27.033  -4.675  0.00  0.00    -0.041 C 
HETATM    5  C   UNK N   1      27.058  25.587  -4.723  0.00  0.00     0.039 C 
HETATM    6  C   UNK N   1      28.486  25.601  -4.035  0.00  0.00     0.156 C 
HETATM    7  C   UNK N   1      29.227  24.302  -4.335  0.00  0.00     0.198 C 
HETATM    8  C   UNK N   1      29.536  24.093  -5.870  0.00  0.00     0.126 C 
HETATM    9  O   UNK N   1      29.580  22.660  -5.985  0.00  0.00    -0.359 OA
HETATM   10  C   UNK N   1      28.431  24.805  -6.798  0.00  0.00     0.161 C 
HETATM   11  C   UNK N   1      27.009  24.773  -6.117  0.00  0.00     0.030 C 
HETATM   12  C   UNK N   1      28.498  24.095  -8.133  0.00  0.00     0.168 C 
HETATM   13  O   UNK N   1      28.704  24.702  -9.173  0.00  0.00    -0.294 OA
HETATM   14  C   UNK N   1      28.425  22.616  -8.147  0.00  0.00     0.123 C 
HETATM   15  C   UNK N   1      29.570  22.084  -7.288  0.00  0.00     0.082 C 
HETATM   16  C   UNK N   1      29.321  20.597  -7.099  0.00  0.00     0.051 C 
HETATM   17  C   UNK N   1      30.909  24.661  -6.246  0.00  0.00     0.052 C 
HETATM   18  C   UNK N   1      27.285  28.196  -5.106  0.00  0.00     0.015 C 
HETATM   19  C   UNK N   1      25.951  27.332  -3.250  0.00  0.00     0.015 C 
HETATM   20  C   UNK N   1      26.685  23.293  -5.830  0.00  0.00     0.022 C 
ENDROOT
BRANCH   7  21
HETATM   21  O   UNK N   1      30.310  24.043  -3.494  0.00  0.00    -0.310 OA
BRANCH  21  22
HETATM   22  C   UNK N   1      30.513  23.002  -2.633  0.00  0.00     0.255 C 
HETATM   23  O   UNK N   1      30.330  23.112  -1.437  0.00  0.00    -0.266 OA
HETATM   24  C   UNK N   1      30.955  21.690  -3.183  0.00  0.00     0.126 C 
ENDBRANCH  21  22
ENDBRANCH   7  21
BRANCH   6  25
HETATM   25  O   UNK N   1      29.279  26.657  -4.484  0.00  0.00    -0.392 OA
HETATM   26  H   UNK N   1      29.675  27.419  -4.936  0.00  0.00     0.210 HD
ENDBRANCH   6  25
BRANCH  10  27
HETATM   27  O   UNK N   1      28.747  26.154  -7.013  0.00  0.00    -0.378 OA
HETATM   28  H   UNK N   1      29.216  26.978  -6.813  0.00  0.00     0.211 HD
ENDBRANCH  10  27
BRANCH  15  29
HETATM   29  C   UNK N   1      30.910  22.246  -7.970  0.00  0.00     0.001 C 
HETATM   30  C   UNK N   1      31.912  21.386  -7.775  0.00  0.00     0.010 C 
ENDBRANCH  15  29
BRANCH   1  31
HETATM   31  O   UNK N   1      25.873  24.803  -8.316  0.00  0.00    -0.395 OA
HETATM   32  H   UNK N   1      25.947  23.862  -8.540  0.00  0.00     0.210 HD
ENDBRANCH   1  31
TORSDOF 6
ENDMDL
MODEL 2
REMARK VINA RESULT:      -6.6      1.568      6.199
REMARK  6 active torsions:
REMARK  status: ('A' for Active; 'I' for Inactive)
REMARK    1  A    between atoms: C_1  and  O_2 
REMARK    2  A    between atoms: C_7  and  O_8 
REMARK    3  A    between atoms: C_9  and  O_10 
REMARK    4  A    between atoms: O_10  and  C_27 
REMARK    5  A    between atoms: C_13  and  O_14 
REMARK    6  A    between atoms: C_19  and  C_20 
ROOT
HETATM    1  C   UNK N   1      29.907  23.813  -3.805  0.00  0.00     0.130 C 
HETATM    2  C   UNK N   1      31.112  23.172  -4.454  0.00  0.00     0.033 C 
HETATM    3  C   UNK N   1      30.643  21.833  -5.013  0.00  0.00     0.012 C 
HETATM    4  C   UNK N   1      29.796  22.087  -6.242  0.00  0.00    -0.041 C 
HETATM    5  C   UNK N   1      28.563  23.038  -5.920  0.00  0.00     0.039 C 
HETATM    6  C   UNK N   1      27.874  23.533  -7.259  0.00  0.00     0.156 C 
HETATM    7  C   UNK N   1      26.889  24.657  -6.959  0.00  0.00     0.198 C 
HETATM    8  C   UNK N   1      27.572  25.954  -6.370  0.00  0.00     0.126 C 
HETATM    9  O   UNK N   1      26.514  26.532  -5.585  0.00  0.00    -0.359 OA
HETATM   10  C   UNK N   1      28.902  25.596  -5.539  0.00  0.00     0.161 C 
HETATM   11  C   UNK N   1      28.764  24.201  -4.817  0.00  0.00     0.030 C 
HETATM   12  C   UNK N   1      29.126  26.762  -4.601  0.00  0.00     0.168 C 
HETATM   13  O   UNK N   1      30.173  27.391  -4.598  0.00  0.00    -0.294 OA
HETATM   14  C   UNK N   1      27.997  27.209  -3.754  0.00  0.00     0.123 C 
HETATM   15  C   UNK N   1      26.839  27.581  -4.678  0.00  0.00     0.082 C 
HETATM   16  C   UNK N   1      25.619  27.779  -3.793  0.00  0.00     0.051 C 
HETATM   17  C   UNK N   1      27.956  26.937  -7.481  0.00  0.00     0.052 C 
HETATM   18  C   UNK N   1      30.776  22.585  -7.298  0.00  0.00     0.015 C 
HETATM   19  C   UNK N   1      29.276  20.741  -6.730  0.00  0.00     0.015 C 
HETATM   20  C   UNK N   1      27.507  24.280  -3.927  0.00  0.00     0.022 C 
ENDROOT
BRANCH   7  21
HETATM   21  O   UNK N   1      25.967  24.909  -7.977  0.00  0.00    -0.310 OA
BRANCH  21  22
HETATM   22  C   UNK N   1      25.412  24.048  -8.880  0.00  0.00     0.255 C 
HETATM   23  O   UNK N   1      24.534  23.267  -8.569  0.00  0.00    -0.266 OA
HETATM   24  C   UNK N   1      25.886  24.083 -10.292  0.00  0.00     0.126 C 
ENDBRANCH  21  22
ENDBRANCH   7  21
BRANCH   6  25
HETATM   25  O   UNK N   1      28.801  24.015  -8.184  0.00  0.00    -0.392 OA
HETATM   26  H   UNK N   1      29.354  24.536  -8.787  0.00  0.00     0.210 HD
ENDBRANCH   6  25
BRANCH  10  27
HETATM   27  O   UNK N   1      30.016  25.505  -6.385  0.00  0.00    -0.378 OA
HETATM   28  H   UNK N   1      30.478  25.209  -7.185  0.00  0.00     0.211 HD
ENDBRANCH  10  27
BRANCH  15  29
HETATM   29  C   UNK N   1      27.095  28.879  -5.410  0.00  0.00     0.001 C 
HETATM   30  C   UNK N   1      27.247  30.038  -4.765  0.00  0.00     0.010 C 
ENDBRANCH  15  29
BRANCH   1  31
HETATM   31  O   UNK N   1      30.323  24.891  -3.022  0.00  0.00    -0.395 OA
HETATM   32  H   UNK N   1      30.097  25.808  -3.242  0.00  0.00     0.210 HD
ENDBRANCH   1  31
TORSDOF 6
ENDMDL
MODEL 3
REMARK VINA RESULT:      -6.6      1.956      3.071
REMARK  6 active torsions:
REMARK  status: ('A' for Active; 'I' for Inactive)
REMARK    1  A    between atoms: C_1  and  O_2 
REMARK    2  A    between atoms: C_7  and  O_8 
REMARK    3  A    between atoms: C_9  and  O_10 
REMARK    4  A    between atoms: O_10  and  C_27 
REMARK    5  A    between atoms: C_13  and  O_14 
REMARK    6  A    between atoms: C_19  and  C_20 
ROOT
HETATM    1  C   UNK N   1      26.268  24.456  -5.297  0.00  0.00     0.130 C 
HETATM    2  C   UNK N   1      25.653  25.437  -6.268  0.00  0.00     0.033 C 
HETATM    3  C   UNK N   1      25.197  26.636  -5.445  0.00  0.00     0.012 C 
HETATM    4  C   UNK N   1      26.416  27.428  -5.021  0.00  0.00    -0.041 C 
HETATM    5  C   UNK N   1      27.446  26.532  -4.207  0.00  0.00     0.039 C 
HETATM    6  C   UNK N   1      28.832  27.283  -4.040  0.00  0.00     0.156 C 
HETATM    7  C   UNK N   1      29.893  26.320  -3.520  0.00  0.00     0.198 C 
HETATM    8  C   UNK N   1      30.211  25.135  -4.515  0.00  0.00     0.126 C 
HETATM    9  O   UNK N   1      30.644  24.091  -3.625  0.00  0.00    -0.359 OA
HETATM   10  C   UNK N   1      28.931  24.759  -5.414  0.00  0.00     0.161 C 
HETATM   11  C   UNK N   1      27.589  24.975  -4.614  0.00  0.00     0.030 C 
HETATM   12  C   UNK N   1      29.158  23.336  -5.875  0.00  0.00     0.168 C 
HETATM   13  O   UNK N   1      29.164  23.039  -7.060  0.00  0.00    -0.294 OA
HETATM   14  C   UNK N   1      29.493  22.313  -4.859  0.00  0.00     0.123 C 
HETATM   15  C   UNK N   1      30.761  22.768  -4.138  0.00  0.00     0.082 C 
HETATM   16  C   UNK N   1      30.934  21.853  -2.938  0.00  0.00     0.051 C 
HETATM   17  C   UNK N   1      31.366  25.491  -5.457  0.00  0.00     0.052 C 
HETATM   18  C   UNK N   1      26.939  28.062  -6.305  0.00  0.00     0.015 C 
HETATM   19  C   UNK N   1      25.938  28.572  -4.135  0.00  0.00     0.015 C 
HETATM   20  C   UNK N   1      27.691  24.122  -3.333  0.00  0.00     0.022 C 
ENDROOT
BRANCH   7  21
HETATM   21  O   UNK N   1      31.026  26.937  -2.986  0.00  0.00    -0.310 OA
BRANCH  21  22
HETATM   22  C   UNK N   1      31.400  28.250  -3.022  0.00  0.00     0.255 C 
HETATM   23  O   UNK N   1      31.886  28.753  -4.016  0.00  0.00    -0.266 OA
HETATM   24  C   UNK N   1      31.188  29.092  -1.812  0.00  0.00     0.126 C 
ENDBRANCH  21  22
ENDBRANCH   7  21
BRANCH   6  25
HETATM   25  O   UNK N   1      29.293  27.816  -5.244  0.00  0.00    -0.392 OA
HETATM   26  H   UNK N   1      29.416  28.153  -6.145  0.00  0.00     0.210 HD
ENDBRANCH   6  25
BRANCH  10  27
HETATM   27  O   UNK N   1      28.859  25.573  -6.553  0.00  0.00    -0.378 OA
HETATM   28  H   UNK N   1      29.084  26.359  -7.074  0.00  0.00     0.211 HD
ENDBRANCH  10  27
BRANCH  15  29
HETATM   29  C   UNK N   1      31.988  22.625  -5.011  0.00  0.00     0.001 C 
HETATM   30  C   UNK N   1      33.107  22.046  -4.569  0.00  0.00     0.010 C 
ENDBRANCH  15  29
BRANCH   1  31
HETATM   31  O   UNK N   1      26.436  23.224  -5.929  0.00  0.00    -0.395 OA
HETATM   32  H   UNK N   1      26.526  22.395  -5.433  0.00  0.00     0.210 HD
ENDBRANCH   1  31
TORSDOF 6
ENDMDL
MODEL 4
REMARK VINA RESULT:      -6.6     18.790     23.337
REMARK  6 active torsions:
REMARK  status: ('A' for Active; 'I' for Inactive)
REMARK    1  A    between atoms: C_1  and  O_2 
REMARK    2  A    between atoms: C_7  and  O_8 
REMARK    3  A    between atoms: C_9  and  O_10 
REMARK    4  A    between atoms: O_10  and  C_27 
REMARK    5  A    between atoms: C_13  and  O_14 
REMARK    6  A    between atoms: C_19  and  C_20 
ROOT
HETATM    1  C   UNK N   1      37.608   9.955  10.776  0.00  0.00     0.130 C 
HETATM    2  C   UNK N   1      38.885  10.325  10.057  0.00  0.00     0.033 C 
HETATM    3  C   UNK N   1      38.479  10.796   8.665  0.00  0.00     0.012 C 
HETATM    4  C   UNK N   1      37.845  12.166   8.779  0.00  0.00    -0.041 C 
HETATM    5  C   UNK N   1      36.600  12.158   9.769  0.00  0.00     0.039 C 
HETATM    6  C   UNK N   1      36.146  13.638  10.110  0.00  0.00     0.156 C 
HETATM    7  C   UNK N   1      35.154  13.631  11.267  0.00  0.00     0.198 C 
HETATM    8  C   UNK N   1      35.766  13.090  12.619  0.00  0.00     0.126 C 
HETATM    9  O   UNK N   1      34.611  12.557  13.291  0.00  0.00    -0.359 OA
HETATM   10  C   UNK N   1      36.937  12.020  12.352  0.00  0.00     0.161 C 
HETATM   11  C   UNK N   1      36.652  11.176  11.051  0.00  0.00     0.030 C 
HETATM   12  C   UNK N   1      37.037  11.197  13.617  0.00  0.00     0.168 C 
HETATM   13  O   UNK N   1      38.085  11.097  14.236  0.00  0.00    -0.294 OA
HETATM   14  C   UNK N   1      35.798  10.600  14.167  0.00  0.00     0.123 C 
HETATM   15  C   UNK N   1      34.812  11.735  14.436  0.00  0.00     0.082 C 
HETATM   16  C   UNK N   1      33.472  11.087  14.743  0.00  0.00     0.051 C 
HETATM   17  C   UNK N   1      36.346  14.230  13.464  0.00  0.00     0.052 C 
HETATM   18  C   UNK N   1      38.993  13.101   9.145  0.00  0.00     0.015 C 
HETATM   19  C   UNK N   1      37.377  12.577   7.389  0.00  0.00     0.015 C 
HETATM   20  C   UNK N   1      35.271  10.516  11.240  0.00  0.00     0.022 C 
ENDROOT
BRANCH   7  21
HETATM   21  O   UNK N   1      34.413  14.806  11.405  0.00  0.00    -0.310 OA
BRANCH  21  22
HETATM   22  C   UNK N   1      34.481  15.967  10.688  0.00  0.00     0.255 C 
HETATM   23  O   UNK N   1      35.208  16.884  11.017  0.00  0.00    -0.266 OA
HETATM   24  C   UNK N   1      33.654  16.101   9.456  0.00  0.00     0.126 C 
ENDBRANCH  21  22
ENDBRANCH   7  21
BRANCH   6  25
HETATM   25  O   UNK N   1      37.221  14.450  10.475  0.00  0.00    -0.392 OA
HETATM   26  H   UNK N   1      38.045  14.836  10.811  0.00  0.00     0.210 HD
ENDBRANCH   6  25
BRANCH  10  27
HETATM   27  O   UNK N   1      38.169  12.660  12.157  0.00  0.00    -0.378 OA
HETATM   28  H   UNK N   1      38.746  13.332  11.762  0.00  0.00     0.211 HD
ENDBRANCH  10  27
BRANCH  15  29
HETATM   29  C   UNK N   1      35.215  12.559  15.639  0.00  0.00     0.001 C 
HETATM   30  C   UNK N   1      35.353  12.020  16.853  0.00  0.00     0.010 C 
ENDBRANCH  15  29
BRANCH   1  31
HETATM   31  O   UNK N   1      37.920   9.244  11.935  0.00  0.00    -0.395 OA
HETATM   32  H   UNK N   1      37.237   8.863  12.510  0.00  0.00     0.210 HD
ENDBRANCH   1  31
TORSDOF 6
ENDMDL
MODEL 5
REMARK VINA RESULT:      -6.5     13.732     18.220
REMARK  6 active torsions:
REMARK  status: ('A' for Active; 'I' for Inactive)
REMARK    1  A    between atoms: C_1  and  O_2 
REMARK    2  A    between atoms: C_7  and  O_8 
REMARK    3  A    between atoms: C_9  and  O_10 
REMARK    4  A    between atoms: O_10  and  C_27 
REMARK    5  A    between atoms: C_13  and  O_14 
REMARK    6  A    between atoms: C_19  and  C_20 
ROOT
HETATM    1  C   UNK N   1      34.724  15.868  10.256  0.00  0.00     0.130 C 
HETATM    2  C   UNK N   1      36.177  15.492  10.434  0.00  0.00     0.033 C 
HETATM    3  C   UNK N   1      36.196  14.045  10.912  0.00  0.00     0.012 C 
HETATM    4  C   UNK N   1      35.839  13.142   9.750  0.00  0.00    -0.041 C 
HETATM    5  C   UNK N   1      34.428  13.520   9.123  0.00  0.00     0.039 C 
HETATM    6  C   UNK N   1      34.214  12.778   7.739  0.00  0.00     0.156 C 
HETATM    7  C   UNK N   1      33.006  13.358   7.012  0.00  0.00     0.198 C 
HETATM    8  C   UNK N   1      33.178  14.878   6.616  0.00  0.00     0.126 C 
HETATM    9  O   UNK N   1      31.819  15.349   6.600  0.00  0.00    -0.359 OA
HETATM   10  C   UNK N   1      34.141  15.651   7.647  0.00  0.00     0.161 C 
HETATM   11  C   UNK N   1      33.993  15.076   9.107  0.00  0.00     0.030 C 
HETATM   12  C   UNK N   1      33.788  17.117   7.517  0.00  0.00     0.168 C 
HETATM   13  O   UNK N   1      34.629  17.957   7.235  0.00  0.00    -0.294 OA
HETATM   14  C   UNK N   1      32.364  17.509   7.624  0.00  0.00     0.123 C 
HETATM   15  C   UNK N   1      31.589  16.754   6.545  0.00  0.00     0.082 C 
HETATM   16  C   UNK N   1      30.113  16.962   6.840  0.00  0.00     0.051 C 
HETATM   17  C   UNK N   1      33.769  15.025   5.210  0.00  0.00     0.052 C 
HETATM   18  C   UNK N   1      37.039  13.218   8.812  0.00  0.00     0.015 C 
HETATM   19  C   UNK N   1      35.787  11.713  10.275  0.00  0.00     0.015 C 
HETATM   20  C   UNK N   1      32.502  15.190   9.483  0.00  0.00     0.022 C 
ENDROOT
BRANCH   7  21
HETATM   21  O   UNK N   1      32.503  12.555   5.987  0.00  0.00    -0.310 OA
BRANCH  21  22
HETATM   22  C   UNK N   1      32.645  11.211   5.786  0.00  0.00     0.255 C 
HETATM   23  O   UNK N   1      32.056  10.393   6.466  0.00  0.00    -0.266 OA
HETATM   24  C   UNK N   1      33.535  10.738   4.690  0.00  0.00     0.126 C 
ENDBRANCH  21  22
ENDBRANCH   7  21
BRANCH   6  25
HETATM   25  O   UNK N   1      35.319  12.903   6.895  0.00  0.00    -0.392 OA
HETATM   26  H   UNK N   1      36.166  13.104   6.467  0.00  0.00     0.210 HD
ENDBRANCH   6  25
BRANCH  10  27
HETATM   27  O   UNK N   1      35.488  15.501   7.286  0.00  0.00    -0.378 OA
HETATM   28  H   UNK N   1      36.377  15.834   7.089  0.00  0.00     0.211 HD
ENDBRANCH  10  27
BRANCH  15  29
HETATM   29  C   UNK N   1      31.867  17.302   5.163  0.00  0.00     0.001 C 
HETATM   30  C   UNK N   1      30.953  17.265   4.190  0.00  0.00     0.010 C 
ENDBRANCH  15  29
BRANCH   1  31
HETATM   31  O   UNK N   1      34.619  17.251  10.108  0.00  0.00    -0.395 OA
HETATM   32  H   UNK N   1      33.841  17.673   9.710  0.00  0.00     0.210 HD
ENDBRANCH   1  31
TORSDOF 6
ENDMDL
MODEL 6
REMARK VINA RESULT:      -6.4     14.523     18.894
REMARK  6 active torsions:
REMARK  status: ('A' for Active; 'I' for Inactive)
REMARK    1  A    between atoms: C_1  and  O_2 
REMARK    2  A    between atoms: C_7  and  O_8 
REMARK    3  A    between atoms: C_9  and  O_10 
REMARK    4  A    between atoms: O_10  and  C_27 
REMARK    5  A    between atoms: C_13  and  O_14 
REMARK    6  A    between atoms: C_19  and  C_20 
ROOT
HETATM    1  C   UNK N   1      34.343  16.579   9.972  0.00  0.00     0.130 C 
HETATM    2  C   UNK N   1      35.724  16.542  10.583  0.00  0.00     0.033 C 
HETATM    3  C   UNK N   1      35.637  15.627  11.799  0.00  0.00     0.012 C 
HETATM    4  C   UNK N   1      35.529  14.193  11.325  0.00  0.00    -0.041 C 
HETATM    5  C   UNK N   1      34.283  13.985  10.359  0.00  0.00     0.039 C 
HETATM    6  C   UNK N   1      34.362  12.575   9.640  0.00  0.00     0.156 C 
HETATM    7  C   UNK N   1      33.336  12.500   8.514  0.00  0.00     0.198 C 
HETATM    8  C   UNK N   1      33.594  13.543   7.356  0.00  0.00     0.126 C 
HETATM    9  O   UNK N   1      32.271  13.761   6.835  0.00  0.00    -0.359 OA
HETATM   10  C   UNK N   1      34.322  14.869   7.905  0.00  0.00     0.161 C 
HETATM   11  C   UNK N   1      33.867  15.200   9.378  0.00  0.00     0.030 C 
HETATM   12  C   UNK N   1      34.010  15.954   6.899  0.00  0.00     0.168 C 
HETATM   13  O   UNK N   1      34.895  16.583   6.339  0.00  0.00    -0.294 OA
HETATM   14  C   UNK N   1      32.597  16.169   6.512  0.00  0.00     0.123 C 
HETATM   15  C   UNK N   1      32.064  14.854   5.946  0.00  0.00     0.082 C 
HETATM   16  C   UNK N   1      30.560  15.017   5.804  0.00  0.00     0.051 C 
HETATM   17  C   UNK N   1      34.468  12.944   6.249  0.00  0.00     0.052 C 
HETATM   18  C   UNK N   1      36.899  13.869  10.740  0.00  0.00     0.015 C 
HETATM   19  C   UNK N   1      35.361  13.311  12.555  0.00  0.00     0.015 C 
HETATM   20  C   UNK N   1      32.331  15.329   9.353  0.00  0.00     0.022 C 
ENDROOT
BRANCH   7  21
HETATM   21  O   UNK N   1      33.056  11.208   8.067  0.00  0.00    -0.310 OA
BRANCH  21  22
HETATM   22  C   UNK N   1      32.770  10.082   8.786  0.00  0.00     0.255 C 
HETATM   23  O   UNK N   1      31.686   9.913   9.311  0.00  0.00    -0.266 OA
HETATM   24  C   UNK N   1      33.811   9.025   8.912  0.00  0.00     0.126 C 
ENDBRANCH  21  22
ENDBRANCH   7  21
BRANCH   6  25
HETATM   25  O   UNK N   1      35.620  12.333   9.086  0.00  0.00    -0.392 OA
HETATM   26  H   UNK N   1      36.425  12.292   8.547  0.00  0.00     0.210 HD
ENDBRANCH   6  25
BRANCH  10  27
HETATM   27  O   UNK N   1      35.714  14.701   7.939  0.00  0.00    -0.378 OA
HETATM   28  H   UNK N   1      36.621  15.002   8.100  0.00  0.00     0.211 HD
ENDBRANCH  10  27
BRANCH  15  29
HETATM   29  C   UNK N   1      32.629  14.560   4.574  0.00  0.00     0.001 C 
HETATM   30  C   UNK N   1      32.512  15.421   3.560  0.00  0.00     0.010 C 
ENDBRANCH  15  29
BRANCH   1  31
HETATM   31  O   UNK N   1      34.277  17.617   9.042  0.00  0.00    -0.395 OA
HETATM   32  H   UNK N   1      33.686  17.588   8.273  0.00  0.00     0.210 HD
ENDBRANCH   1  31
TORSDOF 6
ENDMDL
MODEL 7
REMARK VINA RESULT:      -6.3     13.724     17.521
REMARK  6 active torsions:
REMARK  status: ('A' for Active; 'I' for Inactive)
REMARK    1  A    between atoms: C_1  and  O_2 
REMARK    2  A    between atoms: C_7  and  O_8 
REMARK    3  A    between atoms: C_9  and  O_10 
REMARK    4  A    between atoms: O_10  and  C_27 
REMARK    5  A    between atoms: C_13  and  O_14 
REMARK    6  A    between atoms: C_19  and  C_20 
ROOT
HETATM    1  C   UNK N   1      31.991  17.387   7.374  0.00  0.00     0.130 C 
HETATM    2  C   UNK N   1      30.840  17.090   6.441  0.00  0.00     0.033 C 
HETATM    3  C   UNK N   1      31.288  17.519   5.049  0.00  0.00     0.012 C 
HETATM    4  C   UNK N   1      32.300  16.519   4.531  0.00  0.00    -0.041 C 
HETATM    5  C   UNK N   1      33.542  16.375   5.514  0.00  0.00     0.039 C 
HETATM    6  C   UNK N   1      34.426  15.121   5.120  0.00  0.00     0.156 C 
HETATM    7  C   UNK N   1      35.437  14.822   6.221  0.00  0.00     0.198 C 
HETATM    8  C   UNK N   1      34.770  14.412   7.594  0.00  0.00     0.126 C 
HETATM    9  O   UNK N   1      35.754  14.832   8.555  0.00  0.00    -0.359 OA
HETATM   10  C   UNK N   1      33.324  15.094   7.776  0.00  0.00     0.161 C 
HETATM   11  C   UNK N   1      33.277  16.518   7.102  0.00  0.00     0.030 C 
HETATM   12  C   UNK N   1      33.059  15.101   9.265  0.00  0.00     0.168 C 
HETATM   13  O   UNK N   1      32.063  14.578   9.742  0.00  0.00    -0.294 OA
HETATM   14  C   UNK N   1      34.098  15.659  10.161  0.00  0.00     0.123 C 
HETATM   15  C   UNK N   1      35.386  14.871   9.930  0.00  0.00     0.082 C 
HETATM   16  C   UNK N   1      36.493  15.622  10.652  0.00  0.00     0.051 C 
HETATM   17  C   UNK N   1      34.596  12.892   7.698  0.00  0.00     0.052 C 
HETATM   18  C   UNK N   1      31.497  15.249   4.266  0.00  0.00     0.015 C 
HETATM   19  C   UNK N   1      32.789  17.014   3.176  0.00  0.00     0.015 C 
HETATM   20  C   UNK N   1      34.413  17.349   7.733  0.00  0.00     0.022 C 
ENDROOT
BRANCH   7  21
HETATM   21  O   UNK N   1      36.495  13.999   5.832  0.00  0.00    -0.310 OA
BRANCH  21  22
HETATM   22  C   UNK N   1      37.841  14.194   5.963  0.00  0.00     0.255 C 
HETATM   23  O   UNK N   1      38.440  15.015   5.297  0.00  0.00    -0.266 OA
HETATM   24  C   UNK N   1      38.590  13.387   6.966  0.00  0.00     0.126 C 
ENDBRANCH  21  22
ENDBRANCH   7  21
BRANCH   6  25
HETATM   25  O   UNK N   1      33.658  13.973   4.923  0.00  0.00    -0.392 OA
HETATM   26  H   UNK N   1      33.289  13.112   4.671  0.00  0.00     0.210 HD
ENDBRANCH   6  25
BRANCH  10  27
HETATM   27  O   UNK N   1      32.324  14.323   7.165  0.00  0.00    -0.378 OA
HETATM   28  H   UNK N   1      31.776  14.049   6.414  0.00  0.00     0.211 HD
ENDBRANCH  10  27
BRANCH  15  29
HETATM   29  C   UNK N   1      35.310  13.480  10.517  0.00  0.00     0.001 C 
HETATM   30  C   UNK N   1      35.109  13.271  11.821  0.00  0.00     0.010 C 
ENDBRANCH  15  29
BRANCH   1  31
HETATM   31  O   UNK N   1      31.551  17.297   8.695  0.00  0.00    -0.395 OA
HETATM   32  H   UNK N   1      30.967  16.585   9.000  0.00  0.00     0.210 HD
ENDBRANCH   1  31
TORSDOF 6
ENDMDL
MODEL 8
REMARK VINA RESULT:      -6.2     19.254     23.227
REMARK  6 active torsions:
REMARK  status: ('A' for Active; 'I' for Inactive)
REMARK    1  A    between atoms: C_1  and  O_2 
REMARK    2  A    between atoms: C_7  and  O_8 
REMARK    3  A    between atoms: C_9  and  O_10 
REMARK    4  A    between atoms: O_10  and  C_27 
REMARK    5  A    between atoms: C_13  and  O_14 
REMARK    6  A    between atoms: C_19  and  C_20 
ROOT
HETATM    1  C   UNK N   1      36.437  15.009  11.823  0.00  0.00     0.130 C 
HETATM    2  C   UNK N   1      35.323  15.855  11.252  0.00  0.00     0.033 C 
HETATM    3  C   UNK N   1      35.410  15.725   9.736  0.00  0.00     0.012 C 
HETATM    4  C   UNK N   1      34.917  14.350   9.336  0.00  0.00    -0.041 C 
HETATM    5  C   UNK N   1      35.738  13.196  10.059  0.00  0.00     0.039 C 
HETATM    6  C   UNK N   1      35.021  11.796   9.870  0.00  0.00     0.156 C 
HETATM    7  C   UNK N   1      35.645  10.756  10.794  0.00  0.00     0.198 C 
HETATM    8  C   UNK N   1      35.460  11.084  12.328  0.00  0.00     0.126 C 
HETATM    9  O   UNK N   1      36.604  10.444  12.922  0.00  0.00    -0.359 OA
HETATM   10  C   UNK N   1      35.372  12.669  12.588  0.00  0.00     0.161 C 
HETATM   11  C   UNK N   1      36.267  13.465  11.562  0.00  0.00     0.030 C 
HETATM   12  C   UNK N   1      35.757  12.870  14.037  0.00  0.00     0.168 C 
HETATM   13  O   UNK N   1      35.017  13.438  14.825  0.00  0.00    -0.294 OA
HETATM   14  C   UNK N   1      37.016  12.257  14.520  0.00  0.00     0.123 C 
HETATM   15  C   UNK N   1      36.926  10.752  14.275  0.00  0.00     0.082 C 
HETATM   16  C   UNK N   1      38.312  10.184  14.528  0.00  0.00     0.051 C 
HETATM   17  C   UNK N   1      34.187  10.439  12.888  0.00  0.00     0.052 C 
HETATM   18  C   UNK N   1      33.416  14.379   9.600  0.00  0.00     0.015 C 
HETATM   19  C   UNK N   1      35.091  14.218   7.828  0.00  0.00     0.015 C 
HETATM   20  C   UNK N   1      37.701  12.916  11.702  0.00  0.00     0.022 C 
ENDROOT
BRANCH   7  21
HETATM   21  O   UNK N   1      35.362   9.432  10.455  0.00  0.00    -0.310 OA
BRANCH  21  22
HETATM   22  C   UNK N   1      36.191   8.464   9.964  0.00  0.00     0.255 C 
HETATM   23  O   UNK N   1      35.762   7.444   9.461  0.00  0.00    -0.266 OA
HETATM   24  C   UNK N   1      37.664   8.676  10.032  0.00  0.00     0.126 C 
ENDBRANCH  21  22
ENDBRANCH   7  21
BRANCH   6  25
HETATM   25  O   UNK N   1      33.657  11.857  10.158  0.00  0.00    -0.392 OA
HETATM   26  H   UNK N   1      32.750  11.731  10.477  0.00  0.00     0.210 HD
ENDBRANCH   6  25
BRANCH  10  27
HETATM   27  O   UNK N   1      34.059  13.133  12.424  0.00  0.00    -0.378 OA
HETATM   28  H   UNK N   1      33.366  13.637  11.971  0.00  0.00     0.211 HD
ENDBRANCH  10  27
BRANCH  15  29
HETATM   29  C   UNK N   1      35.968  10.080  15.233  0.00  0.00     0.001 C 
HETATM   30  C   UNK N   1      36.114  10.168  16.558  0.00  0.00     0.010 C 
ENDBRANCH  15  29
BRANCH   1  31
HETATM   31  O   UNK N   1      36.603  15.312  13.174  0.00  0.00    -0.395 OA
HETATM   32  H   UNK N   1      36.508  16.214  13.519  0.00  0.00     0.210 HD
ENDBRANCH   1  31
TORSDOF 6
ENDMDL
MODEL 9
REMARK VINA RESULT:      -6.2     13.523     16.059
REMARK  6 active torsions:
REMARK  status: ('A' for Active; 'I' for Inactive)
REMARK    1  A    between atoms: C_1  and  O_2 
REMARK    2  A    between atoms: C_7  and  O_8 
REMARK    3  A    between atoms: C_9  and  O_10 
REMARK    4  A    between atoms: O_10  and  C_27 
REMARK    5  A    between atoms: C_13  and  O_14 
REMARK    6  A    between atoms: C_19  and  C_20 
ROOT
HETATM    1  C   UNK N   1      20.281  15.439   7.288  0.00  0.00     0.130 C 
HETATM    2  C   UNK N   1      21.081  14.891   8.447  0.00  0.00     0.033 C 
HETATM    3  C   UNK N   1      21.220  13.392   8.209  0.00  0.00     0.012 C 
HETATM    4  C   UNK N   1      22.211  13.165   7.086  0.00  0.00    -0.041 C 
HETATM    5  C   UNK N   1      21.775  13.919   5.756  0.00  0.00     0.039 C 
HETATM    6  C   UNK N   1      22.958  13.925   4.702  0.00  0.00     0.156 C 
HETATM    7  C   UNK N   1      22.642  14.884   3.560  0.00  0.00     0.198 C 
HETATM    8  C   UNK N   1      22.521  16.391   4.018  0.00  0.00     0.126 C 
HETATM    9  O   UNK N   1      21.619  16.941   3.042  0.00  0.00    -0.359 OA
HETATM   10  C   UNK N   1      22.012  16.508   5.539  0.00  0.00     0.161 C 
HETATM   11  C   UNK N   1      21.017  15.339   5.898  0.00  0.00     0.030 C 
HETATM   12  C   UNK N   1      21.417  17.893   5.667  0.00  0.00     0.168 C 
HETATM   13  O   UNK N   1      21.813  18.687   6.508  0.00  0.00    -0.294 OA
HETATM   14  C   UNK N   1      20.411  18.321   4.668  0.00  0.00     0.123 C 
HETATM   15  C   UNK N   1      21.056  18.226   3.286  0.00  0.00     0.082 C 
HETATM   16  C   UNK N   1      19.942  18.409   2.270  0.00  0.00     0.051 C 
HETATM   17  C   UNK N   1      23.867  17.117   3.910  0.00  0.00     0.052 C 
HETATM   18  C   UNK N   1      23.564  13.555   7.672  0.00  0.00     0.015 C 
HETATM   19  C   UNK N   1      22.269  11.667   6.816  0.00  0.00     0.015 C 
HETATM   20  C   UNK N   1      19.864  15.404   4.876  0.00  0.00     0.022 C 
ENDROOT
BRANCH   7  21
HETATM   21  O   UNK N   1      23.413  14.696   2.412  0.00  0.00    -0.310 OA
BRANCH  21  22
HETATM   22  C   UNK N   1      23.024  14.338   1.152  0.00  0.00     0.255 C 
HETATM   23  O   UNK N   1      23.825  14.182   0.251  0.00  0.00    -0.266 OA
HETATM   24  C   UNK N   1      21.576  14.114   0.884  0.00  0.00     0.126 C 
ENDBRANCH  21  22
ENDBRANCH   7  21
BRANCH   6  25
HETATM   25  O   UNK N   1      24.170  14.323   5.269  0.00  0.00    -0.392 OA
HETATM   26  H   UNK N   1      24.898  14.612   5.840  0.00  0.00     0.210 HD
ENDBRANCH   6  25
BRANCH  10  27
HETATM   27  O   UNK N   1      23.085  16.417   6.438  0.00  0.00    -0.378 OA
HETATM   28  H   UNK N   1      23.520  16.575   7.290  0.00  0.00     0.211 HD
ENDBRANCH  10  27
BRANCH  15  29
HETATM   29  C   UNK N   1      22.073  19.322   3.062  0.00  0.00     0.001 C 
HETATM   30  C   UNK N   1      21.716  20.553   2.687  0.00  0.00     0.010 C 
ENDBRANCH  15  29
BRANCH   1  31
HETATM   31  O   UNK N   1      19.866  16.737   7.586  0.00  0.00    -0.395 OA
HETATM   32  H   UNK N   1      20.349  17.308   8.203  0.00  0.00     0.210 HD
ENDBRANCH   1  31
TORSDOF 6
ENDMDL
