REMARK  7 active torsions:
REMARK  status: ('A' for Active; 'I' for Inactive)
REMARK    1  A    between atoms: C_1  and  C_7 
REMARK    2  A    between atoms: C_7  and  O_8 
REMARK    3  A    between atoms: O_8  and  C_9 
REMARK       I    between atoms: C_9  and  N_11 
REMARK    4  A    between atoms: N_11  and  C_12 
REMARK    5  A    between atoms: C_12  and  P_13 
REMARK    6  A    between atoms: P_13  and  O_15 
REMARK    7  A    between atoms: P_13  and  O_16 
ROOT
HETATM    1  C   UNK N   1       0.952  -1.623   0.067  0.00  0.00     0.361 C 
HETATM    2  O   UNK N   1       0.676  -2.791   0.290  0.00  0.00    -0.238 OA
HETATM    3  N   UNK N   1       2.252  -1.278  -0.079  0.00  0.00    -0.326 N 
HETATM    4  H   UNK N   1       2.934  -1.981   0.019  0.00  0.00     0.165 HD
ENDROOT
BRANCH   1   5
HETATM    5  O   UNK N   1      -0.040  -0.695  -0.048  0.00  0.00    -0.299 OA
BRANCH   5   6
HETATM    6  C   UNK N   1      -1.363  -1.093   0.004  0.00  0.00     0.219 C 
BRANCH   6   7
HETATM    7  C   UNK N   1      -2.355   0.029  -0.008  0.00  0.00    -0.034 A 
HETATM    8  C   UNK N   1      -3.716  -0.298   0.006  0.00  0.00     0.009 A 
HETATM    9  C   UNK N   1      -4.686   0.707   0.005  0.00  0.00     0.001 A 
HETATM   10  C   UNK N   1      -4.299   2.048  -0.007  0.00  0.00     0.000 A 
HETATM   11  C   UNK N   1      -2.941   2.384  -0.020  0.00  0.00     0.001 A 
HETATM   12  C   UNK N   1      -1.967   1.376  -0.021  0.00  0.00     0.009 A 
ENDBRANCH   6   7
ENDBRANCH   5   6
ENDBRANCH   1   5
BRANCH   3  13
HETATM   13  C   UNK N   1       2.692   0.065  -0.369  0.00  0.00     0.249 C 
BRANCH  13  14
HETATM   14  P   UNK N   1       4.174   0.510   0.685  0.00  0.00     0.254 P 
HETATM   15  O   UNK N   1       5.281   1.408   0.070  0.00  0.00    -0.652 OA
BRANCH  14  16
HETATM   16  O   UNK N   1       4.741  -0.582  -0.544  0.00  0.00    -0.328 OA
HETATM   17  H   UNK N   1       4.371  -1.160  -1.229  0.00  0.00     0.220 HD
ENDBRANCH  14  16
BRANCH  14  18
HETATM   18  O   UNK N   1       3.246   1.788  -0.032  0.00  0.00    -0.328 OA
HETATM   19  H   UNK N   1       3.606   2.595  -0.432  0.00  0.00     0.220 HD
ENDBRANCH  14  18
ENDBRANCH  13  14
ENDBRANCH   3  13
TORSDOF 7
