MODEL 1
REMARK VINA RESULT:      -6.4      0.000      0.000
REMARK  7 active torsions:
REMARK  status: ('A' for Active; 'I' for Inactive)
REMARK    1  A    between atoms: C_1  and  C_7 
REMARK    2  A    between atoms: C_7  and  O_8 
REMARK    3  A    between atoms: O_8  and  C_9 
REMARK       I    between atoms: C_9  and  N_11 
REMARK    4  A    between atoms: N_11  and  C_12 
REMARK    5  A    between atoms: C_12  and  P_13 
REMARK    6  A    between atoms: P_13  and  O_15 
REMARK    7  A    between atoms: P_13  and  O_16 
ROOT
HETATM    1  C   UNK N   1      36.794  14.324  14.877  0.00  0.00     0.361 C 
HETATM    2  O   UNK N   1      37.415  14.885  15.766  0.00  0.00    -0.238 OA
HETATM    3  N   UNK N   1      36.683  14.934  13.675  0.00  0.00    -0.326 N 
HETATM    4  H   UNK N   1      37.092  15.822  13.564  0.00  0.00     0.165 HD
ENDROOT
BRANCH   1   5
HETATM    5  O   UNK N   1      36.241  13.097  15.098  0.00  0.00    -0.299 OA
BRANCH   5   6
HETATM    6  C   UNK N   1      35.057  12.994  15.804  0.00  0.00     0.219 C 
BRANCH   6   7
HETATM    7  C   UNK N   1      35.200  12.439  17.188  0.00  0.00    -0.034 A 
HETATM    8  C   UNK N   1      35.131  13.333  18.263  0.00  0.00     0.009 A 
HETATM    9  C   UNK N   1      35.248  12.871  19.576  0.00  0.00     0.001 A 
HETATM   10  C   UNK N   1      35.433  11.510  19.822  0.00  0.00     0.000 A 
HETATM   11  C   UNK N   1      35.502  10.610  18.753  0.00  0.00     0.001 A 
HETATM   12  C   UNK N   1      35.387  11.072  17.435  0.00  0.00     0.009 A 
ENDBRANCH   6   7
ENDBRANCH   5   6
ENDBRANCH   1   5
BRANCH   3  13
HETATM   13  C   UNK N   1      35.994  14.354  12.548  0.00  0.00     0.249 C 
BRANCH  13  14
HETATM   14  P   UNK N   1      35.423  15.693  11.370  0.00  0.00     0.254 P 
HETATM   15  O   UNK N   1      34.908  15.278   9.966  0.00  0.00    -0.652 OA
BRANCH  14  16
HETATM   16  O   UNK N   1      36.909  15.058  10.727  0.00  0.00    -0.328 OA
HETATM   17  H   UNK N   1      37.805  15.369  10.525  0.00  0.00     0.220 HD
ENDBRANCH  14  16
BRANCH  14  18
HETATM   18  O   UNK N   1      34.335  14.398  11.753  0.00  0.00    -0.328 OA
HETATM   19  H   UNK N   1      34.089  14.108  12.645  0.00  0.00     0.220 HD
ENDBRANCH  14  18
ENDBRANCH  13  14
ENDBRANCH   3  13
TORSDOF 7
ENDMDL
MODEL 2
REMARK VINA RESULT:      -6.3      1.190      1.610
REMARK  7 active torsions:
REMARK  status: ('A' for Active; 'I' for Inactive)
REMARK    1  A    between atoms: C_1  and  C_7 
REMARK    2  A    between atoms: C_7  and  O_8 
REMARK    3  A    between atoms: O_8  and  C_9 
REMARK       I    between atoms: C_9  and  N_11 
REMARK    4  A    between atoms: N_11  and  C_12 
REMARK    5  A    between atoms: C_12  and  P_13 
REMARK    6  A    between atoms: P_13  and  O_15 
REMARK    7  A    between atoms: P_13  and  O_16 
ROOT
HETATM    1  C   UNK N   1      36.458  13.302  13.717  0.00  0.00     0.361 C 
HETATM    2  O   UNK N   1      37.174  12.351  13.988  0.00  0.00    -0.238 OA
HETATM    3  N   UNK N   1      36.791  14.088  12.667  0.00  0.00    -0.326 N 
HETATM    4  H   UNK N   1      37.613  13.876  12.169  0.00  0.00     0.165 HD
ENDROOT
BRANCH   1   5
HETATM    5  O   UNK N   1      35.337  13.547  14.453  0.00  0.00    -0.299 OA
BRANCH   5   6
HETATM    6  C   UNK N   1      34.670  12.499  15.059  0.00  0.00     0.219 C 
BRANCH   6   7
HETATM    7  C   UNK N   1      34.939  12.349  16.525  0.00  0.00    -0.034 A 
HETATM    8  C   UNK N   1      34.942  13.505  17.313  0.00  0.00     0.009 A 
HETATM    9  C   UNK N   1      35.178  13.425  18.687  0.00  0.00     0.001 A 
HETATM   10  C   UNK N   1      35.411  12.184  19.282  0.00  0.00     0.000 A 
HETATM   11  C   UNK N   1      35.409  11.023  18.502  0.00  0.00     0.001 A 
HETATM   12  C   UNK N   1      35.174  11.103  17.123  0.00  0.00     0.009 A 
ENDBRANCH   6   7
ENDBRANCH   5   6
ENDBRANCH   1   5
BRANCH   3  13
HETATM   13  C   UNK N   1      36.007  15.222  12.242  0.00  0.00     0.249 C 
BRANCH  13  14
HETATM   14  P   UNK N   1      35.524  15.044  10.441  0.00  0.00     0.254 P 
HETATM   15  O   UNK N   1      34.949  16.281   9.700  0.00  0.00    -0.652 OA
BRANCH  14  16
HETATM   16  O   UNK N   1      34.047  15.224  11.343  0.00  0.00    -0.328 OA
HETATM   17  H   UNK N   1      33.655  14.898  12.167  0.00  0.00     0.220 HD
ENDBRANCH  14  16
BRANCH  14  18
HETATM   18  O   UNK N   1      36.650  16.287  10.884  0.00  0.00    -0.328 OA
HETATM   19  H   UNK N   1      36.741  17.150  10.452  0.00  0.00     0.220 HD
ENDBRANCH  14  18
ENDBRANCH  13  14
ENDBRANCH   3  13
TORSDOF 7
ENDMDL
MODEL 3
REMARK VINA RESULT:      -6.1      7.221     10.678
REMARK  7 active torsions:
REMARK  status: ('A' for Active; 'I' for Inactive)
REMARK    1  A    between atoms: C_1  and  C_7 
REMARK    2  A    between atoms: C_7  and  O_8 
REMARK    3  A    between atoms: O_8  and  C_9 
REMARK       I    between atoms: C_9  and  N_11 
REMARK    4  A    between atoms: N_11  and  C_12 
REMARK    5  A    between atoms: C_12  and  P_13 
REMARK    6  A    between atoms: P_13  and  O_15 
REMARK    7  A    between atoms: P_13  and  O_16 
ROOT
HETATM    1  C   UNK N   1      34.856  18.244   8.389  0.00  0.00     0.361 C 
HETATM    2  O   UNK N   1      35.261  19.380   8.575  0.00  0.00    -0.238 OA
HETATM    3  N   UNK N   1      34.629  17.450   9.461  0.00  0.00    -0.326 N 
HETATM    4  H   UNK N   1      34.818  17.813  10.357  0.00  0.00     0.165 HD
ENDROOT
BRANCH   1   5
HETATM    5  O   UNK N   1      34.623  17.798   7.122  0.00  0.00    -0.299 OA
BRANCH   5   6
HETATM    6  C   UNK N   1      33.325  17.698   6.656  0.00  0.00     0.219 C 
BRANCH   6   7
HETATM    7  C   UNK N   1      33.184  16.988   5.345  0.00  0.00    -0.034 A 
HETATM    8  C   UNK N   1      32.514  17.649   4.309  0.00  0.00     0.009 A 
HETATM    9  C   UNK N   1      32.360  17.040   3.062  0.00  0.00     0.001 A 
HETATM   10  C   UNK N   1      32.880  15.763   2.843  0.00  0.00     0.000 A 
HETATM   11  C   UNK N   1      33.551  15.095   3.872  0.00  0.00     0.001 A 
HETATM   12  C   UNK N   1      33.704  15.705   5.124  0.00  0.00     0.009 A 
ENDBRANCH   6   7
ENDBRANCH   5   6
ENDBRANCH   1   5
BRANCH   3  13
HETATM   13  C   UNK N   1      34.128  16.101   9.362  0.00  0.00     0.249 C 
BRANCH  13  14
HETATM   14  P   UNK N   1      35.058  14.970  10.528  0.00  0.00     0.254 P 
HETATM   15  O   UNK N   1      34.743  13.450  10.498  0.00  0.00    -0.652 OA
BRANCH  14  16
HETATM   16  O   UNK N   1      33.415  15.034  11.094  0.00  0.00    -0.328 OA
HETATM   17  H   UNK N   1      32.866  14.621  11.778  0.00  0.00     0.220 HD
ENDBRANCH  14  16
BRANCH  14  18
HETATM   18  O   UNK N   1      35.092  14.626   8.828  0.00  0.00    -0.328 OA
HETATM   19  H   UNK N   1      35.858  14.300   8.331  0.00  0.00     0.220 HD
ENDBRANCH  14  18
ENDBRANCH  13  14
ENDBRANCH   3  13
TORSDOF 7
ENDMDL
MODEL 4
REMARK VINA RESULT:      -6.0     21.090     23.910
REMARK  7 active torsions:
REMARK  status: ('A' for Active; 'I' for Inactive)
REMARK    1  A    between atoms: C_1  and  C_7 
REMARK    2  A    between atoms: C_7  and  O_8 
REMARK    3  A    between atoms: O_8  and  C_9 
REMARK       I    between atoms: C_9  and  N_11 
REMARK    4  A    between atoms: N_11  and  C_12 
REMARK    5  A    between atoms: C_12  and  P_13 
REMARK    6  A    between atoms: P_13  and  O_15 
REMARK    7  A    between atoms: P_13  and  O_16 
ROOT
HETATM    1  C   UNK N   1      28.864  23.611  -4.960  0.00  0.00     0.361 C 
HETATM    2  O   UNK N   1      28.655  24.093  -6.062  0.00  0.00    -0.238 OA
HETATM    3  N   UNK N   1      29.699  22.552  -4.860  0.00  0.00    -0.326 N 
HETATM    4  H   UNK N   1      30.097  22.193  -5.686  0.00  0.00     0.165 HD
ENDROOT
BRANCH   1   5
HETATM    5  O   UNK N   1      28.273  24.149  -3.855  0.00  0.00    -0.299 OA
BRANCH   5   6
HETATM    6  C   UNK N   1      26.895  24.165  -3.752  0.00  0.00     0.219 C 
BRANCH   6   7
HETATM    7  C   UNK N   1      26.252  25.457  -4.152  0.00  0.00    -0.034 A 
HETATM    8  C   UNK N   1      26.405  26.558  -3.300  0.00  0.00     0.009 A 
HETATM    9  C   UNK N   1      25.836  27.791  -3.626  0.00  0.00     0.001 A 
HETATM   10  C   UNK N   1      25.111  27.931  -4.811  0.00  0.00     0.000 A 
HETATM   11  C   UNK N   1      24.953  26.837  -5.668  0.00  0.00     0.001 A 
HETATM   12  C   UNK N   1      25.523  25.599  -5.341  0.00  0.00     0.009 A 
ENDBRANCH   6   7
ENDBRANCH   5   6
ENDBRANCH   1   5
BRANCH   3  13
HETATM   13  C   UNK N   1      30.037  21.919  -3.608  0.00  0.00     0.249 C 
BRANCH  13  14
HETATM   14  P   UNK N   1      31.853  22.163  -3.221  0.00  0.00     0.254 P 
HETATM   15  O   UNK N   1      32.469  21.384  -2.027  0.00  0.00    -0.652 OA
BRANCH  14  16
HETATM   16  O   UNK N   1      30.959  22.913  -1.932  0.00  0.00    -0.328 OA
HETATM   17  H   UNK N   1      30.191  23.496  -1.823  0.00  0.00     0.220 HD
ENDBRANCH  14  16
BRANCH  14  18
HETATM   18  O   UNK N   1      31.267  20.554  -3.497  0.00  0.00    -0.328 OA
HETATM   19  H   UNK N   1      31.795  19.742  -3.451  0.00  0.00     0.220 HD
ENDBRANCH  14  18
ENDBRANCH  13  14
ENDBRANCH   3  13
TORSDOF 7
ENDMDL
MODEL 5
REMARK VINA RESULT:      -5.9      2.121      3.172
REMARK  7 active torsions:
REMARK  status: ('A' for Active; 'I' for Inactive)
REMARK    1  A    between atoms: C_1  and  C_7 
REMARK    2  A    between atoms: C_7  and  O_8 
REMARK    3  A    between atoms: O_8  and  C_9 
REMARK       I    between atoms: C_9  and  N_11 
REMARK    4  A    between atoms: N_11  and  C_12 
REMARK    5  A    between atoms: C_12  and  P_13 
REMARK    6  A    between atoms: P_13  and  O_15 
REMARK    7  A    between atoms: P_13  and  O_16 
ROOT
HETATM    1  C   UNK N   1      34.989  12.022  12.710  0.00  0.00     0.361 C 
HETATM    2  O   UNK N   1      34.543  10.913  12.464  0.00  0.00    -0.238 OA
HETATM    3  N   UNK N   1      34.612  13.063  11.933  0.00  0.00    -0.326 N 
HETATM    4  H   UNK N   1      34.002  12.885  11.181  0.00  0.00     0.165 HD
ENDROOT
BRANCH   1   5
HETATM    5  O   UNK N   1      35.839  12.200  13.761  0.00  0.00    -0.299 OA
BRANCH   5   6
HETATM    6  C   UNK N   1      35.357  12.122  15.055  0.00  0.00     0.219 C 
BRANCH   6   7
HETATM    7  C   UNK N   1      35.774  13.250  15.947  0.00  0.00    -0.034 A 
HETATM    8  C   UNK N   1      36.766  14.122  15.484  0.00  0.00     0.009 A 
HETATM    9  C   UNK N   1      37.188  15.197  16.269  0.00  0.00     0.001 A 
HETATM   10  C   UNK N   1      36.616  15.409  17.524  0.00  0.00     0.000 A 
HETATM   11  C   UNK N   1      35.623  14.544  17.995  0.00  0.00     0.001 A 
HETATM   12  C   UNK N   1      35.200  13.463  17.209  0.00  0.00     0.009 A 
ENDBRANCH   6   7
ENDBRANCH   5   6
ENDBRANCH   1   5
BRANCH   3  13
HETATM   13  C   UNK N   1      35.056  14.419  12.146  0.00  0.00     0.249 C 
BRANCH  13  14
HETATM   14  P   UNK N   1      35.816  15.112  10.581  0.00  0.00     0.254 P 
HETATM   15  O   UNK N   1      36.434  16.535  10.622  0.00  0.00    -0.652 OA
BRANCH  14  16
HETATM   16  O   UNK N   1      34.361  16.018  10.878  0.00  0.00    -0.328 OA
HETATM   17  H   UNK N   1      34.022  16.915  10.735  0.00  0.00     0.220 HD
ENDBRANCH  14  16
BRANCH  14  18
HETATM   18  O   UNK N   1      36.783  15.045  12.019  0.00  0.00    -0.328 OA
HETATM   19  H   UNK N   1      36.556  14.570  12.834  0.00  0.00     0.220 HD
ENDBRANCH  14  18
ENDBRANCH  13  14
ENDBRANCH   3  13
TORSDOF 7
ENDMDL
MODEL 6
REMARK VINA RESULT:      -5.9      6.040      9.335
REMARK  7 active torsions:
REMARK  status: ('A' for Active; 'I' for Inactive)
REMARK    1  A    between atoms: C_1  and  C_7 
REMARK    2  A    between atoms: C_7  and  O_8 
REMARK    3  A    between atoms: O_8  and  C_9 
REMARK       I    between atoms: C_9  and  N_11 
REMARK    4  A    between atoms: N_11  and  C_12 
REMARK    5  A    between atoms: C_12  and  P_13 
REMARK    6  A    between atoms: P_13  and  O_15 
REMARK    7  A    between atoms: P_13  and  O_16 
ROOT
HETATM    1  C   UNK N   1      34.412  16.482   8.438  0.00  0.00     0.361 C 
HETATM    2  O   UNK N   1      34.793  16.599   7.284  0.00  0.00    -0.238 OA
HETATM    3  N   UNK N   1      35.309  16.124   9.386  0.00  0.00    -0.326 N 
HETATM    4  H   UNK N   1      36.237  15.950   9.107  0.00  0.00     0.165 HD
ENDROOT
BRANCH   1   5
HETATM    5  O   UNK N   1      33.110  16.728   8.758  0.00  0.00    -0.299 OA
BRANCH   5   6
HETATM    6  C   UNK N   1      32.519  17.916   8.369  0.00  0.00     0.219 C 
BRANCH   6   7
HETATM    7  C   UNK N   1      31.023  17.884   8.319  0.00  0.00    -0.034 A 
HETATM    8  C   UNK N   1      30.416  17.164   7.282  0.00  0.00     0.009 A 
HETATM    9  C   UNK N   1      29.024  17.092   7.191  0.00  0.00     0.001 A 
HETATM   10  C   UNK N   1      28.230  17.737   8.139  0.00  0.00     0.000 A 
HETATM   11  C   UNK N   1      28.827  18.458   9.179  0.00  0.00     0.001 A 
HETATM   12  C   UNK N   1      30.224  18.533   9.271  0.00  0.00     0.009 A 
ENDBRANCH   6   7
ENDBRANCH   5   6
ENDBRANCH   1   5
BRANCH   3  13
HETATM   13  C   UNK N   1      34.977  15.981  10.783  0.00  0.00     0.249 C 
BRANCH  13  14
HETATM   14  P   UNK N   1      35.210  14.206  11.333  0.00  0.00     0.254 P 
HETATM   15  O   UNK N   1      34.718  13.796  12.747  0.00  0.00    -0.652 OA
BRANCH  14  16
HETATM   16  O   UNK N   1      36.303  15.173  12.278  0.00  0.00    -0.328 OA
HETATM   17  H   UNK N   1      36.363  16.079  12.619  0.00  0.00     0.220 HD
ENDBRANCH  14  16
BRANCH  14  18
HETATM   18  O   UNK N   1      33.617  14.891  11.375  0.00  0.00    -0.328 OA
HETATM   19  H   UNK N   1      32.867  14.553  11.890  0.00  0.00     0.220 HD
ENDBRANCH  14  18
ENDBRANCH  13  14
ENDBRANCH   3  13
TORSDOF 7
ENDMDL
MODEL 7
REMARK VINA RESULT:      -5.7      9.559     12.151
REMARK  7 active torsions:
REMARK  status: ('A' for Active; 'I' for Inactive)
REMARK    1  A    between atoms: C_1  and  C_7 
REMARK    2  A    between atoms: C_7  and  O_8 
REMARK    3  A    between atoms: O_8  and  C_9 
REMARK       I    between atoms: C_9  and  N_11 
REMARK    4  A    between atoms: N_11  and  C_12 
REMARK    5  A    between atoms: C_12  and  P_13 
REMARK    6  A    between atoms: P_13  and  O_15 
REMARK    7  A    between atoms: P_13  and  O_16 
ROOT
HETATM    1  C   UNK N   1      30.647  17.432   8.502  0.00  0.00     0.361 C 
HETATM    2  O   UNK N   1      29.915  17.158   9.439  0.00  0.00    -0.238 OA
HETATM    3  N   UNK N   1      31.956  17.669   8.746  0.00  0.00    -0.326 N 
HETATM    4  H   UNK N   1      32.270  17.630   9.678  0.00  0.00     0.165 HD
ENDROOT
BRANCH   1   5
HETATM    5  O   UNK N   1      30.147  17.479   7.234  0.00  0.00    -0.299 OA
BRANCH   5   6
HETATM    6  C   UNK N   1      28.780  17.437   7.032  0.00  0.00     0.219 C 
BRANCH   6   7
HETATM    7  C   UNK N   1      28.211  18.645   6.354  0.00  0.00    -0.034 A 
HETATM    8  C   UNK N   1      27.742  19.690   7.158  0.00  0.00     0.009 A 
HETATM    9  C   UNK N   1      27.208  20.844   6.581  0.00  0.00     0.001 A 
HETATM   10  C   UNK N   1      27.144  20.961   5.192  0.00  0.00     0.000 A 
HETATM   11  C   UNK N   1      27.611  19.922   4.379  0.00  0.00     0.001 A 
HETATM   12  C   UNK N   1      28.145  18.763   4.958  0.00  0.00     0.009 A 
ENDBRANCH   6   7
ENDBRANCH   5   6
ENDBRANCH   1   5
BRANCH   3  13
HETATM   13  C   UNK N   1      32.916  17.977   7.714  0.00  0.00     0.249 C 
BRANCH  13  14
HETATM   14  P   UNK N   1      34.143  16.576   7.522  0.00  0.00     0.254 P 
HETATM   15  O   UNK N   1      34.996  16.508   6.227  0.00  0.00    -0.652 OA
BRANCH  14  16
HETATM   16  O   UNK N   1      32.862  16.283   6.382  0.00  0.00    -0.328 OA
HETATM   17  H   UNK N   1      32.644  16.500   5.463  0.00  0.00     0.220 HD
ENDBRANCH  14  16
BRANCH  14  18
HETATM   18  O   UNK N   1      34.711  18.209   7.376  0.00  0.00    -0.328 OA
HETATM   19  H   UNK N   1      35.307  18.659   7.995  0.00  0.00     0.220 HD
ENDBRANCH  14  18
ENDBRANCH  13  14
ENDBRANCH   3  13
TORSDOF 7
ENDMDL
MODEL 8
REMARK VINA RESULT:      -5.6     10.424     12.031
REMARK  7 active torsions:
REMARK  status: ('A' for Active; 'I' for Inactive)
REMARK    1  A    between atoms: C_1  and  C_7 
REMARK    2  A    between atoms: C_7  and  O_8 
REMARK    3  A    between atoms: O_8  and  C_9 
REMARK       I    between atoms: C_9  and  N_11 
REMARK    4  A    between atoms: N_11  and  C_12 
REMARK    5  A    between atoms: C_12  and  P_13 
REMARK    6  A    between atoms: P_13  and  O_15 
REMARK    7  A    between atoms: P_13  and  O_16 
ROOT
HETATM    1  C   UNK N   1      28.193  17.896   8.581  0.00  0.00     0.361 C 
HETATM    2  O   UNK N   1      27.689  17.222   9.465  0.00  0.00    -0.238 OA
HETATM    3  N   UNK N   1      27.475  18.142   7.461  0.00  0.00    -0.326 N 
HETATM    4  H   UNK N   1      26.575  17.750   7.390  0.00  0.00     0.165 HD
ENDROOT
BRANCH   1   5
HETATM    5  O   UNK N   1      29.449  18.402   8.737  0.00  0.00    -0.299 OA
BRANCH   5   6
HETATM    6  C   UNK N   1      30.504  17.551   9.008  0.00  0.00     0.219 C 
BRANCH   6   7
HETATM    7  C   UNK N   1      31.577  17.531   7.963  0.00  0.00    -0.034 A 
HETATM    8  C   UNK N   1      31.227  17.119   6.671  0.00  0.00     0.009 A 
HETATM    9  C   UNK N   1      32.184  17.090   5.654  0.00  0.00     0.001 A 
HETATM   10  C   UNK N   1      33.498  17.477   5.923  0.00  0.00     0.000 A 
HETATM   11  C   UNK N   1      33.856  17.891   7.210  0.00  0.00     0.001 A 
HETATM   12  C   UNK N   1      32.897  17.919   8.232  0.00  0.00     0.009 A 
ENDBRANCH   6   7
ENDBRANCH   5   6
ENDBRANCH   1   5
BRANCH   3  13
HETATM   13  C   UNK N   1      27.959  18.945   6.365  0.00  0.00     0.249 C 
BRANCH  13  14
HETATM   14  P   UNK N   1      26.804  18.814   4.897  0.00  0.00     0.254 P 
HETATM   15  O   UNK N   1      26.788  19.967   3.858  0.00  0.00    -0.652 OA
BRANCH  14  16
HETATM   16  O   UNK N   1      26.178  20.075   5.918  0.00  0.00    -0.328 OA
HETATM   17  H   UNK N   1      26.516  20.781   6.491  0.00  0.00     0.220 HD
ENDBRANCH  14  16
BRANCH  14  18
HETATM   18  O   UNK N   1      28.496  19.062   4.608  0.00  0.00    -0.328 OA
HETATM   19  H   UNK N   1      29.082  18.462   4.121  0.00  0.00     0.220 HD
ENDBRANCH  14  18
ENDBRANCH  13  14
ENDBRANCH   3  13
TORSDOF 7
ENDMDL
MODEL 9
REMARK VINA RESULT:      -5.6      9.803     12.162
REMARK  7 active torsions:
REMARK  status: ('A' for Active; 'I' for Inactive)
REMARK    1  A    between atoms: C_1  and  C_7 
REMARK    2  A    between atoms: C_7  and  O_8 
REMARK    3  A    between atoms: O_8  and  C_9 
REMARK       I    between atoms: C_9  and  N_11 
REMARK    4  A    between atoms: N_11  and  C_12 
REMARK    5  A    between atoms: C_12  and  P_13 
REMARK    6  A    between atoms: P_13  and  O_15 
REMARK    7  A    between atoms: P_13  and  O_16 
ROOT
HETATM    1  C   UNK N   1      31.182  15.672   6.392  0.00  0.00     0.361 C 
HETATM    2  O   UNK N   1      30.938  14.477   6.344  0.00  0.00    -0.238 OA
HETATM    3  N   UNK N   1      32.190  16.099   7.188  0.00  0.00    -0.326 N 
HETATM    4  H   UNK N   1      32.680  15.429   7.718  0.00  0.00     0.165 HD
ENDROOT
BRANCH   1   5
HETATM    5  O   UNK N   1      30.459  16.549   5.640  0.00  0.00    -0.299 OA
BRANCH   5   6
HETATM    6  C   UNK N   1      29.085  16.607   5.784  0.00  0.00     0.219 C 
BRANCH   6   7
HETATM    7  C   UNK N   1      28.509  17.989   5.746  0.00  0.00    -0.034 A 
HETATM    8  C   UNK N   1      28.256  18.628   6.966  0.00  0.00     0.009 A 
HETATM    9  C   UNK N   1      27.728  19.921   6.992  0.00  0.00     0.001 A 
HETATM   10  C   UNK N   1      27.453  20.585   5.796  0.00  0.00     0.000 A 
HETATM   11  C   UNK N   1      27.705  19.955   4.572  0.00  0.00     0.001 A 
HETATM   12  C   UNK N   1      28.233  18.657   4.545  0.00  0.00     0.009 A 
ENDBRANCH   6   7
ENDBRANCH   5   6
ENDBRANCH   1   5
BRANCH   3  13
HETATM   13  C   UNK N   1      32.582  17.482   7.303  0.00  0.00     0.249 C 
BRANCH  13  14
HETATM   14  P   UNK N   1      34.235  17.623   8.171  0.00  0.00     0.254 P 
HETATM   15  O   UNK N   1      34.915  19.016   8.253  0.00  0.00    -0.652 OA
BRANCH  14  16
HETATM   16  O   UNK N   1      34.535  17.866   6.475  0.00  0.00    -0.328 OA
HETATM   17  H   UNK N   1      34.892  17.370   5.722  0.00  0.00     0.220 HD
ENDBRANCH  14  16
BRANCH  14  18
HETATM   18  O   UNK N   1      32.928  18.633   8.698  0.00  0.00    -0.328 OA
HETATM   19  H   UNK N   1      32.008  18.351   8.825  0.00  0.00     0.220 HD
ENDBRANCH  14  18
ENDBRANCH  13  14
ENDBRANCH   3  13
TORSDOF 7
ENDMDL
