MODEL 1
REMARK VINA RESULT:      -6.9      0.000      0.000
REMARK  3 active torsions:
REMARK  status: ('A' for Active; 'I' for Inactive)
REMARK    1  A    between atoms: O_1  and  N_2 
REMARK    2  A    between atoms: C_10  and  C_11 
REMARK    3  A    between atoms: C_18  and  C_19 
ROOT
HETATM    1  N   UNK N   1      30.092  14.796   5.611  0.00  0.00    -0.221 N 
HETATM    2  C   UNK N   1      28.861  14.532   5.163  0.00  0.00     0.090 A 
HETATM    3  C   UNK N   1      28.337  13.306   4.767  0.00  0.00     0.036 A 
HETATM    4  C   UNK N   1      27.002  13.288   4.329  0.00  0.00     0.019 A 
HETATM    5  C   UNK N   1      26.256  14.487   4.307  0.00  0.00     0.088 A 
HETATM    6  N   UNK N   1      26.823  15.665   4.710  0.00  0.00    -0.363 N 
ATOM      7  HN  UNK N   1      26.285  16.531   4.693  1.00  0.00     0.165 HD
HETATM    8  C   UNK N   1      28.114  15.666   5.135  0.00  0.00     0.075 A 
HETATM    9  C   UNK N   1      28.903  16.727   5.577  0.00  0.00     0.033 A 
HETATM   10  C   UNK N   1      30.170  16.132   5.884  0.00  0.00     0.086 A 
ENDROOT
BRANCH   9  11
HETATM   11  C   UNK N   1      28.396  18.135   5.674  0.00  0.00    -0.021 A 
HETATM   12  C   UNK N   1      28.102  18.683   6.936  0.00  0.00     0.015 A 
HETATM   13  C   UNK N   1      27.649  20.000   7.061  0.00  0.00     0.043 A 
HETATM   14  C   UNK N   1      27.466  20.784   5.920  0.00  0.00     0.116 A 
HETATM   15  F   UNK N   1      27.037  22.064   6.036  0.00  0.00    -0.206 F 
HETATM   16  C   UNK N   1      27.725  20.247   4.661  0.00  0.00     0.043 A 
HETATM   17  C   UNK N   1      28.186  18.934   4.546  0.00  0.00     0.015 A 
ENDBRANCH   9  11
BRANCH  10  18
HETATM   18  C   UNK N   1      31.417  16.748   6.460  0.00  0.00    -0.003 A 
HETATM   19  C   UNK N   1      32.560  16.982   5.697  0.00  0.00     0.031 A 
HETATM   20  C   UNK N   1      33.688  17.579   6.262  0.00  0.00     0.088 A 
HETATM   21  N   UNK N   1      33.676  17.953   7.567  0.00  0.00    -0.375 N 
HETATM   22  C   UNK N   1      32.579  17.753   8.344  0.00  0.00     0.088 A 
ATOM     23  HN  UNK N   1      34.504  18.392   7.971  1.00  0.00     0.164 HD
HETATM   24  C   UNK N   1      31.440  17.149   7.805  0.00  0.00     0.031 A 
ENDBRANCH  10  18
BRANCH   1  25
HETATM   25  O   UNK N   1      31.067  13.868   5.770  0.00  0.00    -0.282 OA
HETATM   26  H   UNK N   1      30.930  13.136   6.339  0.00  0.00     0.245 HD
ENDBRANCH   1  25
TORSDOF 3
ENDMDL
MODEL 2
REMARK VINA RESULT:      -6.8      5.757      9.054
REMARK  3 active torsions:
REMARK  status: ('A' for Active; 'I' for Inactive)
REMARK    1  A    between atoms: O_1  and  N_2 
REMARK    2  A    between atoms: C_10  and  C_11 
REMARK    3  A    between atoms: C_18  and  C_19 
ROOT
HETATM    1  N   UNK N   1      23.899  19.832   3.340  0.00  0.00    -0.221 N 
HETATM    2  C   UNK N   1      25.059  19.715   3.993  0.00  0.00     0.090 A 
HETATM    3  C   UNK N   1      26.205  20.490   3.851  0.00  0.00     0.036 A 
HETATM    4  C   UNK N   1      27.307  20.164   4.660  0.00  0.00     0.019 A 
HETATM    5  C   UNK N   1      27.215  19.085   5.567  0.00  0.00     0.088 A 
HETATM    6  N   UNK N   1      26.060  18.358   5.665  0.00  0.00    -0.363 N 
ATOM      7  HN  UNK N   1      25.994  17.578   6.320  1.00  0.00     0.165 HD
HETATM    8  C   UNK N   1      25.001  18.687   4.880  0.00  0.00     0.075 A 
HETATM    9  C   UNK N   1      23.742  18.097   4.792  0.00  0.00     0.033 A 
HETATM   10  C   UNK N   1      23.053  18.862   3.796  0.00  0.00     0.086 A 
ENDROOT
BRANCH   9  11
HETATM   11  C   UNK N   1      23.330  16.925   5.633  0.00  0.00    -0.021 A 
HETATM   12  C   UNK N   1      22.113  16.969   6.337  0.00  0.00     0.015 A 
HETATM   13  C   UNK N   1      21.690  15.884   7.112  0.00  0.00     0.043 A 
HETATM   14  C   UNK N   1      22.491  14.744   7.209  0.00  0.00     0.116 A 
HETATM   15  F   UNK N   1      22.082  13.687   7.949  0.00  0.00    -0.206 F 
HETATM   16  C   UNK N   1      23.713  14.697   6.541  0.00  0.00     0.043 A 
HETATM   17  C   UNK N   1      24.123  15.781   5.762  0.00  0.00     0.015 A 
ENDBRANCH   9  11
BRANCH  10  18
HETATM   18  C   UNK N   1      21.636  18.754   3.298  0.00  0.00    -0.003 A 
HETATM   19  C   UNK N   1      20.747  19.829   3.325  0.00  0.00     0.031 A 
HETATM   20  C   UNK N   1      19.449  19.696   2.830  0.00  0.00     0.088 A 
HETATM   21  N   UNK N   1      19.042  18.514   2.300  0.00  0.00    -0.375 N 
HETATM   22  C   UNK N   1      19.880  17.445   2.243  0.00  0.00     0.088 A 
ATOM     23  HN  UNK N   1      18.092  18.427   1.937  1.00  0.00     0.164 HD
HETATM   24  C   UNK N   1      21.182  17.549   2.740  0.00  0.00     0.031 A 
ENDBRANCH  10  18
BRANCH   1  25
HETATM   25  O   UNK N   1      23.638  20.774   2.401  0.00  0.00    -0.282 OA
HETATM   26  H   UNK N   1      23.970  21.644   2.505  0.00  0.00     0.245 HD
ENDBRANCH   1  25
TORSDOF 3
ENDMDL
MODEL 3
REMARK VINA RESULT:      -6.8      1.671      2.223
REMARK  3 active torsions:
REMARK  status: ('A' for Active; 'I' for Inactive)
REMARK    1  A    between atoms: O_1  and  N_2 
REMARK    2  A    between atoms: C_10  and  C_11 
REMARK    3  A    between atoms: C_18  and  C_19 
ROOT
HETATM    1  N   UNK N   1      29.749  15.661   3.490  0.00  0.00    -0.221 N 
HETATM    2  C   UNK N   1      28.497  15.611   3.024  0.00  0.00     0.090 A 
HETATM    3  C   UNK N   1      27.945  14.680   2.151  0.00  0.00     0.036 A 
HETATM    4  C   UNK N   1      26.592  14.845   1.807  0.00  0.00     0.019 A 
HETATM    5  C   UNK N   1      25.859  15.925   2.347  0.00  0.00     0.088 A 
HETATM    6  N   UNK N   1      26.455  16.809   3.203  0.00  0.00    -0.363 N 
ATOM      7  HN  UNK N   1      25.925  17.589   3.592  1.00  0.00     0.165 HD
HETATM    8  C   UNK N   1      27.763  16.635   3.530  0.00  0.00     0.075 A 
HETATM    9  C   UNK N   1      28.581  17.399   4.360  0.00  0.00     0.033 A 
HETATM   10  C   UNK N   1      29.853  16.741   4.319  0.00  0.00     0.086 A 
ENDROOT
BRANCH   9  11
HETATM   11  C   UNK N   1      28.094  18.617   5.088  0.00  0.00    -0.021 A 
HETATM   12  C   UNK N   1      27.644  19.731   4.356  0.00  0.00     0.015 A 
HETATM   13  C   UNK N   1      27.163  20.872   5.005  0.00  0.00     0.043 A 
HETATM   14  C   UNK N   1      27.141  20.922   6.400  0.00  0.00     0.116 A 
HETATM   15  F   UNK N   1      26.667  22.021   7.035  0.00  0.00    -0.206 F 
HETATM   16  C   UNK N   1      27.610  19.838   7.140  0.00  0.00     0.043 A 
HETATM   17  C   UNK N   1      28.081  18.699   6.484  0.00  0.00     0.015 A 
ENDBRANCH   9  11
BRANCH  10  18
HETATM   18  C   UNK N   1      31.129  17.051   5.055  0.00  0.00    -0.003 A 
HETATM   19  C   UNK N   1      31.252  16.907   6.437  0.00  0.00     0.031 A 
HETATM   20  C   UNK N   1      32.461  17.180   7.079  0.00  0.00     0.088 A 
HETATM   21  N   UNK N   1      33.540  17.577   6.356  0.00  0.00    -0.375 N 
HETATM   22  C   UNK N   1      33.466  17.718   5.007  0.00  0.00     0.088 A 
ATOM     23  HN  UNK N   1      34.420  17.770   6.834  1.00  0.00     0.164 HD
HETATM   24  C   UNK N   1      32.266  17.460   4.340  0.00  0.00     0.031 A 
ENDBRANCH  10  18
BRANCH   1  25
HETATM   25  O   UNK N   1      30.720  14.767   3.182  0.00  0.00    -0.282 OA
HETATM   26  H   UNK N   1      30.609  13.862   3.395  0.00  0.00     0.245 HD
ENDBRANCH   1  25
TORSDOF 3
ENDMDL
MODEL 4
REMARK VINA RESULT:      -6.8      3.484      5.239
REMARK  3 active torsions:
REMARK  status: ('A' for Active; 'I' for Inactive)
REMARK    1  A    between atoms: O_1  and  N_2 
REMARK    2  A    between atoms: C_10  and  C_11 
REMARK    3  A    between atoms: C_18  and  C_19 
ROOT
HETATM    1  N   UNK N   1      30.246  17.828   8.458  0.00  0.00    -0.221 N 
HETATM    2  C   UNK N   1      29.361  18.186   7.522  0.00  0.00     0.090 A 
HETATM    3  C   UNK N   1      28.196  18.927   7.683  0.00  0.00     0.036 A 
HETATM    4  C   UNK N   1      27.426  19.173   6.534  0.00  0.00     0.019 A 
HETATM    5  C   UNK N   1      27.851  18.668   5.284  0.00  0.00     0.088 A 
HETATM    6  N   UNK N   1      29.008  17.945   5.186  0.00  0.00    -0.363 N 
ATOM      7  HN  UNK N   1      29.314  17.581   4.284  1.00  0.00     0.165 HD
HETATM    8  C   UNK N   1      29.745  17.720   6.305  0.00  0.00     0.075 A 
HETATM    9  C   UNK N   1      30.937  17.012   6.458  0.00  0.00     0.033 A 
HETATM   10  C   UNK N   1      31.237  17.107   7.855  0.00  0.00     0.086 A 
ENDROOT
BRANCH   9  11
HETATM   11  C   UNK N   1      31.647  16.357   5.311  0.00  0.00    -0.021 A 
HETATM   12  C   UNK N   1      32.424  17.139   4.437  0.00  0.00     0.015 A 
HETATM   13  C   UNK N   1      33.117  16.554   3.372  0.00  0.00     0.043 A 
HETATM   14  C   UNK N   1      33.028  15.178   3.155  0.00  0.00     0.116 A 
HETATM   15  F   UNK N   1      33.704  14.605   2.131  0.00  0.00    -0.206 F 
HETATM   16  C   UNK N   1      32.239  14.394   3.994  0.00  0.00     0.043 A 
HETATM   17  C   UNK N   1      31.557  14.984   5.061  0.00  0.00     0.015 A 
ENDBRANCH   9  11
BRANCH  10  18
HETATM   18  C   UNK N   1      32.424  16.598   8.628  0.00  0.00    -0.003 A 
HETATM   19  C   UNK N   1      32.450  15.335   9.219  0.00  0.00     0.031 A 
HETATM   20  C   UNK N   1      33.580  14.889   9.906  0.00  0.00     0.088 A 
HETATM   21  N   UNK N   1      34.678  15.683   9.994  0.00  0.00    -0.375 N 
HETATM   22  C   UNK N   1      34.700  16.916   9.423  0.00  0.00     0.088 A 
ATOM     23  HN  UNK N   1      35.501  15.348  10.495  1.00  0.00     0.164 HD
HETATM   24  C   UNK N   1      33.578  17.390   8.737  0.00  0.00     0.031 A 
ENDBRANCH  10  18
BRANCH   1  25
HETATM   25  O   UNK N   1      30.151  18.156   9.769  0.00  0.00    -0.282 OA
HETATM   26  H   UNK N   1      30.919  18.166  10.307  0.00  0.00     0.245 HD
ENDBRANCH   1  25
TORSDOF 3
ENDMDL
MODEL 5
REMARK VINA RESULT:      -6.8      3.882      6.173
REMARK  3 active torsions:
REMARK  status: ('A' for Active; 'I' for Inactive)
REMARK    1  A    between atoms: O_1  and  N_2 
REMARK    2  A    between atoms: C_10  and  C_11 
REMARK    3  A    between atoms: C_18  and  C_19 
ROOT
HETATM    1  N   UNK N   1      29.916  17.228   5.975  0.00  0.00    -0.221 N 
HETATM    2  C   UNK N   1      29.510  17.598   7.194  0.00  0.00     0.090 A 
HETATM    3  C   UNK N   1      28.288  18.153   7.558  0.00  0.00     0.036 A 
HETATM    4  C   UNK N   1      28.100  18.460   8.916  0.00  0.00     0.019 A 
HETATM    5  C   UNK N   1      29.136  18.202   9.843  0.00  0.00     0.088 A 
HETATM    6  N   UNK N   1      30.317  17.652   9.426  0.00  0.00    -0.363 N 
ATOM      7  HN  UNK N   1      31.064  17.466  10.095  1.00  0.00     0.165 HD
HETATM    8  C   UNK N   1      30.483  17.357   8.110  0.00  0.00     0.075 A 
HETATM    9  C   UNK N   1      31.584  16.810   7.453  0.00  0.00     0.033 A 
HETATM   10  C   UNK N   1      31.184  16.734   6.080  0.00  0.00     0.086 A 
ENDROOT
BRANCH   9  11
HETATM   11  C   UNK N   1      32.846  16.421   8.164  0.00  0.00    -0.021 A 
HETATM   12  C   UNK N   1      33.184  15.060   8.285  0.00  0.00     0.015 A 
HETATM   13  C   UNK N   1      34.365  14.666   8.922  0.00  0.00     0.043 A 
HETATM   14  C   UNK N   1      35.218  15.628   9.465  0.00  0.00     0.116 A 
HETATM   15  F   UNK N   1      36.367  15.253  10.074  0.00  0.00    -0.206 F 
HETATM   16  C   UNK N   1      34.883  16.978   9.379  0.00  0.00     0.043 A 
HETATM   17  C   UNK N   1      33.706  17.364   8.733  0.00  0.00     0.015 A 
ENDBRANCH   9  11
BRANCH  10  18
HETATM   18  C   UNK N   1      31.915  16.177   4.887  0.00  0.00    -0.003 A 
HETATM   19  C   UNK N   1      31.934  14.814   4.588  0.00  0.00     0.031 A 
HETATM   20  C   UNK N   1      32.600  14.339   3.458  0.00  0.00     0.088 A 
HETATM   21  N   UNK N   1      33.229  15.208   2.625  0.00  0.00    -0.375 N 
HETATM   22  C   UNK N   1      33.226  16.544   2.873  0.00  0.00     0.088 A 
ATOM     23  HN  UNK N   1      33.711  14.853   1.799  1.00  0.00     0.164 HD
HETATM   24  C   UNK N   1      32.573  17.045   4.003  0.00  0.00     0.031 A 
ENDBRANCH  10  18
BRANCH   1  25
HETATM   25  O   UNK N   1      29.164  17.327   4.852  0.00  0.00    -0.282 OA
HETATM   26  H   UNK N   1      28.552  18.031   4.758  0.00  0.00     0.245 HD
ENDBRANCH   1  25
TORSDOF 3
ENDMDL
MODEL 6
REMARK VINA RESULT:      -6.7      7.707      9.274
REMARK  3 active torsions:
REMARK  status: ('A' for Active; 'I' for Inactive)
REMARK    1  A    between atoms: O_1  and  N_2 
REMARK    2  A    between atoms: C_10  and  C_11 
REMARK    3  A    between atoms: C_18  and  C_19 
ROOT
HETATM    1  N   UNK N   1      21.309  17.613   6.263  0.00  0.00    -0.221 N 
HETATM    2  C   UNK N   1      21.225  16.366   6.736  0.00  0.00     0.090 A 
HETATM    3  C   UNK N   1      20.864  15.956   8.014  0.00  0.00     0.036 A 
HETATM    4  C   UNK N   1      20.852  14.574   8.268  0.00  0.00     0.019 A 
HETATM    5  C   UNK N   1      21.201  13.670   7.239  0.00  0.00     0.088 A 
HETATM    6  N   UNK N   1      21.547  14.131   5.999  0.00  0.00    -0.363 N 
ATOM      7  HN  UNK N   1      21.799  13.478   5.257  1.00  0.00     0.165 HD
HETATM    8  C   UNK N   1      21.550  15.470   5.767  0.00  0.00     0.075 A 
HETATM    9  C   UNK N   1      21.872  16.171   4.606  0.00  0.00     0.033 A 
HETATM   10  C   UNK N   1      21.701  17.550   4.956  0.00  0.00     0.086 A 
ENDROOT
BRANCH   9  11
HETATM   11  C   UNK N   1      22.282  15.493   3.332  0.00  0.00    -0.021 A 
HETATM   12  C   UNK N   1      23.628  15.136   3.137  0.00  0.00     0.015 A 
HETATM   13  C   UNK N   1      24.037  14.482   1.970  0.00  0.00     0.043 A 
HETATM   14  C   UNK N   1      23.106  14.193   0.971  0.00  0.00     0.116 A 
HETATM   15  F   UNK N   1      23.494  13.552  -0.157  0.00  0.00    -0.206 F 
HETATM   16  C   UNK N   1      21.774  14.567   1.137  0.00  0.00     0.043 A 
HETATM   17  C   UNK N   1      21.371  15.211   2.309  0.00  0.00     0.015 A 
ENDBRANCH   9  11
BRANCH  10  18
HETATM   18  C   UNK N   1      21.838  18.789   4.113  0.00  0.00    -0.003 A 
HETATM   19  C   UNK N   1      23.077  19.293   3.717  0.00  0.00     0.031 A 
HETATM   20  C   UNK N   1      23.162  20.430   2.912  0.00  0.00     0.088 A 
HETATM   21  N   UNK N   1      22.030  21.052   2.493  0.00  0.00    -0.375 N 
HETATM   22  C   UNK N   1      20.803  20.587   2.847  0.00  0.00     0.088 A 
ATOM     23  HN  UNK N   1      22.101  21.881   1.903  1.00  0.00     0.164 HD
HETATM   24  C   UNK N   1      20.690  19.455   3.658  0.00  0.00     0.031 A 
ENDBRANCH  10  18
BRANCH   1  25
HETATM   25  O   UNK N   1      21.031  18.728   6.983  0.00  0.00    -0.282 OA
HETATM   26  H   UNK N   1      20.848  18.660   7.899  0.00  0.00     0.245 HD
ENDBRANCH   1  25
TORSDOF 3
ENDMDL
MODEL 7
REMARK VINA RESULT:      -6.6      3.031      4.968
REMARK  3 active torsions:
REMARK  status: ('A' for Active; 'I' for Inactive)
REMARK    1  A    between atoms: O_1  and  N_2 
REMARK    2  A    between atoms: C_10  and  C_11 
REMARK    3  A    between atoms: C_18  and  C_19 
ROOT
HETATM    1  N   UNK N   1      27.458  16.725   3.465  0.00  0.00    -0.221 N 
HETATM    2  C   UNK N   1      28.105  15.666   2.968  0.00  0.00     0.090 A 
HETATM    3  C   UNK N   1      27.619  14.692   2.104  0.00  0.00     0.036 A 
HETATM    4  C   UNK N   1      28.504  13.669   1.723  0.00  0.00     0.019 A 
HETATM    5  C   UNK N   1      29.826  13.666   2.221  0.00  0.00     0.088 A 
HETATM    6  N   UNK N   1      30.251  14.653   3.068  0.00  0.00    -0.363 N 
ATOM      7  HN  UNK N   1      31.205  14.650   3.427  1.00  0.00     0.165 HD
HETATM    8  C   UNK N   1      29.384  15.638   3.424  0.00  0.00     0.075 A 
HETATM    9  C   UNK N   1      29.577  16.728   4.271  0.00  0.00     0.033 A 
HETATM   10  C   UNK N   1      28.319  17.413   4.270  0.00  0.00     0.086 A 
ENDROOT
BRANCH   9  11
HETATM   11  C   UNK N   1      30.882  17.007   4.956  0.00  0.00    -0.021 A 
HETATM   12  C   UNK N   1      30.991  16.818   6.346  0.00  0.00     0.015 A 
HETATM   13  C   UNK N   1      32.200  17.047   7.010  0.00  0.00     0.043 A 
HETATM   14  C   UNK N   1      33.315  17.489   6.295  0.00  0.00     0.116 A 
HETATM   15  F   UNK N   1      34.491  17.703   6.931  0.00  0.00    -0.206 F 
HETATM   16  C   UNK N   1      33.215  17.709   4.923  0.00  0.00     0.043 A 
HETATM   17  C   UNK N   1      32.007  17.468   4.265  0.00  0.00     0.015 A 
ENDBRANCH   9  11
BRANCH  10  18
HETATM   18  C   UNK N   1      27.914  18.696   4.945  0.00  0.00    -0.003 A 
HETATM   19  C   UNK N   1      27.488  19.817   4.231  0.00  0.00     0.031 A 
HETATM   20  C   UNK N   1      27.095  20.980   4.894  0.00  0.00     0.088 A 
HETATM   21  N   UNK N   1      27.110  21.026   6.251  0.00  0.00    -0.375 N 
HETATM   22  C   UNK N   1      27.507  19.953   6.985  0.00  0.00     0.088 A 
ATOM     23  HN  UNK N   1      26.818  21.880   6.728  1.00  0.00     0.164 HD
HETATM   24  C   UNK N   1      27.913  18.779   6.346  0.00  0.00     0.031 A 
ENDBRANCH  10  18
BRANCH   1  25
HETATM   25  O   UNK N   1      26.169  17.038   3.183  0.00  0.00    -0.282 OA
HETATM   26  H   UNK N   1      25.827  17.876   3.425  0.00  0.00     0.245 HD
ENDBRANCH   1  25
TORSDOF 3
ENDMDL
MODEL 8
REMARK VINA RESULT:      -6.6      5.606      7.578
REMARK  3 active torsions:
REMARK  status: ('A' for Active; 'I' for Inactive)
REMARK    1  A    between atoms: O_1  and  N_2 
REMARK    2  A    between atoms: C_10  and  C_11 
REMARK    3  A    between atoms: C_18  and  C_19 
ROOT
HETATM    1  N   UNK N   1      23.654  20.157   3.041  0.00  0.00    -0.221 N 
HETATM    2  C   UNK N   1      22.349  19.958   2.836  0.00  0.00     0.090 A 
HETATM    3  C   UNK N   1      21.498  20.656   1.986  0.00  0.00     0.036 A 
HETATM    4  C   UNK N   1      20.153  20.253   1.948  0.00  0.00     0.019 A 
HETATM    5  C   UNK N   1      19.721  19.178   2.757  0.00  0.00     0.088 A 
HETATM    6  N   UNK N   1      20.604  18.525   3.573  0.00  0.00    -0.363 N 
ATOM      7  HN  UNK N   1      20.292  17.750   4.157  1.00  0.00     0.165 HD
HETATM    8  C   UNK N   1      21.903  18.924   3.596  0.00  0.00     0.075 A 
HETATM    9  C   UNK N   1      22.971  18.431   4.343  0.00  0.00     0.033 A 
HETATM   10  C   UNK N   1      24.087  19.242   3.958  0.00  0.00     0.086 A 
ENDROOT
BRANCH   9  11
HETATM   11  C   UNK N   1      22.836  17.282   5.298  0.00  0.00    -0.021 A 
HETATM   12  C   UNK N   1      21.799  17.287   6.249  0.00  0.00     0.015 A 
HETATM   13  C   UNK N   1      21.633  16.220   7.138  0.00  0.00     0.043 A 
HETATM   14  C   UNK N   1      22.516  15.138   7.100  0.00  0.00     0.116 A 
HETATM   15  F   UNK N   1      22.354  14.098   7.951  0.00  0.00    -0.206 F 
HETATM   16  C   UNK N   1      23.565  15.132   6.183  0.00  0.00     0.043 A 
HETATM   17  C   UNK N   1      23.718  16.197   5.293  0.00  0.00     0.015 A 
ENDBRANCH   9  11
BRANCH  10  18
HETATM   18  C   UNK N   1      25.533  19.162   4.370  0.00  0.00    -0.003 A 
HETATM   19  C   UNK N   1      26.437  18.287   3.768  0.00  0.00     0.031 A 
HETATM   20  C   UNK N   1      27.776  18.261   4.160  0.00  0.00     0.088 A 
HETATM   21  N   UNK N   1      28.216  19.103   5.130  0.00  0.00    -0.375 N 
HETATM   22  C   UNK N   1      27.371  19.979   5.735  0.00  0.00     0.088 A 
ATOM     23  HN  UNK N   1      29.197  19.080   5.409  1.00  0.00     0.164 HD
HETATM   24  C   UNK N   1      26.023  20.019   5.367  0.00  0.00     0.031 A 
ENDBRANCH  10  18
BRANCH   1  25
HETATM   25  O   UNK N   1      24.394  21.106   2.417  0.00  0.00    -0.282 OA
HETATM   26  H   UNK N   1      24.219  22.013   2.571  0.00  0.00     0.245 HD
ENDBRANCH   1  25
TORSDOF 3
ENDMDL
MODEL 9
REMARK VINA RESULT:      -6.5      8.503     10.059
REMARK  3 active torsions:
REMARK  status: ('A' for Active; 'I' for Inactive)
REMARK    1  A    between atoms: O_1  and  N_2 
REMARK    2  A    between atoms: C_10  and  C_11 
REMARK    3  A    between atoms: C_18  and  C_19 
ROOT
HETATM    1  N   UNK N   1      20.336  14.476   8.426  0.00  0.00    -0.221 N 
HETATM    2  C   UNK N   1      20.947  13.729   7.501  0.00  0.00     0.090 A 
HETATM    3  C   UNK N   1      21.387  12.415   7.614  0.00  0.00     0.036 A 
HETATM    4  C   UNK N   1      22.008  11.845   6.489  0.00  0.00     0.019 A 
HETATM    5  C   UNK N   1      22.161  12.610   5.311  0.00  0.00     0.088 A 
HETATM    6  N   UNK N   1      21.707  13.899   5.257  0.00  0.00    -0.363 N 
ATOM      7  HN  UNK N   1      21.818  14.451   4.407  1.00  0.00     0.165 HD
HETATM    8  C   UNK N   1      21.105  14.435   6.351  0.00  0.00     0.075 A 
HETATM    9  C   UNK N   1      20.579  15.712   6.540  0.00  0.00     0.033 A 
HETATM   10  C   UNK N   1      20.085  15.704   7.885  0.00  0.00     0.086 A 
ENDROOT
BRANCH   9  11
HETATM   11  C   UNK N   1      20.585  16.763   5.470  0.00  0.00    -0.021 A 
HETATM   12  C   UNK N   1      19.722  16.636   4.366  0.00  0.00     0.015 A 
HETATM   13  C   UNK N   1      19.688  17.610   3.363  0.00  0.00     0.043 A 
HETATM   14  C   UNK N   1      20.533  18.718   3.440  0.00  0.00     0.116 A 
HETATM   15  F   UNK N   1      20.498  19.670   2.477  0.00  0.00    -0.206 F 
HETATM   16  C   UNK N   1      21.415  18.844   4.512  0.00  0.00     0.043 A 
HETATM   17  C   UNK N   1      21.436  17.872   5.514  0.00  0.00     0.015 A 
ENDBRANCH   9  11
BRANCH  10  18
HETATM   18  C   UNK N   1      19.351  16.770   8.655  0.00  0.00    -0.003 A 
HETATM   19  C   UNK N   1      18.025  16.623   9.063  0.00  0.00     0.031 A 
HETATM   20  C   UNK N   1      17.388  17.623   9.798  0.00  0.00     0.088 A 
HETATM   21  N   UNK N   1      18.063  18.751  10.137  0.00  0.00    -0.375 N 
HETATM   22  C   UNK N   1      19.359  18.930   9.770  0.00  0.00     0.088 A 
ATOM     23  HN  UNK N   1      17.590  19.476  10.678  1.00  0.00     0.164 HD
HETATM   24  C   UNK N   1      20.018  17.948   9.026  0.00  0.00     0.031 A 
ENDBRANCH  10  18
BRANCH   1  25
HETATM   25  O   UNK N   1      20.022  14.049   9.673  0.00  0.00    -0.282 OA
HETATM   26  H   UNK N   1      19.198  14.279  10.054  0.00  0.00     0.245 HD
ENDBRANCH   1  25
TORSDOF 3
ENDMDL
