MODEL 1
REMARK VINA RESULT:      -8.0      0.000      0.000
REMARK  4 active torsions:
REMARK  status: ('A' for Active; 'I' for Inactive)
REMARK       I    between atoms: C_6  and  N_11 
REMARK    1  A    between atoms: N_11  and  C_12 
REMARK    2  A    between atoms: C_12  and  C_13 
REMARK    3  A    between atoms: C_15  and  C_18 
REMARK    4  A    between atoms: C_21  and  N_24 
REMARK       I    between atoms: C_26  and  N_27 
REMARK       I    between atoms: C_26  and  N_28 
ROOT
HETATM    1  C   UNK N   1      33.802  16.143   9.123  0.00  0.00     0.002 A 
HETATM    2  S   UNK N   1      32.263  15.750   8.745  0.00  0.00    -0.091 SA
HETATM    3  C   UNK N   1      31.750  17.170   8.107  0.00  0.00     0.032 A 
HETATM    4  C   UNK N   1      32.827  18.070   8.166  0.00  0.00     0.022 A 
HETATM    5  C   UNK N   1      34.004  17.481   8.748  0.00  0.00     0.018 A 
ENDROOT
BRANCH   3   6
HETATM    6  C   UNK N   1      30.385  17.331   7.604  0.00  0.00     0.058 A 
HETATM    7  N   UNK N   1      29.585  18.311   8.152  0.00  0.00    -0.335 N 
HETATM    8  C   UNK N   1      28.359  18.355   7.604  0.00  0.00     0.164 A 
ATOM      9  HN  UNK N   1      29.892  18.937   8.896  1.00  0.00     0.168 HD
HETATM   10  S   UNK N   1      28.250  17.183   6.436  0.00  0.00    -0.063 SA
HETATM   11  C   UNK N   1      29.793  16.559   6.585  0.00  0.00     0.084 A 
BRANCH   8  12
HETATM   12  N   UNK N   1      27.385  19.300   8.035  0.00  0.00    -0.171 N 
HETATM   13  C   UNK N   1      26.983  20.351   7.407  0.00  0.00     0.671 C 
HETATM   14  N   UNK N   1      26.002  21.172   8.002  0.00  0.00    -0.235 N 
HETATM   15  N   UNK N   1      27.499  20.700   6.138  0.00  0.00    -0.235 N 
HETATM   16  H   UNK N   1      25.684  21.978   7.534  0.00  0.00     0.174 HD
HETATM   17  H   UNK N   1      25.634  20.939   8.885  0.00  0.00     0.174 HD
HETATM   18  H   UNK N   1      28.184  20.135   5.713  0.00  0.00     0.174 HD
HETATM   19  H   UNK N   1      27.174  21.509   5.680  0.00  0.00     0.174 HD
ATOM     20  HN  UNK N   1      26.957  19.126   8.946  1.00  0.00     0.186 HD
ENDBRANCH   8  12
ENDBRANCH   3   6
BRANCH   1  21
HETATM   21  C   UNK N   1      34.683  15.129   9.748  0.00  0.00     0.184 C 
BRANCH  21  22
HETATM   22  N   UNK N   1      35.576  15.573  10.779  0.00  0.00    -0.221 N 
HETATM   23  C   UNK N   1      35.617  14.778  11.950  0.00  0.00     0.679 A 
HETATM   24  N   UNK N   1      34.860  13.660  12.097  0.00  0.00    -0.190 N 
HETATM   25  N   UNK N   1      36.400  15.043  13.025  0.00  0.00    -0.190 N 
HETATM   26  C   UNK N   1      35.185  13.211  13.312  0.00  0.00     0.076 A 
ATOM     27  HN  UNK N   1      34.198  13.257  11.433  1.00  0.00     0.184 HD
HETATM   28  C   UNK N   1      36.109  14.037  13.874  0.00  0.00     0.076 A 
HETATM   29  C   UNK N   1      34.693  12.084  13.960  0.00  0.00     0.032 A 
HETATM   30  C   UNK N   1      36.624  13.803  15.145  0.00  0.00     0.032 A 
HETATM   31  C   UNK N   1      36.150  12.667  15.838  0.00  0.00     0.002 A 
HETATM   32  C   UNK N   1      35.189  11.813  15.247  0.00  0.00     0.002 A 
HETATM   33  H   UNK N   1      37.029  15.790  13.154  0.00  0.00     0.184 HD
HETATM   34  H   UNK N   1      36.127  16.383  10.678  0.00  0.00     0.178 HD
ENDBRANCH  21  22
ENDBRANCH   1  21
TORSDOF 4
ENDMDL
MODEL 2
REMARK VINA RESULT:      -7.9      2.229      3.553
REMARK  4 active torsions:
REMARK  status: ('A' for Active; 'I' for Inactive)
REMARK       I    between atoms: C_6  and  N_11 
REMARK    1  A    between atoms: N_11  and  C_12 
REMARK    2  A    between atoms: C_12  and  C_13 
REMARK    3  A    between atoms: C_15  and  C_18 
REMARK    4  A    between atoms: C_21  and  N_24 
REMARK       I    between atoms: C_26  and  N_27 
REMARK       I    between atoms: C_26  and  N_28 
ROOT
HETATM    1  C   UNK N   1      35.257  13.145  10.846  0.00  0.00     0.002 A 
HETATM    2  S   UNK N   1      34.762  14.697  10.745  0.00  0.00    -0.091 SA
HETATM    3  C   UNK N   1      33.794  14.607   9.425  0.00  0.00     0.032 A 
HETATM    4  C   UNK N   1      33.817  13.275   8.978  0.00  0.00     0.022 A 
HETATM    5  C   UNK N   1      34.656  12.437   9.793  0.00  0.00     0.018 A 
ENDROOT
BRANCH   3   6
HETATM    6  C   UNK N   1      33.091  15.784   8.913  0.00  0.00     0.058 A 
HETATM    7  N   UNK N   1      31.719  15.843   9.028  0.00  0.00    -0.335 N 
HETATM    8  C   UNK N   1      31.197  16.972   8.521  0.00  0.00     0.164 A 
ATOM      9  HN  UNK N   1      31.158  15.105   9.454  1.00  0.00     0.168 HD
HETATM   10  S   UNK N   1      32.426  17.911   7.924  0.00  0.00    -0.063 SA
HETATM   11  C   UNK N   1      33.699  16.896   8.296  0.00  0.00     0.084 A 
BRANCH   8  12
HETATM   12  N   UNK N   1      29.795  17.219   8.545  0.00  0.00    -0.171 N 
HETATM   13  C   UNK N   1      29.161  18.059   9.290  0.00  0.00     0.671 C 
HETATM   14  N   UNK N   1      27.759  18.161   9.168  0.00  0.00    -0.235 N 
HETATM   15  N   UNK N   1      29.835  18.877  10.224  0.00  0.00    -0.235 N 
HETATM   16  H   UNK N   1      27.261  18.798   9.731  0.00  0.00     0.174 HD
HETATM   17  H   UNK N   1      27.279  17.596   8.521  0.00  0.00     0.174 HD
HETATM   18  H   UNK N   1      30.813  18.815  10.318  0.00  0.00     0.174 HD
HETATM   19  H   UNK N   1      29.327  19.510  10.781  0.00  0.00     0.174 HD
ATOM     20  HN  UNK N   1      29.226  16.669   7.899  1.00  0.00     0.186 HD
ENDBRANCH   8  12
ENDBRANCH   3   6
BRANCH   1  21
HETATM   21  C   UNK N   1      36.182  12.741  11.931  0.00  0.00     0.184 C 
BRANCH  21  22
HETATM   22  N   UNK N   1      36.906  13.781  12.605  0.00  0.00    -0.221 N 
HETATM   23  C   UNK N   1      36.607  13.957  13.978  0.00  0.00     0.679 A 
HETATM   24  N   UNK N   1      35.690  13.192  14.626  0.00  0.00    -0.190 N 
HETATM   25  N   UNK N   1      37.191  14.887  14.772  0.00  0.00    -0.190 N 
HETATM   26  C   UNK N   1      35.705  13.665  15.875  0.00  0.00     0.076 A 
ATOM     27  HN  UNK N   1      35.123  12.433  14.247  1.00  0.00     0.184 HD
HETATM   28  C   UNK N   1      36.604  14.683  15.969  0.00  0.00     0.076 A 
HETATM   29  C   UNK N   1      34.946  13.232  16.955  0.00  0.00     0.032 A 
HETATM   30  C   UNK N   1      36.821  15.360  17.164  0.00  0.00     0.032 A 
HETATM   31  C   UNK N   1      36.071  14.950  18.288  0.00  0.00     0.002 A 
HETATM   32  C   UNK N   1      35.137  13.891  18.182  0.00  0.00     0.002 A 
HETATM   33  H   UNK N   1      37.878  15.551  14.534  0.00  0.00     0.184 HD
HETATM   34  H   UNK N   1      37.571  14.338  12.140  0.00  0.00     0.178 HD
ENDBRANCH  21  22
ENDBRANCH   1  21
TORSDOF 4
ENDMDL
MODEL 3
REMARK VINA RESULT:      -7.7      1.963     10.484
REMARK  4 active torsions:
REMARK  status: ('A' for Active; 'I' for Inactive)
REMARK       I    between atoms: C_6  and  N_11 
REMARK    1  A    between atoms: N_11  and  C_12 
REMARK    2  A    between atoms: C_12  and  C_13 
REMARK    3  A    between atoms: C_15  and  C_18 
REMARK    4  A    between atoms: C_21  and  N_24 
REMARK       I    between atoms: C_26  and  N_27 
REMARK       I    between atoms: C_26  and  N_28 
ROOT
HETATM    1  C   UNK N   1      31.986  16.777   8.162  0.00  0.00     0.002 A 
HETATM    2  S   UNK N   1      32.480  15.393   8.874  0.00  0.00    -0.091 SA
HETATM    3  C   UNK N   1      33.963  15.852   9.401  0.00  0.00     0.032 A 
HETATM    4  C   UNK N   1      34.148  17.192   9.019  0.00  0.00     0.022 A 
HETATM    5  C   UNK N   1      33.015  17.722   8.308  0.00  0.00     0.018 A 
ENDROOT
BRANCH   3   6
HETATM    6  C   UNK N   1      34.834  14.928  10.127  0.00  0.00     0.058 A 
HETATM    7  N   UNK N   1      35.366  15.324  11.335  0.00  0.00    -0.335 N 
HETATM    8  C   UNK N   1      36.146  14.387  11.899  0.00  0.00     0.164 A 
ATOM      9  HN  UNK N   1      35.185  16.235  11.758  1.00  0.00     0.168 HD
HETATM   10  S   UNK N   1      36.188  13.057  10.910  0.00  0.00    -0.063 SA
HETATM   11  C   UNK N   1      35.193  13.634   9.698  0.00  0.00     0.084 A 
BRANCH   8  12
HETATM   12  N   UNK N   1      36.787  14.608  13.152  0.00  0.00    -0.171 N 
HETATM   13  C   UNK N   1      36.437  14.143  14.302  0.00  0.00     0.671 C 
HETATM   14  N   UNK N   1      37.205  14.476  15.438  0.00  0.00    -0.235 N 
HETATM   15  N   UNK N   1      35.306  13.309  14.453  0.00  0.00    -0.235 N 
HETATM   16  H   UNK N   1      36.951  14.128  16.323  0.00  0.00     0.174 HD
HETATM   17  H   UNK N   1      37.995  15.056  15.345  0.00  0.00     0.174 HD
HETATM   18  H   UNK N   1      34.763  13.070  13.667  0.00  0.00     0.174 HD
HETATM   19  H   UNK N   1      35.062  12.968  15.343  0.00  0.00     0.174 HD
ATOM     20  HN  UNK N   1      37.617  15.202  13.137  1.00  0.00     0.186 HD
ENDBRANCH   8  12
ENDBRANCH   3   6
BRANCH   1  21
HETATM   21  C   UNK N   1      30.651  16.834   7.523  0.00  0.00     0.184 C 
BRANCH  21  22
HETATM   22  N   UNK N   1      29.675  17.710   8.106  0.00  0.00    -0.221 N 
HETATM   23  C   UNK N   1      28.840  18.404   7.195  0.00  0.00     0.679 A 
HETATM   24  N   UNK N   1      28.950  18.254   5.849  0.00  0.00    -0.190 N 
HETATM   25  N   UNK N   1      27.865  19.271   7.563  0.00  0.00    -0.190 N 
HETATM   26  C   UNK N   1      28.005  19.061   5.360  0.00  0.00     0.076 A 
ATOM     27  HN  UNK N   1      29.602  17.663   5.333  1.00  0.00     0.184 HD
HETATM   28  C   UNK N   1      27.350  19.674   6.384  0.00  0.00     0.076 A 
HETATM   29  C   UNK N   1      27.689  19.285   4.026  0.00  0.00     0.032 A 
HETATM   30  C   UNK N   1      26.313  20.572   6.156  0.00  0.00     0.032 A 
HETATM   31  C   UNK N   1      25.959  20.828   4.814  0.00  0.00     0.002 A 
HETATM   32  C   UNK N   1      26.645  20.187   3.754  0.00  0.00     0.002 A 
HETATM   33  H   UNK N   1      27.598  19.541   8.471  0.00  0.00     0.184 HD
HETATM   34  H   UNK N   1      29.591  17.822   9.080  0.00  0.00     0.178 HD
ENDBRANCH  21  22
ENDBRANCH   1  21
TORSDOF 4
ENDMDL
MODEL 4
REMARK VINA RESULT:      -7.6      3.101     11.431
REMARK  4 active torsions:
REMARK  status: ('A' for Active; 'I' for Inactive)
REMARK       I    between atoms: C_6  and  N_11 
REMARK    1  A    between atoms: N_11  and  C_12 
REMARK    2  A    between atoms: C_12  and  C_13 
REMARK    3  A    between atoms: C_15  and  C_18 
REMARK    4  A    between atoms: C_21  and  N_24 
REMARK       I    between atoms: C_26  and  N_27 
REMARK       I    between atoms: C_26  and  N_28 
ROOT
HETATM    1  C   UNK N   1      28.927  17.981   7.310  0.00  0.00     0.002 A 
HETATM    2  S   UNK N   1      30.222  17.082   6.886  0.00  0.00    -0.091 SA
HETATM    3  C   UNK N   1      31.226  17.412   8.139  0.00  0.00     0.032 A 
HETATM    4  C   UNK N   1      30.550  18.295   8.997  0.00  0.00     0.022 A 
HETATM    5  C   UNK N   1      29.231  18.621   8.523  0.00  0.00     0.018 A 
ENDROOT
BRANCH   3   6
HETATM    6  C   UNK N   1      32.563  16.823   8.220  0.00  0.00     0.058 A 
HETATM    7  N   UNK N   1      33.222  16.832   9.430  0.00  0.00    -0.335 N 
HETATM    8  C   UNK N   1      34.437  16.261   9.372  0.00  0.00     0.164 A 
ATOM      9  HN  UNK N   1      32.828  17.230  10.283  1.00  0.00     0.168 HD
HETATM   10  S   UNK N   1      34.711  15.739   7.822  0.00  0.00    -0.063 SA
HETATM   11  C   UNK N   1      33.262  16.229   7.150  0.00  0.00     0.084 A 
BRANCH   8  12
HETATM   12  N   UNK N   1      35.274  16.174  10.521  0.00  0.00    -0.171 N 
HETATM   13  C   UNK N   1      35.283  15.243  11.412  0.00  0.00     0.671 C 
HETATM   14  N   UNK N   1      36.193  15.333  12.487  0.00  0.00    -0.235 N 
HETATM   15  N   UNK N   1      34.406  14.138  11.341  0.00  0.00    -0.235 N 
HETATM   16  H   UNK N   1      36.212  14.629  13.176  0.00  0.00     0.174 HD
HETATM   17  H   UNK N   1      36.809  16.098  12.548  0.00  0.00     0.174 HD
HETATM   18  H   UNK N   1      33.766  14.065  10.595  0.00  0.00     0.174 HD
HETATM   19  H   UNK N   1      34.434  13.441  12.035  0.00  0.00     0.174 HD
ATOM     20  HN  UNK N   1      35.943  16.934  10.653  1.00  0.00     0.186 HD
ENDBRANCH   8  12
ENDBRANCH   3   6
BRANCH   1  21
HETATM   21  C   UNK N   1      27.728  17.992   6.440  0.00  0.00     0.184 C 
BRANCH  21  22
HETATM   22  N   UNK N   1      27.606  19.065   5.494  0.00  0.00    -0.221 N 
HETATM   23  C   UNK N   1      26.325  19.241   4.917  0.00  0.00     0.679 A 
HETATM   24  N   UNK N   1      25.269  18.447   5.233  0.00  0.00    -0.190 N 
HETATM   25  N   UNK N   1      26.024  20.200   4.007  0.00  0.00    -0.190 N 
HETATM   26  C   UNK N   1      24.271  18.932   4.490  0.00  0.00     0.076 A 
ATOM     27  HN  UNK N   1      25.244  17.663   5.886  1.00  0.00     0.184 HD
HETATM   28  C   UNK N   1      24.718  19.984   3.751  0.00  0.00     0.076 A 
HETATM   29  C   UNK N   1      22.958  18.479   4.432  0.00  0.00     0.032 A 
HETATM   30  C   UNK N   1      23.881  20.679   2.885  0.00  0.00     0.032 A 
HETATM   31  C   UNK N   1      22.539  20.251   2.796  0.00  0.00     0.002 A 
HETATM   32  C   UNK N   1      22.081  19.155   3.567  0.00  0.00     0.002 A 
HETATM   33  H   UNK N   1      26.616  20.888   3.625  0.00  0.00     0.184 HD
HETATM   34  H   UNK N   1      28.368  19.643   5.262  0.00  0.00     0.178 HD
ENDBRANCH  21  22
ENDBRANCH   1  21
TORSDOF 4
ENDMDL
MODEL 5
REMARK VINA RESULT:      -7.6      1.226      1.677
REMARK  4 active torsions:
REMARK  status: ('A' for Active; 'I' for Inactive)
REMARK       I    between atoms: C_6  and  N_11 
REMARK    1  A    between atoms: N_11  and  C_12 
REMARK    2  A    between atoms: C_12  and  C_13 
REMARK    3  A    between atoms: C_15  and  C_18 
REMARK    4  A    between atoms: C_21  and  N_24 
REMARK       I    between atoms: C_26  and  N_27 
REMARK       I    between atoms: C_26  and  N_28 
ROOT
HETATM    1  C   UNK N   1      34.135  15.130   9.766  0.00  0.00     0.002 A 
HETATM    2  S   UNK N   1      32.734  14.793   8.999  0.00  0.00    -0.091 SA
HETATM    3  C   UNK N   1      32.432  16.245   8.299  0.00  0.00     0.032 A 
HETATM    4  C   UNK N   1      33.480  17.110   8.657  0.00  0.00     0.022 A 
HETATM    5  C   UNK N   1      34.457  16.470   9.498  0.00  0.00     0.018 A 
ENDROOT
BRANCH   3   6
HETATM    6  C   UNK N   1      31.243  16.460   7.473  0.00  0.00     0.058 A 
HETATM    7  N   UNK N   1      30.463  17.572   7.706  0.00  0.00    -0.335 N 
HETATM    8  C   UNK N   1      29.405  17.654   6.883  0.00  0.00     0.164 A 
ATOM      9  HN  UNK N   1      30.668  18.262   8.429  1.00  0.00     0.168 HD
HETATM   10  S   UNK N   1      29.422  16.352   5.856  0.00  0.00    -0.063 SA
HETATM   11  C   UNK N   1      30.807  15.617   6.432  0.00  0.00     0.084 A 
BRANCH   8  12
HETATM   12  N   UNK N   1      28.479  18.732   6.967  0.00  0.00    -0.171 N 
HETATM   13  C   UNK N   1      27.728  19.043   7.967  0.00  0.00     0.671 C 
HETATM   14  N   UNK N   1      26.868  20.156   7.860  0.00  0.00    -0.235 N 
HETATM   15  N   UNK N   1      27.745  18.297   9.167  0.00  0.00    -0.235 N 
HETATM   16  H   UNK N   1      26.289  20.405   8.616  0.00  0.00     0.174 HD
HETATM   17  H   UNK N   1      26.847  20.683   7.029  0.00  0.00     0.174 HD
HETATM   18  H   UNK N   1      28.342  17.517   9.254  0.00  0.00     0.174 HD
HETATM   19  H   UNK N   1      27.162  18.556   9.917  0.00  0.00     0.174 HD
ATOM     20  HN  UNK N   1      28.400  19.327   6.140  1.00  0.00     0.186 HD
ENDBRANCH   8  12
ENDBRANCH   3   6
BRANCH   1  21
HETATM   21  C   UNK N   1      34.806  14.074  10.560  0.00  0.00     0.184 C 
BRANCH  21  22
HETATM   22  N   UNK N   1      35.429  14.466  11.792  0.00  0.00    -0.221 N 
HETATM   23  C   UNK N   1      35.270  13.573  12.880  0.00  0.00     0.679 A 
HETATM   24  N   UNK N   1      34.571  12.414  12.773  0.00  0.00    -0.190 N 
HETATM   25  N   UNK N   1      35.787  13.779  14.116  0.00  0.00    -0.190 N 
HETATM   26  C   UNK N   1      34.657  11.875  13.992  0.00  0.00     0.076 A 
ATOM     27  HN  UNK N   1      34.093  12.041  11.953  1.00  0.00     0.184 HD
HETATM   28  C   UNK N   1      35.386  12.691  14.803  0.00  0.00     0.076 A 
HETATM   29  C   UNK N   1      34.111  10.675  14.430  0.00  0.00     0.032 A 
HETATM   30  C   UNK N   1      35.632  12.369  16.134  0.00  0.00     0.032 A 
HETATM   31  C   UNK N   1      35.095  11.157  16.619  0.00  0.00     0.002 A 
HETATM   32  C   UNK N   1      34.338  10.314  15.770  0.00  0.00     0.002 A 
HETATM   33  H   UNK N   1      36.325  14.539  14.436  0.00  0.00     0.184 HD
HETATM   34  H   UNK N   1      35.936  15.306  11.875  0.00  0.00     0.178 HD
ENDBRANCH  21  22
ENDBRANCH   1  21
TORSDOF 4
ENDMDL
MODEL 6
REMARK VINA RESULT:      -7.4      2.489     10.198
REMARK  4 active torsions:
REMARK  status: ('A' for Active; 'I' for Inactive)
REMARK       I    between atoms: C_6  and  N_11 
REMARK    1  A    between atoms: N_11  and  C_12 
REMARK    2  A    between atoms: C_12  and  C_13 
REMARK    3  A    between atoms: C_15  and  C_18 
REMARK    4  A    between atoms: C_21  and  N_24 
REMARK       I    between atoms: C_26  and  N_27 
REMARK       I    between atoms: C_26  and  N_28 
ROOT
HETATM    1  C   UNK N   1      31.963  15.928   6.468  0.00  0.00     0.002 A 
HETATM    2  S   UNK N   1      32.749  14.858   7.417  0.00  0.00    -0.091 SA
HETATM    3  C   UNK N   1      34.199  15.610   7.561  0.00  0.00     0.032 A 
HETATM    4  C   UNK N   1      34.127  16.806   6.828  0.00  0.00     0.022 A 
HETATM    5  C   UNK N   1      32.844  16.989   6.201  0.00  0.00     0.018 A 
ENDROOT
BRANCH   3   6
HETATM    6  C   UNK N   1      35.286  15.024   8.346  0.00  0.00     0.058 A 
HETATM    7  N   UNK N   1      35.425  15.390   9.668  0.00  0.00    -0.335 N 
HETATM    8  C   UNK N   1      36.459  14.784  10.275  0.00  0.00     0.164 A 
ATOM      9  HN  UNK N   1      34.807  16.053  10.136  1.00  0.00     0.168 HD
HETATM   10  S   UNK N   1      37.213  13.788   9.185  0.00  0.00    -0.063 SA
HETATM   11  C   UNK N   1      36.232  14.096   7.868  0.00  0.00     0.084 A 
BRANCH   8  12
HETATM   12  N   UNK N   1      36.767  15.032  11.643  0.00  0.00    -0.171 N 
HETATM   13  C   UNK N   1      36.245  14.466  12.677  0.00  0.00     0.671 C 
HETATM   14  N   UNK N   1      36.685  14.849  13.962  0.00  0.00    -0.235 N 
HETATM   15  N   UNK N   1      35.246  13.475  12.556  0.00  0.00    -0.235 N 
HETATM   16  H   UNK N   1      36.295  14.425  14.762  0.00  0.00     0.174 HD
HETATM   17  H   UNK N   1      37.380  15.538  14.060  0.00  0.00     0.174 HD
HETATM   18  H   UNK N   1      34.931  13.199  11.664  0.00  0.00     0.174 HD
HETATM   19  H   UNK N   1      34.864  13.059  13.362  0.00  0.00     0.174 HD
ATOM     20  HN  UNK N   1      37.482  15.737  11.826  1.00  0.00     0.186 HD
ENDBRANCH   8  12
ENDBRANCH   3   6
BRANCH   1  21
HETATM   21  C   UNK N   1      30.564  15.656   6.062  0.00  0.00     0.184 C 
BRANCH  21  22
HETATM   22  N   UNK N   1      30.081  16.303   4.875  0.00  0.00    -0.221 N 
HETATM   23  C   UNK N   1      29.266  17.444   5.078  0.00  0.00     0.679 A 
HETATM   24  N   UNK N   1      28.954  17.905   6.317  0.00  0.00    -0.190 N 
HETATM   25  N   UNK N   1      28.722  18.179   4.077  0.00  0.00    -0.190 N 
HETATM   26  C   UNK N   1      28.186  18.970   6.078  0.00  0.00     0.076 A 
ATOM     27  HN  UNK N   1      29.241  17.525   7.220  1.00  0.00     0.184 HD
HETATM   28  C   UNK N   1      28.043  19.140   4.735  0.00  0.00     0.076 A 
HETATM   29  C   UNK N   1      27.594  19.815   7.009  0.00  0.00     0.032 A 
HETATM   30  C   UNK N   1      27.287  20.181   4.205  0.00  0.00     0.032 A 
HETATM   31  C   UNK N   1      26.668  21.063   5.117  0.00  0.00     0.002 A 
HETATM   32  C   UNK N   1      26.822  20.880   6.512  0.00  0.00     0.002 A 
HETATM   33  H   UNK N   1      28.803  18.044   3.105  0.00  0.00     0.184 HD
HETATM   34  H   UNK N   1      30.303  15.973   3.975  0.00  0.00     0.178 HD
ENDBRANCH  21  22
ENDBRANCH   1  21
TORSDOF 4
ENDMDL
MODEL 7
REMARK VINA RESULT:      -7.4      1.941      2.773
REMARK  4 active torsions:
REMARK  status: ('A' for Active; 'I' for Inactive)
REMARK       I    between atoms: C_6  and  N_11 
REMARK    1  A    between atoms: N_11  and  C_12 
REMARK    2  A    between atoms: C_12  and  C_13 
REMARK    3  A    between atoms: C_15  and  C_18 
REMARK    4  A    between atoms: C_21  and  N_24 
REMARK       I    between atoms: C_26  and  N_27 
REMARK       I    between atoms: C_26  and  N_28 
ROOT
HETATM    1  C   UNK N   1      35.317  14.795  10.215  0.00  0.00     0.002 A 
HETATM    2  S   UNK N   1      34.476  16.042   9.582  0.00  0.00    -0.091 SA
HETATM    3  C   UNK N   1      33.467  15.229   8.577  0.00  0.00     0.032 A 
HETATM    4  C   UNK N   1      33.763  13.862   8.701  0.00  0.00     0.022 A 
HETATM    5  C   UNK N   1      34.824  13.612   9.640  0.00  0.00     0.018 A 
ENDROOT
BRANCH   3   6
HETATM    6  C   UNK N   1      32.481  15.932   7.755  0.00  0.00     0.058 A 
HETATM    7  N   UNK N   1      31.294  16.329   8.332  0.00  0.00    -0.335 N 
HETATM    8  C   UNK N   1      30.478  16.962   7.473  0.00  0.00     0.164 A 
ATOM      9  HN  UNK N   1      31.060  16.161   9.311  1.00  0.00     0.168 HD
HETATM   10  S   UNK N   1      31.214  17.037   5.990  0.00  0.00    -0.063 SA
HETATM   11  C   UNK N   1      32.632  16.250   6.390  0.00  0.00     0.084 A 
BRANCH   8  12
HETATM   12  N   UNK N   1      29.203  17.450   7.881  0.00  0.00    -0.171 N 
HETATM   13  C   UNK N   1      28.941  18.203   8.894  0.00  0.00     0.671 C 
HETATM   14  N   UNK N   1      27.605  18.584   9.136  0.00  0.00    -0.235 N 
HETATM   15  N   UNK N   1      29.957  18.654   9.765  0.00  0.00    -0.235 N 
HETATM   16  H   UNK N   1      27.389  19.159   9.906  0.00  0.00     0.174 HD
HETATM   17  H   UNK N   1      26.888  18.276   8.535  0.00  0.00     0.174 HD
HETATM   18  H   UNK N   1      30.894  18.394   9.606  0.00  0.00     0.174 HD
HETATM   19  H   UNK N   1      29.729  19.228  10.532  0.00  0.00     0.174 HD
ATOM     20  HN  UNK N   1      28.407  17.172   7.305  1.00  0.00     0.186 HD
ENDBRANCH   8  12
ENDBRANCH   3   6
BRANCH   1  21
HETATM   21  C   UNK N   1      36.381  15.062  11.212  0.00  0.00     0.184 C 
BRANCH  21  22
HETATM   22  N   UNK N   1      37.170  13.947  11.652  0.00  0.00    -0.221 N 
HETATM   23  C   UNK N   1      36.785  13.362  12.884  0.00  0.00     0.679 A 
HETATM   24  N   UNK N   1      35.734  13.821  13.610  0.00  0.00    -0.190 N 
HETATM   25  N   UNK N   1      37.413  12.304  13.454  0.00  0.00    -0.190 N 
HETATM   26  C   UNK N   1      35.706  13.017  14.675  0.00  0.00     0.076 A 
ATOM     27  HN  UNK N   1      35.111  14.599  13.392  1.00  0.00     0.184 HD
HETATM   28  C   UNK N   1      36.711  12.104  14.588  0.00  0.00     0.076 A 
HETATM   29  C   UNK N   1      34.816  13.053  15.742  0.00  0.00     0.032 A 
HETATM   30  C   UNK N   1      36.913  11.140  15.570  0.00  0.00     0.032 A 
HETATM   31  C   UNK N   1      36.031  11.142  16.672  0.00  0.00     0.002 A 
HETATM   32  C   UNK N   1      34.987  12.094  16.756  0.00  0.00     0.002 A 
HETATM   33  H   UNK N   1      38.193  11.803  13.121  0.00  0.00     0.184 HD
HETATM   34  H   UNK N   1      37.934  13.610  11.130  0.00  0.00     0.178 HD
ENDBRANCH  21  22
ENDBRANCH   1  21
TORSDOF 4
ENDMDL
MODEL 8
REMARK VINA RESULT:      -7.3      4.849     11.160
REMARK  4 active torsions:
REMARK  status: ('A' for Active; 'I' for Inactive)
REMARK       I    between atoms: C_6  and  N_11 
REMARK    1  A    between atoms: N_11  and  C_12 
REMARK    2  A    between atoms: C_12  and  C_13 
REMARK    3  A    between atoms: C_15  and  C_18 
REMARK    4  A    between atoms: C_21  and  N_24 
REMARK       I    between atoms: C_26  and  N_27 
REMARK       I    between atoms: C_26  and  N_28 
ROOT
HETATM    1  C   UNK N   1      36.106  13.931  13.352  0.00  0.00     0.002 A 
HETATM    2  S   UNK N   1      35.774  12.411  13.845  0.00  0.00    -0.091 SA
HETATM    3  C   UNK N   1      36.287  12.493  15.400  0.00  0.00     0.032 A 
HETATM    4  C   UNK N   1      36.770  13.795  15.615  0.00  0.00     0.022 A 
HETATM    5  C   UNK N   1      36.667  14.619  14.440  0.00  0.00     0.018 A 
ENDROOT
BRANCH   3   6
HETATM    6  C   UNK N   1      36.197  11.338  16.295  0.00  0.00     0.058 A 
HETATM    7  N   UNK N   1      35.457  11.449  17.452  0.00  0.00    -0.335 N 
HETATM    8  C   UNK N   1      35.454  10.322  18.184  0.00  0.00     0.164 A 
ATOM      9  HN  UNK N   1      34.963  12.298  17.725  1.00  0.00     0.168 HD
HETATM   10  S   UNK N   1      36.367   9.176  17.407  0.00  0.00    -0.063 SA
HETATM   11  C   UNK N   1      36.811  10.088  16.080  0.00  0.00     0.084 A 
BRANCH   8  12
HETATM   12  N   UNK N   1      34.746  10.237  19.416  0.00  0.00    -0.171 N 
HETATM   13  C   UNK N   1      35.159  10.597  20.583  0.00  0.00     0.671 C 
HETATM   14  N   UNK N   1      34.305  10.432  21.693  0.00  0.00    -0.235 N 
HETATM   15  N   UNK N   1      36.445  11.150  20.776  0.00  0.00    -0.235 N 
HETATM   16  H   UNK N   1      34.607  10.702  22.591  0.00  0.00     0.174 HD
HETATM   17  H   UNK N   1      33.407  10.048  21.571  0.00  0.00     0.174 HD
HETATM   18  H   UNK N   1      37.050  11.270  20.008  0.00  0.00     0.174 HD
HETATM   19  H   UNK N   1      36.736  11.416  21.678  0.00  0.00     0.174 HD
ATOM     20  HN  UNK N   1      33.803   9.847  19.371  1.00  0.00     0.186 HD
ENDBRANCH   8  12
ENDBRANCH   3   6
BRANCH   1  21
HETATM   21  C   UNK N   1      35.799  14.332  11.959  0.00  0.00     0.184 C 
BRANCH  21  22
HETATM   22  N   UNK N   1      35.355  15.679  11.740  0.00  0.00    -0.221 N 
HETATM   23  C   UNK N   1      35.021  16.013  10.404  0.00  0.00     0.679 A 
HETATM   24  N   UNK N   1      35.113  15.119   9.386  0.00  0.00    -0.190 N 
HETATM   25  N   UNK N   1      34.585  17.235  10.010  0.00  0.00    -0.190 N 
HETATM   26  C   UNK N   1      34.718  15.812   8.315  0.00  0.00     0.076 A 
ATOM     27  HN  UNK N   1      35.414  14.145   9.429  1.00  0.00     0.184 HD
HETATM   28  C   UNK N   1      34.399  17.084   8.684  0.00  0.00     0.076 A 
HETATM   29  C   UNK N   1      34.623  15.366   7.003  0.00  0.00     0.032 A 
HETATM   30  C   UNK N   1      33.955  18.024   7.761  0.00  0.00     0.032 A 
HETATM   31  C   UNK N   1      33.845  17.611   6.415  0.00  0.00     0.002 A 
HETATM   32  C   UNK N   1      34.178  16.287   6.039  0.00  0.00     0.002 A 
HETATM   33  H   UNK N   1      34.439  18.039  10.560  0.00  0.00     0.184 HD
HETATM   34  H   UNK N   1      35.287  16.331  12.474  0.00  0.00     0.178 HD
ENDBRANCH  21  22
ENDBRANCH   1  21
TORSDOF 4
ENDMDL
MODEL 9
REMARK VINA RESULT:      -7.3      2.386      2.762
REMARK  4 active torsions:
REMARK  status: ('A' for Active; 'I' for Inactive)
REMARK       I    between atoms: C_6  and  N_11 
REMARK    1  A    between atoms: N_11  and  C_12 
REMARK    2  A    between atoms: C_12  and  C_13 
REMARK    3  A    between atoms: C_15  and  C_18 
REMARK    4  A    between atoms: C_21  and  N_24 
REMARK       I    between atoms: C_26  and  N_27 
REMARK       I    between atoms: C_26  and  N_28 
ROOT
HETATM    1  C   UNK N   1      34.727  15.824   9.487  0.00  0.00     0.002 A 
HETATM    2  S   UNK N   1      33.264  15.305   8.983  0.00  0.00    -0.091 SA
HETATM    3  C   UNK N   1      32.636  16.711   8.421  0.00  0.00     0.032 A 
HETATM    4  C   UNK N   1      33.603  17.711   8.616  0.00  0.00     0.022 A 
HETATM    5  C   UNK N   1      34.803  17.202   9.227  0.00  0.00     0.018 A 
ENDROOT
BRANCH   3   6
HETATM    6  C   UNK N   1      31.292  16.769   7.845  0.00  0.00     0.058 A 
HETATM    7  N   UNK N   1      31.043  16.098   6.668  0.00  0.00    -0.335 N 
HETATM    8  C   UNK N   1      29.774  16.230   6.245  0.00  0.00     0.164 A 
ATOM      9  HN  UNK N   1      31.749  15.556   6.169  1.00  0.00     0.168 HD
HETATM   10  S   UNK N   1      28.946  17.179   7.323  0.00  0.00    -0.063 SA
HETATM   11  C   UNK N   1      30.196  17.466   8.393  0.00  0.00     0.084 A 
BRANCH   8  12
HETATM   12  N   UNK N   1      29.321  15.609   5.046  0.00  0.00    -0.171 N 
HETATM   13  C   UNK N   1      29.350  16.097   3.853  0.00  0.00     0.671 C 
HETATM   14  N   UNK N   1      28.850  15.324   2.785  0.00  0.00    -0.235 N 
HETATM   15  N   UNK N   1      29.868  17.386   3.591  0.00  0.00    -0.235 N 
HETATM   16  H   UNK N   1      28.865  15.683   1.868  0.00  0.00     0.174 HD
HETATM   17  H   UNK N   1      28.487  14.425   2.955  0.00  0.00     0.174 HD
HETATM   18  H   UNK N   1      30.219  17.935   4.329  0.00  0.00     0.174 HD
HETATM   19  H   UNK N   1      29.877  17.734   2.670  0.00  0.00     0.174 HD
ATOM     20  HN  UNK N   1      28.929  14.671   5.142  1.00  0.00     0.186 HD
ENDBRANCH   8  12
ENDBRANCH   3   6
BRANCH   1  21
HETATM   21  C   UNK N   1      35.677  14.861  10.091  0.00  0.00     0.184 C 
BRANCH  21  22
HETATM   22  N   UNK N   1      36.360  15.264  11.286  0.00  0.00    -0.221 N 
HETATM   23  C   UNK N   1      36.083  14.502  12.448  0.00  0.00     0.679 A 
HETATM   24  N   UNK N   1      35.224  13.450  12.439  0.00  0.00    -0.190 N 
HETATM   25  N   UNK N   1      36.635  14.736  13.663  0.00  0.00    -0.190 N 
HETATM   26  C   UNK N   1      35.241  13.013  13.701  0.00  0.00     0.076 A 
ATOM     27  HN  UNK N   1      34.689  13.081  11.652  1.00  0.00     0.184 HD
HETATM   28  C   UNK N   1      36.087  13.781  14.441  0.00  0.00     0.076 A 
HETATM   29  C   UNK N   1      34.531  11.946  14.239  0.00  0.00     0.032 A 
HETATM   30  C   UNK N   1      36.295  13.544  15.795  0.00  0.00     0.032 A 
HETATM   31  C   UNK N   1      35.593  12.469  16.382  0.00  0.00     0.002 A 
HETATM   32  C   UNK N   1      34.715  11.674  15.606  0.00  0.00     0.002 A 
HETATM   33  H   UNK N   1      37.280  15.436  13.918  0.00  0.00     0.184 HD
HETATM   34  H   UNK N   1      36.984  16.026  11.298  0.00  0.00     0.178 HD
ENDBRANCH  21  22
ENDBRANCH   1  21
TORSDOF 4
ENDMDL
