MODEL 1
REMARK VINA RESULT:      -6.4      0.000      0.000
REMARK  7 active torsions:
REMARK  status: ('A' for Active; 'I' for Inactive)
REMARK    1  A    between atoms: C_10  and  N_2 
REMARK    2  A    between atoms: C_6  and  C_7 
REMARK       I    between atoms: C_7  and  N_9 
REMARK    3  A    between atoms: C_10  and  C_11 
REMARK    4  A    between atoms: C_10  and  C_13 
REMARK    5  A    between atoms: C_11  and  O_12 
REMARK    6  A    between atoms: C_13  and  C_14 
REMARK    7  A    between atoms: C_14  and  C_15 
ROOT
HETATM    1  C   UNK N   1      36.260  12.568  13.302  0.00  0.00     0.114 C 
ENDROOT
BRANCH   1   2
HETATM    2  N   UNK N   1      36.279  13.561  12.221  0.00  0.00    -0.344 N 
HETATM    3  C   UNK N   1      35.406  14.565  12.026  0.00  0.00     0.127 A 
HETATM    4  C   UNK N   1      35.869  15.301  10.959  0.00  0.00     0.117 A 
HETATM    5  N   UNK N   1      37.010  14.757  10.491  0.00  0.00    -0.347 N 
HETATM    6  C   UNK N   1      37.244  13.692  11.286  0.00  0.00     0.183 A 
ATOM      7  HN  UNK N   1      37.573  15.080   9.705  1.00  0.00     0.167 HD
BRANCH   4   8
HETATM    8  C   UNK N   1      35.258  16.532  10.438  0.00  0.00     0.267 C 
HETATM    9  O   UNK N   1      35.886  17.581  10.452  0.00  0.00    -0.266 OA
HETATM   10  N   UNK N   1      33.994  16.519   9.972  0.00  0.00    -0.365 N 
HETATM   11  H   UNK N   1      33.453  15.697  10.002  0.00  0.00     0.159 HD
HETATM   12  H   UNK N   1      33.606  17.341   9.595  0.00  0.00     0.159 HD
ENDBRANCH   4   8
ENDBRANCH   1   2
BRANCH   1  13
HETATM   13  C   UNK N   1      37.453  11.610  13.185  0.00  0.00     0.189 C 
BRANCH  13  14
HETATM   14  O   UNK N   1      38.332  11.753  14.258  0.00  0.00    -0.399 OA
HETATM   15  H   UNK N   1      39.146  11.228  14.292  0.00  0.00     0.209 HD
ENDBRANCH  13  14
ENDBRANCH   1  13
BRANCH   1  16
HETATM   16  C   UNK N   1      36.265  13.268  14.663  0.00  0.00     0.032 C 
BRANCH  16  17
HETATM   17  C   UNK N   1      34.966  12.991  15.424  0.00  0.00     0.041 C 
BRANCH  17  18
HETATM   18  C   UNK N   1      35.189  12.525  16.836  0.00  0.00    -0.058 A 
HETATM   19  C   UNK N   1      35.030  13.440  17.885  0.00  0.00     0.007 A 
HETATM   20  C   UNK N   1      35.217  13.032  19.210  0.00  0.00     0.001 A 
HETATM   21  C   UNK N   1      35.557  11.707  19.494  0.00  0.00     0.000 A 
HETATM   22  C   UNK N   1      35.715  10.788  18.454  0.00  0.00     0.001 A 
HETATM   23  C   UNK N   1      35.534  11.196  17.129  0.00  0.00     0.007 A 
ENDBRANCH  17  18
ENDBRANCH  16  17
ENDBRANCH   1  16
TORSDOF 7
ENDMDL
MODEL 2
REMARK VINA RESULT:      -6.4      1.673      2.074
REMARK  7 active torsions:
REMARK  status: ('A' for Active; 'I' for Inactive)
REMARK    1  A    between atoms: C_10  and  N_2 
REMARK    2  A    between atoms: C_6  and  C_7 
REMARK       I    between atoms: C_7  and  N_9 
REMARK    3  A    between atoms: C_10  and  C_11 
REMARK    4  A    between atoms: C_10  and  C_13 
REMARK    5  A    between atoms: C_11  and  O_12 
REMARK    6  A    between atoms: C_13  and  C_14 
REMARK    7  A    between atoms: C_14  and  C_15 
ROOT
HETATM    1  C   UNK N   1      34.833  12.212  13.110  0.00  0.00     0.114 C 
ENDROOT
BRANCH   1   2
HETATM    2  N   UNK N   1      35.254  13.490  12.524  0.00  0.00    -0.344 N 
HETATM    3  C   UNK N   1      34.645  14.169  11.536  0.00  0.00     0.127 A 
HETATM    4  C   UNK N   1      35.326  15.355  11.382  0.00  0.00     0.117 A 
HETATM    5  N   UNK N   1      36.350  15.410  12.257  0.00  0.00    -0.347 N 
HETATM    6  C   UNK N   1      36.282  14.254  12.952  0.00  0.00     0.183 A 
ATOM      7  HN  UNK N   1      37.030  16.161  12.370  1.00  0.00     0.167 HD
BRANCH   4   8
HETATM    8  C   UNK N   1      34.966  16.437  10.455  0.00  0.00     0.267 C 
HETATM    9  O   UNK N   1      35.663  17.437  10.379  0.00  0.00    -0.266 OA
HETATM   10  N   UNK N   1      33.848  16.346   9.707  0.00  0.00    -0.365 N 
HETATM   11  H   UNK N   1      33.243  15.573   9.793  0.00  0.00     0.159 HD
HETATM   12  H   UNK N   1      33.633  17.061   9.066  0.00  0.00     0.159 HD
ENDBRANCH   4   8
ENDBRANCH   1   2
BRANCH   1  13
HETATM   13  C   UNK N   1      34.796  11.109  12.044  0.00  0.00     0.189 C 
BRANCH  13  14
HETATM   14  O   UNK N   1      33.529  10.534  11.945  0.00  0.00    -0.399 OA
HETATM   15  H   UNK N   1      32.785  11.054  11.604  0.00  0.00     0.209 HD
ENDBRANCH  13  14
ENDBRANCH   1  13
BRANCH   1  16
HETATM   16  C   UNK N   1      35.770  11.820  14.255  0.00  0.00     0.032 C 
BRANCH  16  17
HETATM   17  C   UNK N   1      35.018  11.031  15.330  0.00  0.00     0.041 C 
BRANCH  17  18
HETATM   18  C   UNK N   1      35.105  11.652  16.697  0.00  0.00    -0.058 A 
HETATM   19  C   UNK N   1      35.307  10.823  17.807  0.00  0.00     0.007 A 
HETATM   20  C   UNK N   1      35.407  11.372  19.089  0.00  0.00     0.001 A 
HETATM   21  C   UNK N   1      35.313  12.755  19.268  0.00  0.00     0.000 A 
HETATM   22  C   UNK N   1      35.113  13.590  18.166  0.00  0.00     0.001 A 
HETATM   23  C   UNK N   1      35.008  13.041  16.885  0.00  0.00     0.007 A 
ENDBRANCH  17  18
ENDBRANCH  16  17
ENDBRANCH   1  16
TORSDOF 7
ENDMDL
MODEL 3
REMARK VINA RESULT:      -6.3     20.392     24.496
REMARK  7 active torsions:
REMARK  status: ('A' for Active; 'I' for Inactive)
REMARK    1  A    between atoms: C_10  and  N_2 
REMARK    2  A    between atoms: C_6  and  C_7 
REMARK       I    between atoms: C_7  and  N_9 
REMARK    3  A    between atoms: C_10  and  C_11 
REMARK    4  A    between atoms: C_10  and  C_13 
REMARK    5  A    between atoms: C_11  and  O_12 
REMARK    6  A    between atoms: C_13  and  C_14 
REMARK    7  A    between atoms: C_14  and  C_15 
ROOT
HETATM    1  C   UNK N   1      26.816  24.230  -6.054  0.00  0.00     0.114 C 
ENDROOT
BRANCH   1   2
HETATM    2  N   UNK N   1      27.498  23.942  -4.786  0.00  0.00    -0.344 N 
HETATM    3  C   UNK N   1      28.775  23.553  -4.622  0.00  0.00     0.127 A 
HETATM    4  C   UNK N   1      29.010  23.500  -3.267  0.00  0.00     0.117 A 
HETATM    5  N   UNK N   1      27.891  23.840  -2.597  0.00  0.00    -0.347 N 
HETATM    6  C   UNK N   1      26.977  24.113  -3.553  0.00  0.00     0.183 A 
ATOM      7  HN  UNK N   1      27.762  23.883  -1.586  1.00  0.00     0.167 HD
BRANCH   4   8
HETATM    8  C   UNK N   1      30.297  23.183  -2.632  0.00  0.00     0.267 C 
HETATM    9  O   UNK N   1      30.362  23.034  -1.421  0.00  0.00    -0.266 OA
HETATM   10  N   UNK N   1      31.416  23.087  -3.376  0.00  0.00    -0.365 N 
HETATM   11  H   UNK N   1      31.395  23.257  -4.346  0.00  0.00     0.159 HD
HETATM   12  H   UNK N   1      32.267  22.843  -2.945  0.00  0.00     0.159 HD
ENDBRANCH   4   8
ENDBRANCH   1   2
BRANCH   1  13
HETATM   13  C   UNK N   1      26.375  22.933  -6.744  0.00  0.00     0.189 C 
BRANCH  13  14
HETATM   14  O   UNK N   1      25.054  22.610  -6.431  0.00  0.00    -0.399 OA
HETATM   15  H   UNK N   1      24.331  23.187  -6.722  0.00  0.00     0.209 HD
ENDBRANCH  13  14
ENDBRANCH   1  13
BRANCH   1  16
HETATM   16  C   UNK N   1      25.614  25.145  -5.811  0.00  0.00     0.032 C 
BRANCH  16  17
HETATM   17  C   UNK N   1      25.723  26.422  -6.649  0.00  0.00     0.041 C 
BRANCH  17  18
HETATM   18  C   UNK N   1      26.224  27.606  -5.869  0.00  0.00    -0.058 A 
HETATM   19  C   UNK N   1      25.625  27.912  -4.640  0.00  0.00     0.007 A 
HETATM   20  C   UNK N   1      26.080  28.998  -3.885  0.00  0.00     0.001 A 
HETATM   21  C   UNK N   1      27.140  29.781  -4.351  0.00  0.00     0.000 A 
HETATM   22  C   UNK N   1      27.744  29.482  -5.575  0.00  0.00     0.001 A 
HETATM   23  C   UNK N   1      27.287  28.399  -6.332  0.00  0.00     0.007 A 
ENDBRANCH  17  18
ENDBRANCH  16  17
ENDBRANCH   1  16
TORSDOF 7
ENDMDL
MODEL 4
REMARK VINA RESULT:      -6.3      8.328     12.793
REMARK  7 active torsions:
REMARK  status: ('A' for Active; 'I' for Inactive)
REMARK    1  A    between atoms: C_10  and  N_2 
REMARK    2  A    between atoms: C_6  and  C_7 
REMARK       I    between atoms: C_7  and  N_9 
REMARK    3  A    between atoms: C_10  and  C_11 
REMARK    4  A    between atoms: C_10  and  C_13 
REMARK    5  A    between atoms: C_11  and  O_12 
REMARK    6  A    between atoms: C_13  and  C_14 
REMARK    7  A    between atoms: C_14  and  C_15 
ROOT
HETATM    1  C   UNK N   1      29.024  17.420   7.719  0.00  0.00     0.114 C 
ENDROOT
BRANCH   1   2
HETATM    2  N   UNK N   1      30.471  17.473   7.477  0.00  0.00    -0.344 N 
HETATM    3  C   UNK N   1      31.424  17.859   8.344  0.00  0.00     0.127 A 
HETATM    4  C   UNK N   1      32.637  17.650   7.729  0.00  0.00     0.117 A 
HETATM    5  N   UNK N   1      32.441  17.150   6.493  0.00  0.00    -0.347 N 
HETATM    6  C   UNK N   1      31.101  17.045   6.363  0.00  0.00     0.183 A 
ATOM      7  HN  UNK N   1      33.152  16.904   5.804  1.00  0.00     0.167 HD
BRANCH   4   8
HETATM    8  C   UNK N   1      33.956  17.873   8.337  0.00  0.00     0.267 C 
HETATM    9  O   UNK N   1      34.803  18.523   7.743  0.00  0.00    -0.266 OA
HETATM   10  N   UNK N   1      34.250  17.336   9.537  0.00  0.00    -0.365 N 
HETATM   11  H   UNK N   1      33.602  16.763  10.008  0.00  0.00     0.159 HD
HETATM   12  H   UNK N   1      35.125  17.518   9.951  0.00  0.00     0.159 HD
ENDBRANCH   4   8
ENDBRANCH   1   2
BRANCH   1  13
HETATM   13  C   UNK N   1      28.607  18.459   8.768  0.00  0.00     0.189 C 
BRANCH  13  14
HETATM   14  O   UNK N   1      27.452  18.068   9.446  0.00  0.00    -0.399 OA
HETATM   15  H   UNK N   1      26.835  18.738   9.779  0.00  0.00     0.209 HD
ENDBRANCH  13  14
ENDBRANCH   1  13
BRANCH   1  16
HETATM   16  C   UNK N   1      28.261  17.644   6.411  0.00  0.00     0.032 C 
BRANCH  16  17
HETATM   17  C   UNK N   1      27.967  19.131   6.198  0.00  0.00     0.041 C 
BRANCH  17  18
HETATM   18  C   UNK N   1      26.942  19.390   5.129  0.00  0.00    -0.058 A 
HETATM   19  C   UNK N   1      27.223  20.334   4.133  0.00  0.00     0.007 A 
HETATM   20  C   UNK N   1      26.295  20.586   3.117  0.00  0.00     0.001 A 
HETATM   21  C   UNK N   1      25.084  19.890   3.087  0.00  0.00     0.000 A 
HETATM   22  C   UNK N   1      24.796  18.945   4.074  0.00  0.00     0.001 A 
HETATM   23  C   UNK N   1      25.721  18.697   5.093  0.00  0.00     0.007 A 
ENDBRANCH  17  18
ENDBRANCH  16  17
ENDBRANCH   1  16
TORSDOF 7
ENDMDL
MODEL 5
REMARK VINA RESULT:      -6.1      5.513      8.847
REMARK  7 active torsions:
REMARK  status: ('A' for Active; 'I' for Inactive)
REMARK    1  A    between atoms: C_10  and  N_2 
REMARK    2  A    between atoms: C_6  and  C_7 
REMARK       I    between atoms: C_7  and  N_9 
REMARK    3  A    between atoms: C_10  and  C_11 
REMARK    4  A    between atoms: C_10  and  C_13 
REMARK    5  A    between atoms: C_11  and  O_12 
REMARK    6  A    between atoms: C_13  and  C_14 
REMARK    7  A    between atoms: C_14  and  C_15 
ROOT
HETATM    1  C   UNK N   1      33.957  17.228   9.092  0.00  0.00     0.114 C 
ENDROOT
BRANCH   1   2
HETATM    2  N   UNK N   1      34.982  16.370   9.700  0.00  0.00    -0.344 N 
HETATM    3  C   UNK N   1      35.524  15.257   9.175  0.00  0.00     0.127 A 
HETATM    4  C   UNK N   1      36.509  14.841  10.041  0.00  0.00     0.117 A 
HETATM    5  N   UNK N   1      36.572  15.678  11.096  0.00  0.00    -0.347 N 
HETATM    6  C   UNK N   1      35.627  16.613  10.860  0.00  0.00     0.183 A 
ATOM      7  HN  UNK N   1      37.198  15.618  11.898  1.00  0.00     0.167 HD
BRANCH   4   8
HETATM    8  C   UNK N   1      37.407  13.696   9.832  0.00  0.00     0.267 C 
HETATM    9  O   UNK N   1      38.611  13.825   9.995  0.00  0.00    -0.266 OA
HETATM   10  N   UNK N   1      36.912  12.510   9.429  0.00  0.00    -0.365 N 
HETATM   11  H   UNK N   1      35.952  12.400   9.240  0.00  0.00     0.159 HD
HETATM   12  H   UNK N   1      37.518  11.741   9.323  0.00  0.00     0.159 HD
ENDBRANCH   4   8
ENDBRANCH   1   2
BRANCH   1  13
HETATM   13  C   UNK N   1      34.567  18.116   7.999  0.00  0.00     0.189 C 
BRANCH  13  14
HETATM   14  O   UNK N   1      35.270  19.190   8.545  0.00  0.00    -0.399 OA
HETATM   15  H   UNK N   1      35.152  20.082   8.184  0.00  0.00     0.209 HD
ENDBRANCH  13  14
ENDBRANCH   1  13
BRANCH   1  16
HETATM   16  C   UNK N   1      32.824  16.373   8.518  0.00  0.00     0.032 C 
BRANCH  16  17
HETATM   17  C   UNK N   1      32.052  17.141   7.442  0.00  0.00     0.041 C 
BRANCH  17  18
HETATM   18  C   UNK N   1      30.665  17.534   7.869  0.00  0.00    -0.058 A 
HETATM   19  C   UNK N   1      30.489  18.164   9.108  0.00  0.00     0.007 A 
HETATM   20  C   UNK N   1      29.213  18.554   9.526  0.00  0.00     0.001 A 
HETATM   21  C   UNK N   1      28.106  18.323   8.706  0.00  0.00     0.000 A 
HETATM   22  C   UNK N   1      28.272  17.697   7.468  0.00  0.00     0.001 A 
HETATM   23  C   UNK N   1      29.547  17.302   7.052  0.00  0.00     0.007 A 
ENDBRANCH  17  18
ENDBRANCH  16  17
ENDBRANCH   1  16
TORSDOF 7
ENDMDL
MODEL 6
REMARK VINA RESULT:      -5.8      2.029      2.727
REMARK  7 active torsions:
REMARK  status: ('A' for Active; 'I' for Inactive)
REMARK    1  A    between atoms: C_10  and  N_2 
REMARK    2  A    between atoms: C_6  and  C_7 
REMARK       I    between atoms: C_7  and  N_9 
REMARK    3  A    between atoms: C_10  and  C_11 
REMARK    4  A    between atoms: C_10  and  C_13 
REMARK    5  A    between atoms: C_11  and  O_12 
REMARK    6  A    between atoms: C_13  and  C_14 
REMARK    7  A    between atoms: C_14  and  C_15 
ROOT
HETATM    1  C   UNK N   1      35.141  13.858  12.249  0.00  0.00     0.114 C 
ENDROOT
BRANCH   1   2
HETATM    2  N   UNK N   1      34.896  14.954  11.303  0.00  0.00    -0.344 N 
HETATM    3  C   UNK N   1      34.028  14.960  10.276  0.00  0.00     0.127 A 
HETATM    4  C   UNK N   1      34.059  16.222   9.729  0.00  0.00     0.117 A 
HETATM    5  N   UNK N   1      34.940  16.989  10.402  0.00  0.00    -0.347 N 
HETATM    6  C   UNK N   1      35.438  16.188  11.368  0.00  0.00     0.183 A 
ATOM      7  HN  UNK N   1      35.180  17.963  10.220  1.00  0.00     0.167 HD
BRANCH   4   8
HETATM    8  C   UNK N   1      33.218  16.697   8.621  0.00  0.00     0.267 C 
HETATM    9  O   UNK N   1      33.533  16.454   7.466  0.00  0.00    -0.266 OA
HETATM   10  N   UNK N   1      32.116  17.430   8.871  0.00  0.00    -0.365 N 
HETATM   11  H   UNK N   1      31.875  17.684   9.792  0.00  0.00     0.159 HD
HETATM   12  H   UNK N   1      31.542  17.717   8.124  0.00  0.00     0.159 HD
ENDBRANCH   4   8
ENDBRANCH   1   2
BRANCH   1  13
HETATM   13  C   UNK N   1      34.940  12.496  11.570  0.00  0.00     0.189 C 
BRANCH  13  14
HETATM   14  O   UNK N   1      34.287  11.596  12.412  0.00  0.00    -0.399 OA
HETATM   15  H   UNK N   1      33.468  11.166  12.120  0.00  0.00     0.209 HD
ENDBRANCH  13  14
ENDBRANCH   1  13
BRANCH   1  16
HETATM   16  C   UNK N   1      36.553  13.966  12.829  0.00  0.00     0.032 C 
BRANCH  16  17
HETATM   17  C   UNK N   1      36.505  14.309  14.320  0.00  0.00     0.041 C 
BRANCH  17  18
HETATM   18  C   UNK N   1      36.325  13.105  15.204  0.00  0.00    -0.058 A 
HETATM   19  C   UNK N   1      35.496  13.207  16.328  0.00  0.00     0.007 A 
HETATM   20  C   UNK N   1      35.297  12.101  17.161  0.00  0.00     0.001 A 
HETATM   21  C   UNK N   1      35.920  10.885  16.870  0.00  0.00     0.000 A 
HETATM   22  C   UNK N   1      36.747  10.773  15.749  0.00  0.00     0.001 A 
HETATM   23  C   UNK N   1      36.950  11.880  14.920  0.00  0.00     0.007 A 
ENDBRANCH  17  18
ENDBRANCH  16  17
ENDBRANCH   1  16
TORSDOF 7
ENDMDL
MODEL 7
REMARK VINA RESULT:      -5.8      7.287     11.623
REMARK  7 active torsions:
REMARK  status: ('A' for Active; 'I' for Inactive)
REMARK    1  A    between atoms: C_10  and  N_2 
REMARK    2  A    between atoms: C_6  and  C_7 
REMARK       I    between atoms: C_7  and  N_9 
REMARK    3  A    between atoms: C_10  and  C_11 
REMARK    4  A    between atoms: C_10  and  C_13 
REMARK    5  A    between atoms: C_11  and  O_12 
REMARK    6  A    between atoms: C_13  and  C_14 
REMARK    7  A    between atoms: C_14  and  C_15 
ROOT
HETATM    1  C   UNK N   1      31.037  17.281   5.922  0.00  0.00     0.114 C 
ENDROOT
BRANCH   1   2
HETATM    2  N   UNK N   1      31.986  16.913   6.980  0.00  0.00    -0.344 N 
HETATM    3  C   UNK N   1      32.967  17.677   7.491  0.00  0.00     0.127 A 
HETATM    4  C   UNK N   1      33.535  16.968   8.524  0.00  0.00     0.117 A 
HETATM    5  N   UNK N   1      32.921  15.774   8.649  0.00  0.00    -0.347 N 
HETATM    6  C   UNK N   1      31.969  15.766   7.692  0.00  0.00     0.183 A 
ATOM      7  HN  UNK N   1      33.131  15.036   9.321  1.00  0.00     0.167 HD
BRANCH   4   8
HETATM    8  C   UNK N   1      34.606  17.449   9.409  0.00  0.00     0.267 C 
HETATM    9  O   UNK N   1      35.299  18.397   9.071  0.00  0.00    -0.266 OA
HETATM   10  N   UNK N   1      34.849  16.830  10.580  0.00  0.00    -0.365 N 
HETATM   11  H   UNK N   1      34.338  16.031  10.846  0.00  0.00     0.159 HD
HETATM   12  H   UNK N   1      35.547  17.180  11.180  0.00  0.00     0.159 HD
ENDBRANCH   4   8
ENDBRANCH   1   2
BRANCH   1  13
HETATM   13  C   UNK N   1      31.558  16.847   4.546  0.00  0.00     0.189 C 
BRANCH  13  14
HETATM   14  O   UNK N   1      31.676  17.932   3.677  0.00  0.00    -0.399 OA
HETATM   15  H   UNK N   1      32.423  17.982   3.060  0.00  0.00     0.209 HD
ENDBRANCH  13  14
ENDBRANCH   1  13
BRANCH   1  16
HETATM   16  C   UNK N   1      29.668  16.655   6.199  0.00  0.00     0.032 C 
BRANCH  16  17
HETATM   17  C   UNK N   1      28.825  17.562   7.099  0.00  0.00     0.041 C 
BRANCH  17  18
HETATM   18  C   UNK N   1      28.187  18.707   6.362  0.00  0.00    -0.058 A 
HETATM   19  C   UNK N   1      28.029  18.616   4.973  0.00  0.00     0.007 A 
HETATM   20  C   UNK N   1      27.426  19.659   4.262  0.00  0.00     0.001 A 
HETATM   21  C   UNK N   1      26.972  20.795   4.936  0.00  0.00     0.000 A 
HETATM   22  C   UNK N   1      27.123  20.893   6.321  0.00  0.00     0.001 A 
HETATM   23  C   UNK N   1      27.730  19.854   7.032  0.00  0.00     0.007 A 
ENDBRANCH  17  18
ENDBRANCH  16  17
ENDBRANCH   1  16
TORSDOF 7
ENDMDL
MODEL 8
REMARK VINA RESULT:      -5.7     20.574     23.289
REMARK  7 active torsions:
REMARK  status: ('A' for Active; 'I' for Inactive)
REMARK    1  A    between atoms: C_10  and  N_2 
REMARK    2  A    between atoms: C_6  and  C_7 
REMARK       I    between atoms: C_7  and  N_9 
REMARK    3  A    between atoms: C_10  and  C_11 
REMARK    4  A    between atoms: C_10  and  C_13 
REMARK    5  A    between atoms: C_11  and  O_12 
REMARK    6  A    between atoms: C_13  and  C_14 
REMARK    7  A    between atoms: C_14  and  C_15 
ROOT
HETATM    1  C   UNK N   1      29.364  23.055  -3.512  0.00  0.00     0.114 C 
ENDROOT
BRANCH   1   2
HETATM    2  N   UNK N   1      29.564  22.406  -4.814  0.00  0.00    -0.344 N 
HETATM    3  C   UNK N   1      30.375  21.369  -5.087  0.00  0.00     0.127 A 
HETATM    4  C   UNK N   1      30.166  21.030  -6.405  0.00  0.00     0.117 A 
HETATM    5  N   UNK N   1      29.244  21.851  -6.946  0.00  0.00    -0.347 N 
HETATM    6  C   UNK N   1      28.885  22.685  -5.947  0.00  0.00     0.183 A 
ATOM      7  HN  UNK N   1      28.894  21.844  -7.904  1.00  0.00     0.167 HD
BRANCH   4   8
HETATM    8  C   UNK N   1      30.797  19.906  -7.111  0.00  0.00     0.267 C 
HETATM    9  O   UNK N   1      30.106  19.086  -7.697  0.00  0.00    -0.266 OA
HETATM   10  N   UNK N   1      32.135  19.755  -7.088  0.00  0.00    -0.365 N 
HETATM   11  H   UNK N   1      32.706  20.373  -6.576  0.00  0.00     0.159 HD
HETATM   12  H   UNK N   1      32.550  19.017  -7.591  0.00  0.00     0.159 HD
ENDBRANCH   4   8
ENDBRANCH   1   2
BRANCH   1  13
HETATM   13  C   UNK N   1      30.690  23.163  -2.747  0.00  0.00     0.189 C 
BRANCH  13  14
HETATM   14  O   UNK N   1      30.506  22.990  -1.375  0.00  0.00    -0.399 OA
HETATM   15  H   UNK N   1      29.610  22.914  -1.012  0.00  0.00     0.209 HD
ENDBRANCH  13  14
ENDBRANCH   1  13
BRANCH   1  16
HETATM   16  C   UNK N   1      28.739  24.439  -3.701  0.00  0.00     0.032 C 
BRANCH  16  17
HETATM   17  C   UNK N   1      27.271  24.439  -3.265  0.00  0.00     0.041 C 
BRANCH  17  18
HETATM   18  C   UNK N   1      26.451  25.509  -3.932  0.00  0.00    -0.058 A 
HETATM   19  C   UNK N   1      26.354  26.766  -3.323  0.00  0.00     0.007 A 
HETATM   20  C   UNK N   1      25.610  27.786  -3.926  0.00  0.00     0.001 A 
HETATM   21  C   UNK N   1      24.965  27.556  -5.144  0.00  0.00     0.000 A 
HETATM   22  C   UNK N   1      25.058  26.305  -5.759  0.00  0.00     0.001 A 
HETATM   23  C   UNK N   1      25.797  25.284  -5.154  0.00  0.00     0.007 A 
ENDBRANCH  17  18
ENDBRANCH  16  17
ENDBRANCH   1  16
TORSDOF 7
ENDMDL
MODEL 9
REMARK VINA RESULT:      -5.7      1.788      2.833
REMARK  7 active torsions:
REMARK  status: ('A' for Active; 'I' for Inactive)
REMARK    1  A    between atoms: C_10  and  N_2 
REMARK    2  A    between atoms: C_6  and  C_7 
REMARK       I    between atoms: C_7  and  N_9 
REMARK    3  A    between atoms: C_10  and  C_11 
REMARK    4  A    between atoms: C_10  and  C_13 
REMARK    5  A    between atoms: C_11  and  O_12 
REMARK    6  A    between atoms: C_13  and  C_14 
REMARK    7  A    between atoms: C_14  and  C_15 
ROOT
HETATM    1  C   UNK N   1      36.093  13.517  11.016  0.00  0.00     0.114 C 
ENDROOT
BRANCH   1   2
HETATM    2  N   UNK N   1      35.692  14.893  10.698  0.00  0.00    -0.344 N 
HETATM    3  C   UNK N   1      35.189  15.343   9.534  0.00  0.00     0.127 A 
HETATM    4  C   UNK N   1      34.865  16.667   9.720  0.00  0.00     0.117 A 
HETATM    5  N   UNK N   1      35.170  17.039  10.979  0.00  0.00    -0.347 N 
HETATM    6  C   UNK N   1      35.673  15.929  11.562  0.00  0.00     0.183 A 
ATOM      7  HN  UNK N   1      35.048  17.959  11.400  1.00  0.00     0.167 HD
BRANCH   4   8
HETATM    8  C   UNK N   1      34.222  17.540   8.727  0.00  0.00     0.267 C 
HETATM    9  O   UNK N   1      33.204  17.175   8.158  0.00  0.00    -0.266 OA
HETATM   10  N   UNK N   1      34.770  18.731   8.415  0.00  0.00    -0.365 N 
HETATM   11  H   UNK N   1      35.619  19.019   8.821  0.00  0.00     0.159 HD
HETATM   12  H   UNK N   1      34.315  19.322   7.772  0.00  0.00     0.159 HD
ENDBRANCH   4   8
ENDBRANCH   1   2
BRANCH   1  13
HETATM   13  C   UNK N   1      37.455  13.187  10.392  0.00  0.00     0.189 C 
BRANCH  13  14
HETATM   14  O   UNK N   1      38.457  13.112  11.360  0.00  0.00    -0.399 OA
HETATM   15  H   UNK N   1      39.236  12.553  11.211  0.00  0.00     0.209 HD
ENDBRANCH  13  14
ENDBRANCH   1  13
BRANCH   1  16
HETATM   16  C   UNK N   1      36.134  13.316  12.533  0.00  0.00     0.032 C 
BRANCH  16  17
HETATM   17  C   UNK N   1      34.889  12.567  13.017  0.00  0.00     0.041 C 
BRANCH  17  18
HETATM   18  C   UNK N   1      34.964  12.159  14.463  0.00  0.00    -0.058 A 
HETATM   19  C   UNK N   1      34.796  10.809  14.796  0.00  0.00     0.007 A 
HETATM   20  C   UNK N   1      34.875  10.396  16.130  0.00  0.00     0.001 A 
HETATM   21  C   UNK N   1      35.128  11.330  17.138  0.00  0.00     0.000 A 
HETATM   22  C   UNK N   1      35.299  12.678  16.815  0.00  0.00     0.001 A 
HETATM   23  C   UNK N   1      35.215  13.092  15.482  0.00  0.00     0.007 A 
ENDBRANCH  17  18
ENDBRANCH  16  17
ENDBRANCH   1  16
TORSDOF 7
ENDMDL
