MODEL 1
REMARK VINA RESULT:      -7.4      0.000      0.000
REMARK  7 active torsions:
REMARK  status: ('A' for Active; 'I' for Inactive)
REMARK    1  A    between atoms: C_10  and  N_2 
REMARK    2  A    between atoms: C_6  and  C_7 
REMARK       I    between atoms: C_7  and  N_9 
REMARK    3  A    between atoms: C_10  and  C_11 
REMARK    4  A    between atoms: C_10  and  C_13 
REMARK    5  A    between atoms: C_11  and  O_12 
REMARK    6  A    between atoms: C_13  and  C_14 
REMARK    7  A    between atoms: C_14  and  C_15 
ROOT
HETATM    1  C   UNK N   1      26.721  24.512  -5.650  0.00  0.00     0.118 C 
ENDROOT
BRANCH   1   2
HETATM    2  N   UNK N   1      27.529  24.031  -4.510  0.00  0.00    -0.343 N 
HETATM    3  C   UNK N   1      28.828  23.670  -4.478  0.00  0.00     0.127 A 
HETATM    4  C   UNK N   1      29.159  23.440  -3.163  0.00  0.00     0.117 A 
HETATM    5  N   UNK N   1      28.081  23.644  -2.380  0.00  0.00    -0.347 N 
HETATM    6  C   UNK N   1      27.103  24.016  -3.226  0.00  0.00     0.183 A 
ATOM      7  HN  UNK N   1      28.019  23.540  -1.367  1.00  0.00     0.167 HD
BRANCH   4   8
HETATM    8  C   UNK N   1      30.487  23.091  -2.638  0.00  0.00     0.267 C 
HETATM    9  O   UNK N   1      30.661  22.967  -1.441  0.00  0.00    -0.266 OA
HETATM   10  N   UNK N   1      31.530  22.940  -3.484  0.00  0.00    -0.365 N 
HETATM   11  H   UNK N   1      31.398  22.998  -4.459  0.00  0.00     0.159 HD
HETATM   12  H   UNK N   1      32.429  22.771  -3.123  0.00  0.00     0.159 HD
ENDBRANCH   4   8
ENDBRANCH   1   2
BRANCH   1  13
HETATM   13  C   UNK N   1      26.417  23.477  -6.792  0.00  0.00     0.137 C 
HETATM   14  C   UNK N   1      26.421  24.069  -8.195  0.00  0.00     0.041 C 
BRANCH  13  15
HETATM   15  O   UNK N   1      25.227  22.776  -6.604  0.00  0.00    -0.394 OA
HETATM   16  H   UNK N   1      25.075  22.276  -5.786  0.00  0.00     0.210 HD
ENDBRANCH  13  15
ENDBRANCH   1  13
BRANCH   1  17
HETATM   17  C   UNK N   1      25.432  25.205  -5.161  0.00  0.00     0.033 C 
BRANCH  17  18
HETATM   18  C   UNK N   1      25.180  26.489  -5.946  0.00  0.00     0.041 C 
BRANCH  18  19
HETATM   19  C   UNK N   1      25.952  27.700  -5.501  0.00  0.00    -0.047 A 
HETATM   20  C   UNK N   1      25.590  28.262  -4.272  0.00  0.00     0.008 A 
HETATM   21  C   UNK N   1      26.297  29.343  -3.742  0.00  0.00     0.001 A 
HETATM   22  C   UNK N   1      27.384  29.878  -4.434  0.00  0.00     0.012 A 
HETATM   23  C   UNK N   1      27.765  29.337  -5.662  0.00  0.00    -0.025 A 
HETATM   24  C   UNK N   1      27.058  28.238  -6.211  0.00  0.00    -0.020 A 
HETATM   25  C   UNK N   1      28.857  29.881  -6.346  0.00  0.00     0.012 A 
HETATM   26  C   UNK N   1      27.478  27.710  -7.442  0.00  0.00     0.013 A 
HETATM   27  C   UNK N   1      28.564  28.265  -8.122  0.00  0.00     0.001 A 
HETATM   28  C   UNK N   1      29.252  29.348  -7.575  0.00  0.00     0.001 A 
ENDBRANCH  18  19
ENDBRANCH  17  18
ENDBRANCH   1  17
TORSDOF 7
ENDMDL
MODEL 2
REMARK VINA RESULT:      -7.3     20.869     25.689
REMARK  7 active torsions:
REMARK  status: ('A' for Active; 'I' for Inactive)
REMARK    1  A    between atoms: C_10  and  N_2 
REMARK    2  A    between atoms: C_6  and  C_7 
REMARK       I    between atoms: C_7  and  N_9 
REMARK    3  A    between atoms: C_10  and  C_11 
REMARK    4  A    between atoms: C_10  and  C_13 
REMARK    5  A    between atoms: C_11  and  O_12 
REMARK    6  A    between atoms: C_13  and  C_14 
REMARK    7  A    between atoms: C_14  and  C_15 
ROOT
HETATM    1  C   UNK N   1      35.869  12.664  13.018  0.00  0.00     0.118 C 
ENDROOT
BRANCH   1   2
HETATM    2  N   UNK N   1      35.389  13.599  11.979  0.00  0.00    -0.343 N 
HETATM    3  C   UNK N   1      35.460  14.945  11.946  0.00  0.00     0.127 A 
HETATM    4  C   UNK N   1      35.015  15.351  10.710  0.00  0.00     0.117 A 
HETATM    5  N   UNK N   1      34.658  14.275   9.979  0.00  0.00    -0.347 N 
HETATM    6  C   UNK N   1      34.908  13.218  10.773  0.00  0.00     0.183 A 
ATOM      7  HN  UNK N   1      34.282  14.265   9.032  1.00  0.00     0.167 HD
BRANCH   4   8
HETATM    8  C   UNK N   1      34.979  16.727  10.196  0.00  0.00     0.267 C 
HETATM    9  O   UNK N   1      35.919  17.477  10.383  0.00  0.00    -0.266 OA
HETATM   10  N   UNK N   1      33.886  17.176   9.540  0.00  0.00    -0.365 N 
HETATM   11  H   UNK N   1      33.134  16.570   9.345  0.00  0.00     0.159 HD
HETATM   12  H   UNK N   1      33.841  18.117   9.255  0.00  0.00     0.159 HD
ENDBRANCH   4   8
ENDBRANCH   1   2
BRANCH   1  13
HETATM   13  C   UNK N   1      37.203  11.890  12.715  0.00  0.00     0.137 C 
HETATM   14  C   UNK N   1      37.879  11.296  13.944  0.00  0.00     0.041 C 
BRANCH  13  15
HETATM   15  O   UNK N   1      38.138  12.649  12.012  0.00  0.00    -0.394 OA
HETATM   16  H   UNK N   1      38.743  12.225  11.383  0.00  0.00     0.210 HD
ENDBRANCH  13  15
ENDBRANCH   1  13
BRANCH   1  17
HETATM   17  C   UNK N   1      35.918  13.349  14.400  0.00  0.00     0.033 C 
BRANCH  17  18
HETATM   18  C   UNK N   1      34.726  12.929  15.252  0.00  0.00     0.041 C 
BRANCH  18  19
HETATM   19  C   UNK N   1      35.033  12.520  16.666  0.00  0.00    -0.047 A 
HETATM   20  C   UNK N   1      35.024  13.534  17.631  0.00  0.00     0.008 A 
HETATM   21  C   UNK N   1      35.226  13.240  18.980  0.00  0.00     0.001 A 
HETATM   22  C   UNK N   1      35.436  11.924  19.389  0.00  0.00     0.012 A 
HETATM   23  C   UNK N   1      35.451  10.894  18.447  0.00  0.00    -0.025 A 
HETATM   24  C   UNK N   1      35.245  11.177  17.074  0.00  0.00    -0.020 A 
HETATM   25  C   UNK N   1      35.662   9.577  18.869  0.00  0.00     0.012 A 
HETATM   26  C   UNK N   1      35.253  10.115  16.156  0.00  0.00     0.013 A 
HETATM   27  C   UNK N   1      35.473   8.805  16.584  0.00  0.00     0.001 A 
HETATM   28  C   UNK N   1      35.676   8.536  17.938  0.00  0.00     0.001 A 
ENDBRANCH  18  19
ENDBRANCH  17  18
ENDBRANCH   1  17
TORSDOF 7
ENDMDL
MODEL 3
REMARK VINA RESULT:      -7.1     19.676     24.594
REMARK  7 active torsions:
REMARK  status: ('A' for Active; 'I' for Inactive)
REMARK    1  A    between atoms: C_10  and  N_2 
REMARK    2  A    between atoms: C_6  and  C_7 
REMARK       I    between atoms: C_7  and  N_9 
REMARK    3  A    between atoms: C_10  and  C_11 
REMARK    4  A    between atoms: C_10  and  C_13 
REMARK    5  A    between atoms: C_11  and  O_12 
REMARK    6  A    between atoms: C_13  and  C_14 
REMARK    7  A    between atoms: C_14  and  C_15 
ROOT
HETATM    1  C   UNK N   1      36.067  13.445  11.730  0.00  0.00     0.118 C 
ENDROOT
BRANCH   1   2
HETATM    2  N   UNK N   1      35.712  14.756  11.147  0.00  0.00    -0.343 N 
HETATM    3  C   UNK N   1      35.174  15.036   9.942  0.00  0.00     0.127 A 
HETATM    4  C   UNK N   1      34.890  16.381   9.919  0.00  0.00     0.117 A 
HETATM    5  N   UNK N   1      35.254  16.942  11.090  0.00  0.00    -0.347 N 
HETATM    6  C   UNK N   1      35.741  15.927  11.826  0.00  0.00     0.183 A 
ATOM      7  HN  UNK N   1      35.176  17.923  11.360  1.00  0.00     0.167 HD
BRANCH   4   8
HETATM    8  C   UNK N   1      34.230  17.123   8.836  0.00  0.00     0.267 C 
HETATM    9  O   UNK N   1      33.307  16.621   8.222  0.00  0.00    -0.266 OA
HETATM   10  N   UNK N   1      34.669  18.355   8.495  0.00  0.00    -0.365 N 
HETATM   11  H   UNK N   1      35.388  18.791   9.008  0.00  0.00     0.159 HD
HETATM   12  H   UNK N   1      34.267  18.820   7.727  0.00  0.00     0.159 HD
ENDBRANCH   4   8
ENDBRANCH   1   2
BRANCH   1  13
HETATM   13  C   UNK N   1      37.288  12.691  11.090  0.00  0.00     0.137 C 
HETATM   14  C   UNK N   1      37.599  11.344  11.729  0.00  0.00     0.041 C 
BRANCH  13  15
HETATM   15  O   UNK N   1      38.455  13.452  11.057  0.00  0.00    -0.394 OA
HETATM   16  H   UNK N   1      38.412  14.412  10.920  0.00  0.00     0.210 HD
ENDBRANCH  13  15
ENDBRANCH   1  13
BRANCH   1  17
HETATM   17  C   UNK N   1      36.205  13.542  13.264  0.00  0.00     0.033 C 
BRANCH  17  18
HETATM   18  C   UNK N   1      34.893  13.173  13.947  0.00  0.00     0.041 C 
BRANCH  18  19
HETATM   19  C   UNK N   1      34.951  12.025  14.917  0.00  0.00    -0.047 A 
HETATM   20  C   UNK N   1      34.962  10.737  14.370  0.00  0.00     0.008 A 
HETATM   21  C   UNK N   1      35.087   9.613  15.188  0.00  0.00     0.001 A 
HETATM   22  C   UNK N   1      35.208   9.759  16.569  0.00  0.00     0.012 A 
HETATM   23  C   UNK N   1      35.199  11.031  17.141  0.00  0.00    -0.025 A 
HETATM   24  C   UNK N   1      35.075  12.182  16.323  0.00  0.00    -0.020 A 
HETATM   25  C   UNK N   1      35.322  11.165  18.528  0.00  0.00     0.012 A 
HETATM   26  C   UNK N   1      35.083  13.447  16.931  0.00  0.00     0.013 A 
HETATM   27  C   UNK N   1      35.197  13.572  18.316  0.00  0.00     0.001 A 
HETATM   28  C   UNK N   1      35.317  12.433  19.114  0.00  0.00     0.001 A 
ENDBRANCH  18  19
ENDBRANCH  17  18
ENDBRANCH   1  17
TORSDOF 7
ENDMDL
MODEL 4
REMARK VINA RESULT:      -7.0     10.983     15.148
REMARK  7 active torsions:
REMARK  status: ('A' for Active; 'I' for Inactive)
REMARK    1  A    between atoms: C_10  and  N_2 
REMARK    2  A    between atoms: C_6  and  C_7 
REMARK       I    between atoms: C_7  and  N_9 
REMARK    3  A    between atoms: C_10  and  C_11 
REMARK    4  A    between atoms: C_10  and  C_13 
REMARK    5  A    between atoms: C_11  and  O_12 
REMARK    6  A    between atoms: C_13  and  C_14 
REMARK    7  A    between atoms: C_14  and  C_15 
ROOT
HETATM    1  C   UNK N   1      28.377  18.513   7.142  0.00  0.00     0.118 C 
ENDROOT
BRANCH   1   2
HETATM    2  N   UNK N   1      27.621  19.419   6.253  0.00  0.00    -0.343 N 
HETATM    3  C   UNK N   1      27.123  19.186   5.021  0.00  0.00     0.127 A 
HETATM    4  C   UNK N   1      26.372  20.281   4.665  0.00  0.00     0.117 A 
HETATM    5  N   UNK N   1      26.406  21.196   5.655  0.00  0.00    -0.347 N 
HETATM    6  C   UNK N   1      27.165  20.640   6.617  0.00  0.00     0.183 A 
ATOM      7  HN  UNK N   1      25.954  22.110   5.672  1.00  0.00     0.167 HD
BRANCH   4   8
HETATM    8  C   UNK N   1      25.582  20.445   3.437  0.00  0.00     0.267 C 
HETATM    9  O   UNK N   1      26.071  20.981   2.460  0.00  0.00    -0.266 OA
HETATM   10  N   UNK N   1      24.297  20.031   3.399  0.00  0.00    -0.365 N 
HETATM   11  H   UNK N   1      23.899  19.559   4.167  0.00  0.00     0.159 HD
HETATM   12  H   UNK N   1      23.753  20.201   2.597  0.00  0.00     0.159 HD
ENDBRANCH   4   8
ENDBRANCH   1   2
BRANCH   1  13
HETATM   13  C   UNK N   1      28.264  18.776   8.687  0.00  0.00     0.137 C 
HETATM   14  C   UNK N   1      29.597  18.780   9.423  0.00  0.00     0.041 C 
BRANCH  13  15
HETATM   15  O   UNK N   1      27.395  17.902   9.336  0.00  0.00    -0.394 OA
HETATM   16  H   UNK N   1      27.107  17.082   8.903  0.00  0.00     0.210 HD
ENDBRANCH  13  15
ENDBRANCH   1  13
BRANCH   1  17
HETATM   17  C   UNK N   1      28.089  17.036   6.800  0.00  0.00     0.033 C 
BRANCH  17  18
HETATM   18  C   UNK N   1      29.348  16.191   6.963  0.00  0.00     0.041 C 
BRANCH  18  19
HETATM   19  C   UNK N   1      30.544  16.621   6.160  0.00  0.00    -0.047 A 
HETATM   20  C   UNK N   1      30.352  16.791   4.784  0.00  0.00     0.008 A 
HETATM   21  C   UNK N   1      31.384  17.259   3.969  0.00  0.00     0.001 A 
HETATM   22  C   UNK N   1      32.628  17.569   4.519  0.00  0.00     0.012 A 
HETATM   23  C   UNK N   1      32.847  17.407   5.888  0.00  0.00    -0.025 A 
HETATM   24  C   UNK N   1      31.807  16.936   6.728  0.00  0.00    -0.020 A 
HETATM   25  C   UNK N   1      34.098  17.723   6.428  0.00  0.00     0.012 A 
HETATM   26  C   UNK N   1      32.058  16.799   8.102  0.00  0.00     0.013 A 
HETATM   27  C   UNK N   1      33.312  17.107   8.632  0.00  0.00     0.001 A 
HETATM   28  C   UNK N   1      34.330  17.569   7.796  0.00  0.00     0.001 A 
ENDBRANCH  18  19
ENDBRANCH  17  18
ENDBRANCH   1  17
TORSDOF 7
ENDMDL
MODEL 5
REMARK VINA RESULT:      -6.7     20.655     25.523
REMARK  7 active torsions:
REMARK  status: ('A' for Active; 'I' for Inactive)
REMARK    1  A    between atoms: C_10  and  N_2 
REMARK    2  A    between atoms: C_6  and  C_7 
REMARK       I    between atoms: C_7  and  N_9 
REMARK    3  A    between atoms: C_10  and  C_11 
REMARK    4  A    between atoms: C_10  and  C_13 
REMARK    5  A    between atoms: C_11  and  O_12 
REMARK    6  A    between atoms: C_13  and  C_14 
REMARK    7  A    between atoms: C_14  and  C_15 
ROOT
HETATM    1  C   UNK N   1      35.748  12.220  12.520  0.00  0.00     0.118 C 
ENDROOT
BRANCH   1   2
HETATM    2  N   UNK N   1      35.189  13.096  11.470  0.00  0.00    -0.343 N 
HETATM    3  C   UNK N   1      35.016  14.434  11.479  0.00  0.00     0.127 A 
HETATM    4  C   UNK N   1      34.603  14.805  10.221  0.00  0.00     0.117 A 
HETATM    5  N   UNK N   1      34.507  13.714   9.434  0.00  0.00    -0.347 N 
HETATM    6  C   UNK N   1      34.882  12.686  10.217  0.00  0.00     0.183 A 
ATOM      7  HN  UNK N   1      34.215  13.676   8.458  1.00  0.00     0.167 HD
BRANCH   4   8
HETATM    8  C   UNK N   1      34.358  16.173   9.743  0.00  0.00     0.267 C 
HETATM    9  O   UNK N   1      33.660  16.365   8.765  0.00  0.00    -0.266 OA
HETATM   10  N   UNK N   1      34.936  17.221  10.370  0.00  0.00    -0.365 N 
HETATM   11  H   UNK N   1      35.470  17.086  11.186  0.00  0.00     0.159 HD
HETATM   12  H   UNK N   1      34.821  18.129  10.007  0.00  0.00     0.159 HD
ENDBRANCH   4   8
ENDBRANCH   1   2
BRANCH   1  13
HETATM   13  C   UNK N   1      37.270  11.846  12.398  0.00  0.00     0.137 C 
HETATM   14  C   UNK N   1      37.877  11.260  13.666  0.00  0.00     0.041 C 
BRANCH  13  15
HETATM   15  O   UNK N   1      38.067  12.904  11.966  0.00  0.00    -0.394 OA
HETATM   16  H   UNK N   1      38.445  12.902  11.071  0.00  0.00     0.210 HD
ENDBRANCH  13  15
ENDBRANCH   1  13
BRANCH   1  17
HETATM   17  C   UNK N   1      35.412  12.758  13.927  0.00  0.00     0.033 C 
BRANCH  17  18
HETATM   18  C   UNK N   1      34.320  11.917  14.579  0.00  0.00     0.041 C 
BRANCH  18  19
HETATM   19  C   UNK N   1      34.754  11.035  15.717  0.00  0.00    -0.047 A 
HETATM   20  C   UNK N   1      34.961   9.683  15.423  0.00  0.00     0.008 A 
HETATM   21  C   UNK N   1      35.434   8.802  16.397  0.00  0.00     0.001 A 
HETATM   22  C   UNK N   1      35.712   9.261  17.683  0.00  0.00     0.012 A 
HETATM   23  C   UNK N   1      35.514  10.605  18.004  0.00  0.00    -0.025 A 
HETATM   24  C   UNK N   1      35.036  11.511  17.024  0.00  0.00    -0.020 A 
HETATM   25  C   UNK N   1      35.798  11.054  19.298  0.00  0.00     0.012 A 
HETATM   26  C   UNK N   1      34.861  12.858  17.378  0.00  0.00     0.013 A 
HETATM   27  C   UNK N   1      35.138  13.297  18.674  0.00  0.00     0.001 A 
HETATM   28  C   UNK N   1      35.606  12.396  19.632  0.00  0.00     0.001 A 
ENDBRANCH  18  19
ENDBRANCH  17  18
ENDBRANCH   1  17
TORSDOF 7
ENDMDL
MODEL 6
REMARK VINA RESULT:      -6.6     13.315     15.509
REMARK  7 active torsions:
REMARK  status: ('A' for Active; 'I' for Inactive)
REMARK    1  A    between atoms: C_10  and  N_2 
REMARK    2  A    between atoms: C_6  and  C_7 
REMARK       I    between atoms: C_7  and  N_9 
REMARK    3  A    between atoms: C_10  and  C_11 
REMARK    4  A    between atoms: C_10  and  C_13 
REMARK    5  A    between atoms: C_11  and  O_12 
REMARK    6  A    between atoms: C_13  and  C_14 
REMARK    7  A    between atoms: C_14  and  C_15 
ROOT
HETATM    1  C   UNK N   1      33.169  16.233   3.889  0.00  0.00     0.118 C 
ENDROOT
BRANCH   1   2
HETATM    2  N   UNK N   1      33.789  16.404   5.219  0.00  0.00    -0.343 N 
HETATM    3  C   UNK N   1      33.785  17.482   6.030  0.00  0.00     0.127 A 
HETATM    4  C   UNK N   1      34.365  17.106   7.219  0.00  0.00     0.117 A 
HETATM    5  N   UNK N   1      34.738  15.812   7.154  0.00  0.00    -0.347 N 
HETATM    6  C   UNK N   1      34.364  15.404   5.927  0.00  0.00     0.183 A 
ATOM      7  HN  UNK N   1      35.202  15.262   7.876  1.00  0.00     0.167 HD
BRANCH   4   8
HETATM    8  C   UNK N   1      34.514  17.933   8.425  0.00  0.00     0.267 C 
HETATM    9  O   UNK N   1      34.944  19.068   8.341  0.00  0.00    -0.266 OA
HETATM   10  N   UNK N   1      34.206  17.422   9.637  0.00  0.00    -0.365 N 
HETATM   11  H   UNK N   1      33.819  16.520   9.717  0.00  0.00     0.159 HD
HETATM   12  H   UNK N   1      34.369  17.956  10.447  0.00  0.00     0.159 HD
ENDBRANCH   4   8
ENDBRANCH   1   2
BRANCH   1  13
HETATM   13  C   UNK N   1      33.126  14.774   3.307  0.00  0.00     0.137 C 
HETATM   14  C   UNK N   1      34.274  14.439   2.365  0.00  0.00     0.041 C 
BRANCH  13  15
HETATM   15  O   UNK N   1      31.922  14.464   2.676  0.00  0.00    -0.394 OA
HETATM   16  H   UNK N   1      31.234  15.140   2.570  0.00  0.00     0.210 HD
ENDBRANCH  13  15
ENDBRANCH   1  13
BRANCH   1  17
HETATM   17  C   UNK N   1      31.778  16.900   3.837  0.00  0.00     0.033 C 
BRANCH  17  18
HETATM   18  C   UNK N   1      30.869  16.334   4.923  0.00  0.00     0.041 C 
BRANCH  18  19
HETATM   19  C   UNK N   1      29.813  17.263   5.454  0.00  0.00    -0.047 A 
HETATM   20  C   UNK N   1      28.900  17.777   4.527  0.00  0.00     0.008 A 
HETATM   21  C   UNK N   1      27.842  18.589   4.937  0.00  0.00     0.001 A 
HETATM   22  C   UNK N   1      27.676  18.898   6.287  0.00  0.00     0.012 A 
HETATM   23  C   UNK N   1      28.573  18.400   7.233  0.00  0.00    -0.025 A 
HETATM   24  C   UNK N   1      29.651  17.572   6.830  0.00  0.00    -0.020 A 
HETATM   25  C   UNK N   1      28.395  18.715   8.584  0.00  0.00     0.012 A 
HETATM   26  C   UNK N   1      30.525  17.077   7.811  0.00  0.00     0.013 A 
HETATM   27  C   UNK N   1      30.347  17.404   9.156  0.00  0.00     0.001 A 
HETATM   28  C   UNK N   1      29.283  18.222   9.542  0.00  0.00     0.001 A 
ENDBRANCH  18  19
ENDBRANCH  17  18
ENDBRANCH   1  17
TORSDOF 7
ENDMDL
MODEL 7
REMARK VINA RESULT:      -6.5      1.397      2.784
REMARK  7 active torsions:
REMARK  status: ('A' for Active; 'I' for Inactive)
REMARK    1  A    between atoms: C_10  and  N_2 
REMARK    2  A    between atoms: C_6  and  C_7 
REMARK       I    between atoms: C_7  and  N_9 
REMARK    3  A    between atoms: C_10  and  C_11 
REMARK    4  A    between atoms: C_10  and  C_13 
REMARK    5  A    between atoms: C_11  and  O_12 
REMARK    6  A    between atoms: C_13  and  C_14 
REMARK    7  A    between atoms: C_14  and  C_15 
ROOT
HETATM    1  C   UNK N   1      27.150  23.407  -7.089  0.00  0.00     0.118 C 
ENDROOT
BRANCH   1   2
HETATM    2  N   UNK N   1      28.258  23.244  -6.124  0.00  0.00    -0.343 N 
HETATM    3  C   UNK N   1      28.559  23.985  -5.038  0.00  0.00     0.127 A 
HETATM    4  C   UNK N   1      29.587  23.352  -4.379  0.00  0.00     0.117 A 
HETATM    5  N   UNK N   1      29.934  22.233  -5.047  0.00  0.00    -0.347 N 
HETATM    6  C   UNK N   1      29.100  22.185  -6.102  0.00  0.00     0.183 A 
ATOM      7  HN  UNK N   1      30.669  21.568  -4.806  1.00  0.00     0.167 HD
BRANCH   4   8
HETATM    8  C   UNK N   1      30.197  23.757  -3.105  0.00  0.00     0.267 C 
HETATM    9  O   UNK N   1      30.675  24.869  -2.980  0.00  0.00    -0.266 OA
HETATM   10  N   UNK N   1      30.259  22.882  -2.077  0.00  0.00    -0.365 N 
HETATM   11  H   UNK N   1      29.842  21.993  -2.148  0.00  0.00     0.159 HD
HETATM   12  H   UNK N   1      30.726  23.137  -1.249  0.00  0.00     0.159 HD
ENDBRANCH   4   8
ENDBRANCH   1   2
BRANCH   1  13
HETATM   13  C   UNK N   1      26.611  22.103  -7.779  0.00  0.00     0.137 C 
HETATM   14  C   UNK N   1      26.707  22.110  -9.299  0.00  0.00     0.041 C 
BRANCH  13  15
HETATM   15  O   UNK N   1      25.305  21.780  -7.413  0.00  0.00    -0.394 OA
HETATM   16  H   UNK N   1      25.110  21.463  -6.517  0.00  0.00     0.210 HD
ENDBRANCH  13  15
ENDBRANCH   1  13
BRANCH   1  17
HETATM   17  C   UNK N   1      26.001  24.235  -6.475  0.00  0.00     0.033 C 
BRANCH  17  18
HETATM   18  C   UNK N   1      25.691  25.451  -7.341  0.00  0.00     0.041 C 
BRANCH  18  19
HETATM   19  C   UNK N   1      26.616  26.627  -7.187  0.00  0.00    -0.047 A 
HETATM   20  C   UNK N   1      27.543  26.838  -8.214  0.00  0.00     0.008 A 
HETATM   21  C   UNK N   1      28.394  27.945  -8.194  0.00  0.00     0.001 A 
HETATM   22  C   UNK N   1      28.327  28.863  -7.147  0.00  0.00     0.012 A 
HETATM   23  C   UNK N   1      27.412  28.676  -6.110  0.00  0.00    -0.025 A 
HETATM   24  C   UNK N   1      26.541  27.558  -6.118  0.00  0.00    -0.020 A 
HETATM   25  C   UNK N   1      27.354  29.605  -5.066  0.00  0.00     0.012 A 
HETATM   26  C   UNK N   1      25.624  27.409  -5.066  0.00  0.00     0.013 A 
HETATM   27  C   UNK N   1      25.578  28.335  -4.023  0.00  0.00     0.001 A 
HETATM   28  C   UNK N   1      26.441  29.432  -4.023  0.00  0.00     0.001 A 
ENDBRANCH  18  19
ENDBRANCH  17  18
ENDBRANCH   1  17
TORSDOF 7
ENDMDL
MODEL 8
REMARK VINA RESULT:      -6.3     14.689     17.675
REMARK  7 active torsions:
REMARK  status: ('A' for Active; 'I' for Inactive)
REMARK    1  A    between atoms: C_10  and  N_2 
REMARK    2  A    between atoms: C_6  and  C_7 
REMARK       I    between atoms: C_7  and  N_9 
REMARK    3  A    between atoms: C_10  and  C_11 
REMARK    4  A    between atoms: C_10  and  C_13 
REMARK    5  A    between atoms: C_11  and  O_12 
REMARK    6  A    between atoms: C_13  and  C_14 
REMARK    7  A    between atoms: C_14  and  C_15 
ROOT
HETATM    1  C   UNK N   1      34.304  16.130   9.233  0.00  0.00     0.118 C 
ENDROOT
BRANCH   1   2
HETATM    2  N   UNK N   1      33.771  14.780   8.954  0.00  0.00    -0.343 N 
HETATM    3  C   UNK N   1      34.415  13.689   8.491  0.00  0.00     0.127 A 
HETATM    4  C   UNK N   1      33.530  12.637   8.539  0.00  0.00     0.117 A 
HETATM    5  N   UNK N   1      32.343  13.063   9.015  0.00  0.00    -0.347 N 
HETATM    6  C   UNK N   1      32.521  14.372   9.272  0.00  0.00     0.183 A 
ATOM      7  HN  UNK N   1      31.495  12.514   9.152  1.00  0.00     0.167 HD
BRANCH   4   8
HETATM    8  C   UNK N   1      33.810  11.235   8.199  0.00  0.00     0.267 C 
HETATM    9  O   UNK N   1      34.958  10.836   8.139  0.00  0.00    -0.266 OA
HETATM   10  N   UNK N   1      32.793  10.391   7.918  0.00  0.00    -0.365 N 
HETATM   11  H   UNK N   1      31.858  10.687   8.002  0.00  0.00     0.159 HD
HETATM   12  H   UNK N   1      32.989   9.471   7.628  0.00  0.00     0.159 HD
ENDBRANCH   4   8
ENDBRANCH   1   2
BRANCH   1  13
HETATM   13  C   UNK N   1      35.501  16.225  10.246  0.00  0.00     0.137 C 
HETATM   14  C   UNK N   1      35.252  15.535  11.581  0.00  0.00     0.041 C 
BRANCH  13  15
HETATM   15  O   UNK N   1      35.920  17.532  10.489  0.00  0.00    -0.394 OA
HETATM   16  H   UNK N   1      35.534  18.045  11.217  0.00  0.00     0.210 HD
ENDBRANCH  13  15
ENDBRANCH   1  13
BRANCH   1  17
HETATM   17  C   UNK N   1      34.615  16.884   7.923  0.00  0.00     0.033 C 
BRANCH  17  18
HETATM   18  C   UNK N   1      33.604  18.003   7.693  0.00  0.00     0.041 C 
BRANCH  18  19
HETATM   19  C   UNK N   1      32.277  17.590   7.119  0.00  0.00    -0.047 A 
HETATM   20  C   UNK N   1      31.191  17.558   8.001  0.00  0.00     0.008 A 
HETATM   21  C   UNK N   1      29.907  17.257   7.545  0.00  0.00     0.001 A 
HETATM   22  C   UNK N   1      29.686  16.987   6.195  0.00  0.00     0.012 A 
HETATM   23  C   UNK N   1      30.751  17.011   5.294  0.00  0.00    -0.025 A 
HETATM   24  C   UNK N   1      32.061  17.317   5.743  0.00  0.00    -0.020 A 
HETATM   25  C   UNK N   1      30.517  16.740   3.942  0.00  0.00     0.012 A 
HETATM   26  C   UNK N   1      33.106  17.346   4.806  0.00  0.00     0.013 A 
HETATM   27  C   UNK N   1      32.866  17.066   3.460  0.00  0.00     0.001 A 
HETATM   28  C   UNK N   1      31.573  16.764   3.029  0.00  0.00     0.001 A 
ENDBRANCH  18  19
ENDBRANCH  17  18
ENDBRANCH   1  17
TORSDOF 7
ENDMDL
MODEL 9
REMARK VINA RESULT:      -6.2     14.475     17.963
REMARK  7 active torsions:
REMARK  status: ('A' for Active; 'I' for Inactive)
REMARK    1  A    between atoms: C_10  and  N_2 
REMARK    2  A    between atoms: C_6  and  C_7 
REMARK       I    between atoms: C_7  and  N_9 
REMARK    3  A    between atoms: C_10  and  C_11 
REMARK    4  A    between atoms: C_10  and  C_13 
REMARK    5  A    between atoms: C_11  and  O_12 
REMARK    6  A    between atoms: C_13  and  C_14 
REMARK    7  A    between atoms: C_14  and  C_15 
ROOT
HETATM    1  C   UNK N   1      33.611  14.888   8.347  0.00  0.00     0.118 C 
ENDROOT
BRANCH   1   2
HETATM    2  N   UNK N   1      34.532  14.621   9.472  0.00  0.00    -0.343 N 
HETATM    3  C   UNK N   1      34.308  14.721  10.798  0.00  0.00     0.127 A 
HETATM    4  C   UNK N   1      35.418  14.224  11.441  0.00  0.00     0.117 A 
HETATM    5  N   UNK N   1      36.331  13.827  10.532  0.00  0.00    -0.347 N 
HETATM    6  C   UNK N   1      35.760  14.069   9.338  0.00  0.00     0.183 A 
ATOM      7  HN  UNK N   1      37.253  13.429  10.710  1.00  0.00     0.167 HD
BRANCH   4   8
HETATM    8  C   UNK N   1      35.597  14.067  12.891  0.00  0.00     0.267 C 
HETATM    9  O   UNK N   1      34.789  13.436  13.545  0.00  0.00    -0.266 OA
HETATM   10  N   UNK N   1      36.646  14.653  13.510  0.00  0.00    -0.365 N 
HETATM   11  H   UNK N   1      37.331  15.133  12.990  0.00  0.00     0.159 HD
HETATM   12  H   UNK N   1      36.726  14.599  14.489  0.00  0.00     0.159 HD
ENDBRANCH   4   8
ENDBRANCH   1   2
BRANCH   1  13
HETATM   13  C   UNK N   1      33.341  13.701   7.353  0.00  0.00     0.137 C 
HETATM   14  C   UNK N   1      32.522  14.082   6.127  0.00  0.00     0.041 C 
BRANCH  13  15
HETATM   15  O   UNK N   1      32.753  12.593   7.960  0.00  0.00    -0.394 OA
HETATM   16  H   UNK N   1      32.217  11.973   7.439  0.00  0.00     0.210 HD
ENDBRANCH  13  15
ENDBRANCH   1  13
BRANCH   1  17
HETATM   17  C   UNK N   1      32.292  15.513   8.849  0.00  0.00     0.033 C 
BRANCH  17  18
HETATM   18  C   UNK N   1      32.151  16.946   8.348  0.00  0.00     0.041 C 
BRANCH  18  19
HETATM   19  C   UNK N   1      30.746  17.462   8.201  0.00  0.00    -0.047 A 
HETATM   20  C   UNK N   1      30.116  17.916   9.365  0.00  0.00     0.008 A 
HETATM   21  C   UNK N   1      28.840  18.479   9.316  0.00  0.00     0.001 A 
HETATM   22  C   UNK N   1      28.173  18.601   8.098  0.00  0.00     0.012 A 
HETATM   23  C   UNK N   1      28.777  18.156   6.922  0.00  0.00    -0.025 A 
HETATM   24  C   UNK N   1      30.074  17.584   6.957  0.00  0.00    -0.020 A 
HETATM   25  C   UNK N   1      28.098  18.285   5.706  0.00  0.00     0.012 A 
HETATM   26  C   UNK N   1      30.657  17.159   5.753  0.00  0.00     0.013 A 
HETATM   27  C   UNK N   1      29.969  17.283   4.544  0.00  0.00     0.001 A 
HETATM   28  C   UNK N   1      28.692  17.846   4.521  0.00  0.00     0.001 A 
ENDBRANCH  18  19
ENDBRANCH  17  18
ENDBRANCH   1  17
TORSDOF 7
ENDMDL
