REMARK  10 active torsions:
REMARK  status: ('A' for Active; 'I' for Inactive)
REMARK    1  A    between atoms: C_10  and  N_2 
REMARK    2  A    between atoms: C_6  and  C_7 
REMARK       I    between atoms: C_7  and  N_9 
REMARK    3  A    between atoms: C_10  and  C_11 
REMARK    4  A    between atoms: C_10  and  C_13 
REMARK    5  A    between atoms: C_11  and  O_12 
REMARK    6  A    between atoms: C_13  and  C_14 
REMARK    7  A    between atoms: C_14  and  N_15 
REMARK    8  A    between atoms: C_22  and  N_24 
REMARK       I    between atoms: N_24  and  C_25 
REMARK       I    between atoms: C_25  and  N_27 
REMARK    9  A    between atoms: N_27  and  C_28 
REMARK   10  A    between atoms: C_28  and  C_30 
ROOT
HETATM    1  N   UNK N   1      -1.719  -2.977   0.477  0.00  0.00    -0.356 N 
HETATM    2  C   UNK N   1      -2.472  -4.096   0.374  0.00  0.00     0.092 A 
HETATM    3  C   UNK N   1      -1.639  -5.191   0.088  0.00  0.00     0.031 A 
HETATM    4  C   UNK N   1      -0.357  -4.669   0.023  0.00  0.00    -0.008 A 
HETATM    5  C   UNK N   1      -0.452  -3.339   0.267  0.00  0.00     0.046 A 
HETATM    6  C   UNK N   1       0.881  -5.268  -0.238  0.00  0.00     0.016 A 
HETATM    7  C   UNK N   1       2.034  -4.440  -0.238  0.00  0.00     0.030 A 
HETATM    8  C   UNK N   1       1.911  -3.047   0.002  0.00  0.00     0.038 A 
HETATM    9  C   UNK N   1       0.644  -2.514   0.271  0.00  0.00     0.060 A 
ENDROOT
BRANCH   1  10
HETATM   10  C   UNK N   1      -2.180  -1.614   0.738  0.00  0.00     0.131 C 
BRANCH  10  11
HETATM   11  C   UNK N   1      -1.737  -0.708  -0.417  0.00  0.00     0.048 C 
BRANCH  11  12
HETATM   12  C   UNK N   1      -2.136   0.770  -0.307  0.00  0.00     0.115 C 
BRANCH  12  13
HETATM   13  N   UNK N   1      -3.590   0.950  -0.267  0.00  0.00    -0.344 N 
HETATM   14  C   UNK N   1      -4.228   2.132  -0.338  0.00  0.00     0.127 A 
HETATM   15  C   UNK N   1      -5.578   1.861  -0.312  0.00  0.00     0.117 A 
HETATM   16  N   UNK N   1      -5.775   0.532  -0.221  0.00  0.00    -0.347 N 
HETATM   17  C   UNK N   1      -4.541  -0.006  -0.202  0.00  0.00     0.183 A 
ATOM     18  HN  UNK N   1      -6.667   0.039  -0.177  1.00  0.00     0.167 HD
BRANCH  15  19
HETATM   19  C   UNK N   1      -6.663   2.846  -0.402  0.00  0.00     0.267 C 
HETATM   20  O   UNK N   1      -7.826   2.476  -0.368  0.00  0.00    -0.266 OA
HETATM   21  N   UNK N   1      -6.382   4.157  -0.543  0.00  0.00    -0.365 N 
HETATM   22  H   UNK N   1      -5.451   4.458  -0.645  0.00  0.00     0.159 HD
HETATM   23  H   UNK N   1      -7.113   4.816  -0.543  0.00  0.00     0.159 HD
ENDBRANCH  15  19
ENDBRANCH  12  13
BRANCH  12  24
HETATM   24  C   UNK N   1      -1.485   1.452   0.897  0.00  0.00     0.189 C 
BRANCH  24  25
HETATM   25  O   UNK N   1      -0.098   1.505   0.743  0.00  0.00    -0.399 OA
HETATM   26  H   UNK N   1       0.415   0.690   0.636  0.00  0.00     0.209 HD
ENDBRANCH  24  25
ENDBRANCH  12  24
ENDBRANCH  11  12
ENDBRANCH  10  11
ENDBRANCH   1  10
BRANCH   8  27
HETATM   27  N   UNK N   1       3.056  -2.196   0.080  0.00  0.00    -0.309 N 
HETATM   28  C   UNK N   1       2.947  -0.833   0.054  0.00  0.00     0.320 C 
HETATM   29  O   UNK N   1       1.896  -0.300  -0.281  0.00  0.00    -0.247 OA
HETATM   30  N   UNK N   1       3.974  -0.059   0.471  0.00  0.00    -0.339 N 
HETATM   31  H   UNK N   1       4.857  -0.453   0.655  0.00  0.00     0.164 HD
HETATM   32  H   UNK N   1       3.949  -2.602   0.153  0.00  0.00     0.170 HD
BRANCH  30  33
HETATM   33  C   UNK N   1       3.749   1.361   0.641  0.00  0.00     0.162 C 
BRANCH  33  34
HETATM   34  C   UNK N   1       4.925   2.212   0.319  0.00  0.00    -0.040 A 
HETATM   35  C   UNK N   1       6.162   1.665  -0.042  0.00  0.00     0.009 A 
HETATM   36  C   UNK N   1       7.239   2.509  -0.325  0.00  0.00     0.001 A 
HETATM   37  C   UNK N   1       7.081   3.897  -0.250  0.00  0.00     0.000 A 
HETATM   38  C   UNK N   1       5.846   4.442   0.110  0.00  0.00     0.001 A 
HETATM   39  C   UNK N   1       4.771   3.600   0.395  0.00  0.00     0.009 A 
ENDBRANCH  33  34
ENDBRANCH  30  33
ENDBRANCH   8  27
TORSDOF 10
