MODEL 1
REMARK VINA RESULT:      -8.5      0.000      0.000
REMARK  10 active torsions:
REMARK  status: ('A' for Active; 'I' for Inactive)
REMARK    1  A    between atoms: C_10  and  N_2 
REMARK    2  A    between atoms: C_6  and  C_7 
REMARK       I    between atoms: C_7  and  N_9 
REMARK    3  A    between atoms: C_10  and  C_11 
REMARK    4  A    between atoms: C_10  and  C_13 
REMARK    5  A    between atoms: C_11  and  O_12 
REMARK    6  A    between atoms: C_13  and  C_14 
REMARK    7  A    between atoms: C_14  and  N_15 
REMARK    8  A    between atoms: C_22  and  N_24 
REMARK       I    between atoms: N_24  and  C_25 
REMARK       I    between atoms: C_25  and  N_27 
REMARK    9  A    between atoms: N_27  and  C_28 
REMARK   10  A    between atoms: C_28  and  C_30 
ROOT
HETATM    1  N   UNK N   1      35.459  15.012   8.984  0.00  0.00    -0.356 N 
HETATM    2  C   UNK N   1      35.704  14.392   7.807  0.00  0.00     0.092 A 
HETATM    3  C   UNK N   1      36.507  13.262   8.036  0.00  0.00     0.031 A 
HETATM    4  C   UNK N   1      36.730  13.242   9.404  0.00  0.00    -0.008 A 
HETATM    5  C   UNK N   1      36.079  14.307   9.933  0.00  0.00     0.046 A 
HETATM    6  C   UNK N   1      37.461  12.368  10.216  0.00  0.00     0.016 A 
HETATM    7  C   UNK N   1      37.499  12.630  11.611  0.00  0.00     0.030 A 
HETATM    8  C   UNK N   1      36.826  13.760  12.142  0.00  0.00     0.038 A 
HETATM    9  C   UNK N   1      36.100  14.587  11.275  0.00  0.00     0.060 A 
ENDROOT
BRANCH   1  10
HETATM   10  C   UNK N   1      34.690  16.237   9.203  0.00  0.00     0.131 C 
BRANCH  10  11
HETATM   11  C   UNK N   1      33.234  15.992   8.790  0.00  0.00     0.048 C 
BRANCH  11  12
HETATM   12  C   UNK N   1      32.778  16.665   7.489  0.00  0.00     0.115 C 
BRANCH  12  13
HETATM   13  N   UNK N   1      31.337  16.928   7.476  0.00  0.00    -0.344 N 
HETATM   14  C   UNK N   1      30.579  17.154   8.564  0.00  0.00     0.127 A 
HETATM   15  C   UNK N   1      29.299  17.400   8.117  0.00  0.00     0.117 A 
HETATM   16  N   UNK N   1      29.262  17.322   6.774  0.00  0.00    -0.347 N 
HETATM   17  C   UNK N   1      30.525  17.039   6.402  0.00  0.00     0.183 A 
ATOM     18  HN  UNK N   1      28.452  17.451   6.167  1.00  0.00     0.167 HD
BRANCH  15  19
HETATM   19  C   UNK N   1      28.138  17.732   8.952  0.00  0.00     0.267 C 
HETATM   20  O   UNK N   1      27.726  16.926   9.771  0.00  0.00    -0.266 OA
HETATM   21  N   UNK N   1      27.510  18.916   8.804  0.00  0.00    -0.365 N 
HETATM   22  H   UNK N   1      27.788  19.541   8.098  0.00  0.00     0.159 HD
HETATM   23  H   UNK N   1      26.770  19.154   9.407  0.00  0.00     0.159 HD
ENDBRANCH  15  19
ENDBRANCH  12  13
BRANCH  12  24
HETATM   24  C   UNK N   1      33.554  17.953   7.207  0.00  0.00     0.189 C 
BRANCH  24  25
HETATM   25  O   UNK N   1      34.181  17.888   5.961  0.00  0.00    -0.399 OA
HETATM   26  H   UNK N   1      33.767  17.409   5.228  0.00  0.00     0.209 HD
ENDBRANCH  24  25
ENDBRANCH  12  24
ENDBRANCH  11  12
ENDBRANCH  10  11
ENDBRANCH   1  10
BRANCH   8  27
HETATM   27  N   UNK N   1      36.783  14.016  13.547  0.00  0.00    -0.309 N 
HETATM   28  C   UNK N   1      35.727  13.623  14.322  0.00  0.00     0.320 C 
HETATM   29  O   UNK N   1      34.678  13.260  13.804  0.00  0.00    -0.247 OA
HETATM   30  N   UNK N   1      35.854  13.558  15.666  0.00  0.00    -0.339 N 
HETATM   31  H   UNK N   1      36.648  13.930  16.114  0.00  0.00     0.164 HD
HETATM   32  H   UNK N   1      37.535  14.489  13.970  0.00  0.00     0.170 HD
BRANCH  30  33
HETATM   33  C   UNK N   1      34.799  12.931  16.434  0.00  0.00     0.162 C 
BRANCH  33  34
HETATM   34  C   UNK N   1      35.275  12.146  17.603  0.00  0.00    -0.040 A 
HETATM   35  C   UNK N   1      35.177  12.629  18.914  0.00  0.00     0.009 A 
HETATM   36  C   UNK N   1      35.648  11.855  19.977  0.00  0.00     0.001 A 
HETATM   37  C   UNK N   1      36.215  10.600  19.734  0.00  0.00     0.000 A 
HETATM   38  C   UNK N   1      36.313  10.118  18.426  0.00  0.00     0.001 A 
HETATM   39  C   UNK N   1      35.844  10.891  17.363  0.00  0.00     0.009 A 
ENDBRANCH  33  34
ENDBRANCH  30  33
ENDBRANCH   8  27
TORSDOF 10
ENDMDL
MODEL 2
REMARK VINA RESULT:      -8.0      6.759     12.486
REMARK  10 active torsions:
REMARK  status: ('A' for Active; 'I' for Inactive)
REMARK    1  A    between atoms: C_10  and  N_2 
REMARK    2  A    between atoms: C_6  and  C_7 
REMARK       I    between atoms: C_7  and  N_9 
REMARK    3  A    between atoms: C_10  and  C_11 
REMARK    4  A    between atoms: C_10  and  C_13 
REMARK    5  A    between atoms: C_11  and  O_12 
REMARK    6  A    between atoms: C_13  and  C_14 
REMARK    7  A    between atoms: C_14  and  N_15 
REMARK    8  A    between atoms: C_22  and  N_24 
REMARK       I    between atoms: N_24  and  C_25 
REMARK       I    between atoms: C_25  and  N_27 
REMARK    9  A    between atoms: N_27  and  C_28 
REMARK   10  A    between atoms: C_28  and  C_30 
ROOT
HETATM    1  N   UNK N   1      26.583  18.556   4.799  0.00  0.00    -0.356 N 
HETATM    2  C   UNK N   1      27.054  19.547   4.008  0.00  0.00     0.092 A 
HETATM    3  C   UNK N   1      25.978  20.158   3.340  0.00  0.00     0.031 A 
HETATM    4  C   UNK N   1      24.848  19.481   3.770  0.00  0.00    -0.008 A 
HETATM    5  C   UNK N   1      25.258  18.532   4.648  0.00  0.00     0.046 A 
HETATM    6  C   UNK N   1      23.494  19.630   3.448  0.00  0.00     0.016 A 
HETATM    7  C   UNK N   1      22.563  18.757   4.070  0.00  0.00     0.030 A 
HETATM    8  C   UNK N   1      23.014  17.759   4.972  0.00  0.00     0.038 A 
HETATM    9  C   UNK N   1      24.381  17.674   5.261  0.00  0.00     0.060 A 
ENDROOT
BRANCH   1  10
HETATM   10  C   UNK N   1      27.357  17.650   5.647  0.00  0.00     0.131 C 
BRANCH  10  11
HETATM   11  C   UNK N   1      28.296  18.476   6.534  0.00  0.00     0.048 C 
BRANCH  11  12
HETATM   12  C   UNK N   1      29.008  17.712   7.658  0.00  0.00     0.115 C 
BRANCH  12  13
HETATM   13  N   UNK N   1      30.453  17.610   7.429  0.00  0.00    -0.344 N 
HETATM   14  C   UNK N   1      31.405  17.939   8.321  0.00  0.00     0.127 A 
HETATM   15  C   UNK N   1      32.618  17.654   7.735  0.00  0.00     0.117 A 
HETATM   16  N   UNK N   1      32.422  17.160   6.497  0.00  0.00    -0.347 N 
HETATM   17  C   UNK N   1      31.086  17.136   6.335  0.00  0.00     0.183 A 
ATOM     18  HN  UNK N   1      33.133  16.867   5.827  1.00  0.00     0.167 HD
BRANCH  15  19
HETATM   19  C   UNK N   1      33.940  17.820   8.351  0.00  0.00     0.267 C 
HETATM   20  O   UNK N   1      34.819  18.423   7.756  0.00  0.00    -0.266 OA
HETATM   21  N   UNK N   1      34.196  17.291   9.565  0.00  0.00    -0.365 N 
HETATM   22  H   UNK N   1      33.520  16.742  10.021  0.00  0.00     0.159 HD
HETATM   23  H   UNK N   1      35.065  17.458   9.996  0.00  0.00     0.159 HD
ENDBRANCH  15  19
ENDBRANCH  12  13
BRANCH  12  24
HETATM   24  C   UNK N   1      28.732  18.323   9.032  0.00  0.00     0.189 C 
BRANCH  24  25
HETATM   25  O   UNK N   1      27.422  18.056   9.436  0.00  0.00    -0.399 OA
HETATM   26  H   UNK N   1      26.673  18.405   8.931  0.00  0.00     0.209 HD
ENDBRANCH  24  25
ENDBRANCH  12  24
ENDBRANCH  11  12
ENDBRANCH  10  11
ENDBRANCH   1  10
BRANCH   8  27
HETATM   27  N   UNK N   1      22.099  16.911   5.669  0.00  0.00    -0.309 N 
HETATM   28  C   UNK N   1      22.264  15.554   5.717  0.00  0.00     0.320 C 
HETATM   29  O   UNK N   1      23.056  14.998   4.966  0.00  0.00    -0.247 OA
HETATM   30  N   UNK N   1      21.611  14.820   6.646  0.00  0.00    -0.339 N 
HETATM   31  H   UNK N   1      20.902  15.224   7.197  0.00  0.00     0.164 HD
HETATM   32  H   UNK N   1      21.328  17.314   6.127  0.00  0.00     0.170 HD
BRANCH  30  33
HETATM   33  C   UNK N   1      21.975  13.429   6.813  0.00  0.00     0.162 C 
BRANCH  33  34
HETATM   34  C   UNK N   1      21.974  12.960   8.224  0.00  0.00    -0.040 A 
HETATM   35  C   UNK N   1      21.079  13.465   9.175  0.00  0.00     0.009 A 
HETATM   36  C   UNK N   1      21.126  12.997  10.491  0.00  0.00     0.001 A 
HETATM   37  C   UNK N   1      22.063  12.025  10.856  0.00  0.00     0.000 A 
HETATM   38  C   UNK N   1      22.955  11.520   9.906  0.00  0.00     0.001 A 
HETATM   39  C   UNK N   1      22.910  11.989   8.593  0.00  0.00     0.009 A 
ENDBRANCH  33  34
ENDBRANCH  30  33
ENDBRANCH   8  27
TORSDOF 10
ENDMDL
MODEL 3
REMARK VINA RESULT:      -8.0      7.752     12.747
REMARK  10 active torsions:
REMARK  status: ('A' for Active; 'I' for Inactive)
REMARK    1  A    between atoms: C_10  and  N_2 
REMARK    2  A    between atoms: C_6  and  C_7 
REMARK       I    between atoms: C_7  and  N_9 
REMARK    3  A    between atoms: C_10  and  C_11 
REMARK    4  A    between atoms: C_10  and  C_13 
REMARK    5  A    between atoms: C_11  and  O_12 
REMARK    6  A    between atoms: C_13  and  C_14 
REMARK    7  A    between atoms: C_14  and  N_15 
REMARK    8  A    between atoms: C_22  and  N_24 
REMARK       I    between atoms: N_24  and  C_25 
REMARK       I    between atoms: C_25  and  N_27 
REMARK    9  A    between atoms: N_27  and  C_28 
REMARK   10  A    between atoms: C_28  and  C_30 
ROOT
HETATM    1  N   UNK N   1      22.720  17.858   4.154  0.00  0.00    -0.356 N 
HETATM    2  C   UNK N   1      21.728  18.710   3.809  0.00  0.00     0.092 A 
HETATM    3  C   UNK N   1      22.289  19.901   3.315  0.00  0.00     0.031 A 
HETATM    4  C   UNK N   1      23.661  19.716   3.387  0.00  0.00    -0.008 A 
HETATM    5  C   UNK N   1      23.874  18.476   3.892  0.00  0.00     0.046 A 
HETATM    6  C   UNK N   1      24.732  20.552   3.050  0.00  0.00     0.016 A 
HETATM    7  C   UNK N   1      26.049  20.060   3.252  0.00  0.00     0.030 A 
HETATM    8  C   UNK N   1      26.250  18.766   3.798  0.00  0.00     0.038 A 
HETATM    9  C   UNK N   1      25.134  17.975   4.099  0.00  0.00     0.060 A 
ENDROOT
BRANCH   1  10
HETATM   10  C   UNK N   1      22.586  16.522   4.733  0.00  0.00     0.131 C 
BRANCH  10  11
HETATM   11  C   UNK N   1      22.505  16.647   6.259  0.00  0.00     0.048 C 
BRANCH  11  12
HETATM   12  C   UNK N   1      21.177  16.224   6.902  0.00  0.00     0.115 C 
BRANCH  12  13
HETATM   13  N   UNK N   1      21.364  15.219   7.952  0.00  0.00    -0.344 N 
HETATM   14  C   UNK N   1      22.368  14.326   8.002  0.00  0.00     0.127 A 
HETATM   15  C   UNK N   1      22.205  13.603   9.162  0.00  0.00     0.117 A 
HETATM   16  N   UNK N   1      21.113  14.037   9.820  0.00  0.00    -0.347 N 
HETATM   17  C   UNK N   1      20.618  15.033   9.062  0.00  0.00     0.183 A 
ATOM     18  HN  UNK N   1      20.741  13.687  10.703  1.00  0.00     0.167 HD
BRANCH  15  19
HETATM   19  C   UNK N   1      23.087  12.537   9.653  0.00  0.00     0.267 C 
HETATM   20  O   UNK N   1      22.621  11.601  10.282  0.00  0.00    -0.266 OA
HETATM   21  N   UNK N   1      24.416  12.597   9.429  0.00  0.00    -0.365 N 
HETATM   22  H   UNK N   1      24.811  13.382   8.988  0.00  0.00     0.159 HD
HETATM   23  H   UNK N   1      24.992  11.850   9.710  0.00  0.00     0.159 HD
ENDBRANCH  15  19
ENDBRANCH  12  13
BRANCH  12  24
HETATM   24  C   UNK N   1      20.396  17.421   7.447  0.00  0.00     0.189 C 
BRANCH  24  25
HETATM   25  O   UNK N   1      21.086  18.611   7.204  0.00  0.00    -0.399 OA
HETATM   26  H   UNK N   1      20.826  19.429   7.654  0.00  0.00     0.209 HD
ENDBRANCH  24  25
ENDBRANCH  12  24
ENDBRANCH  11  12
ENDBRANCH  10  11
ENDBRANCH   1  10
BRANCH   8  27
HETATM   27  N   UNK N   1      27.558  18.211   3.948  0.00  0.00    -0.309 N 
HETATM   28  C   UNK N   1      28.185  18.155   5.162  0.00  0.00     0.320 C 
HETATM   29  O   UNK N   1      27.754  18.795   6.114  0.00  0.00    -0.247 OA
HETATM   30  N   UNK N   1      29.243  17.334   5.346  0.00  0.00    -0.339 N 
HETATM   31  H   UNK N   1      29.666  16.882   4.581  0.00  0.00     0.164 HD
HETATM   32  H   UNK N   1      28.022  17.860   3.155  0.00  0.00     0.170 HD
BRANCH  30  33
HETATM   33  C   UNK N   1      29.740  17.132   6.690  0.00  0.00     0.162 C 
BRANCH  33  34
HETATM   34  C   UNK N   1      31.207  17.325   6.838  0.00  0.00    -0.040 A 
HETATM   35  C   UNK N   1      32.084  17.217   5.752  0.00  0.00     0.009 A 
HETATM   36  C   UNK N   1      33.456  17.397   5.947  0.00  0.00     0.001 A 
HETATM   37  C   UNK N   1      33.951  17.687   7.223  0.00  0.00     0.000 A 
HETATM   38  C   UNK N   1      33.075  17.794   8.305  0.00  0.00     0.001 A 
HETATM   39  C   UNK N   1      31.706  17.612   8.113  0.00  0.00     0.009 A 
ENDBRANCH  33  34
ENDBRANCH  30  33
ENDBRANCH   8  27
TORSDOF 10
ENDMDL
MODEL 4
REMARK VINA RESULT:      -7.9      7.626     13.027
REMARK  10 active torsions:
REMARK  status: ('A' for Active; 'I' for Inactive)
REMARK    1  A    between atoms: C_10  and  N_2 
REMARK    2  A    between atoms: C_6  and  C_7 
REMARK       I    between atoms: C_7  and  N_9 
REMARK    3  A    between atoms: C_10  and  C_11 
REMARK    4  A    between atoms: C_10  and  C_13 
REMARK    5  A    between atoms: C_11  and  O_12 
REMARK    6  A    between atoms: C_13  and  C_14 
REMARK    7  A    between atoms: C_14  and  N_15 
REMARK    8  A    between atoms: C_22  and  N_24 
REMARK       I    between atoms: N_24  and  C_25 
REMARK       I    between atoms: C_25  and  N_27 
REMARK    9  A    between atoms: N_27  and  C_28 
REMARK   10  A    between atoms: C_28  and  C_30 
ROOT
HETATM    1  N   UNK N   1      22.873  17.940   3.941  0.00  0.00    -0.356 N 
HETATM    2  C   UNK N   1      21.924  18.838   3.589  0.00  0.00     0.092 A 
HETATM    3  C   UNK N   1      22.543  20.037   3.197  0.00  0.00     0.031 A 
HETATM    4  C   UNK N   1      23.903  19.810   3.335  0.00  0.00    -0.008 A 
HETATM    5  C   UNK N   1      24.055  18.538   3.779  0.00  0.00     0.046 A 
HETATM    6  C   UNK N   1      25.013  20.631   3.107  0.00  0.00     0.016 A 
HETATM    7  C   UNK N   1      26.303  20.092   3.354  0.00  0.00     0.030 A 
HETATM    8  C   UNK N   1      26.439  18.764   3.836  0.00  0.00     0.038 A 
HETATM    9  C   UNK N   1      25.287  17.990   4.029  0.00  0.00     0.060 A 
ENDROOT
BRANCH   1  10
HETATM   10  C   UNK N   1      22.671  16.579   4.435  0.00  0.00     0.131 C 
BRANCH  10  11
HETATM   11  C   UNK N   1      21.186  16.217   4.308  0.00  0.00     0.048 C 
BRANCH  11  12
HETATM   12  C   UNK N   1      20.655  15.185   5.312  0.00  0.00     0.115 C 
BRANCH  12  13
HETATM   13  N   UNK N   1      20.543  15.735   6.666  0.00  0.00    -0.344 N 
HETATM   14  C   UNK N   1      19.911  16.877   6.990  0.00  0.00     0.127 A 
HETATM   15  C   UNK N   1      19.997  17.009   8.358  0.00  0.00     0.117 A 
HETATM   16  N   UNK N   1      20.676  15.967   8.875  0.00  0.00    -0.347 N 
HETATM   17  C   UNK N   1      20.994  15.196   7.818  0.00  0.00     0.183 A 
ATOM     18  HN  UNK N   1      20.900  15.799   9.856  1.00  0.00     0.167 HD
BRANCH  15  19
HETATM   19  C   UNK N   1      19.418  18.091   9.164  0.00  0.00     0.267 C 
HETATM   20  O   UNK N   1      20.135  18.983   9.590  0.00  0.00    -0.266 OA
HETATM   21  N   UNK N   1      18.102  18.094   9.454  0.00  0.00    -0.365 N 
HETATM   22  H   UNK N   1      17.530  17.343   9.178  0.00  0.00     0.159 HD
HETATM   23  H   UNK N   1      17.711  18.853   9.944  0.00  0.00     0.159 HD
ENDBRANCH  15  19
ENDBRANCH  12  13
BRANCH  12  24
HETATM   24  C   UNK N   1      19.317  14.590   4.870  0.00  0.00     0.189 C 
BRANCH  24  25
HETATM   25  O   UNK N   1      19.144  13.313   5.407  0.00  0.00    -0.399 OA
HETATM   26  H   UNK N   1      18.999  12.551   4.825  0.00  0.00     0.209 HD
ENDBRANCH  24  25
ENDBRANCH  12  24
ENDBRANCH  11  12
ENDBRANCH  10  11
ENDBRANCH   1  10
BRANCH   8  27
HETATM   27  N   UNK N   1      27.722  18.164   4.028  0.00  0.00    -0.309 N 
HETATM   28  C   UNK N   1      28.362  18.198   5.236  0.00  0.00     0.320 C 
HETATM   29  O   UNK N   1      27.975  18.947   6.124  0.00  0.00    -0.247 OA
HETATM   30  N   UNK N   1      29.383  17.348   5.490  0.00  0.00    -0.339 N 
HETATM   31  H   UNK N   1      29.774  16.804   4.769  0.00  0.00     0.164 HD
HETATM   32  H   UNK N   1      28.158  17.716   3.269  0.00  0.00     0.170 HD
BRANCH  30  33
HETATM   33  C   UNK N   1      29.889  17.255   6.843  0.00  0.00     0.162 C 
BRANCH  33  34
HETATM   34  C   UNK N   1      31.366  17.378   6.956  0.00  0.00    -0.040 A 
HETATM   35  C   UNK N   1      32.208  17.270   5.843  0.00  0.00     0.009 A 
HETATM   36  C   UNK N   1      33.592  17.383   6.005  0.00  0.00     0.001 A 
HETATM   37  C   UNK N   1      34.133  17.606   7.275  0.00  0.00     0.000 A 
HETATM   38  C   UNK N   1      33.292  17.715   8.385  0.00  0.00     0.001 A 
HETATM   39  C   UNK N   1      31.911  17.600   8.225  0.00  0.00     0.009 A 
ENDBRANCH  33  34
ENDBRANCH  30  33
ENDBRANCH   8  27
TORSDOF 10
ENDMDL
MODEL 5
REMARK VINA RESULT:      -7.8      1.909      2.783
REMARK  10 active torsions:
REMARK  status: ('A' for Active; 'I' for Inactive)
REMARK    1  A    between atoms: C_10  and  N_2 
REMARK    2  A    between atoms: C_6  and  C_7 
REMARK       I    between atoms: C_7  and  N_9 
REMARK    3  A    between atoms: C_10  and  C_11 
REMARK    4  A    between atoms: C_10  and  C_13 
REMARK    5  A    between atoms: C_11  and  O_12 
REMARK    6  A    between atoms: C_13  and  C_14 
REMARK    7  A    between atoms: C_14  and  N_15 
REMARK    8  A    between atoms: C_22  and  N_24 
REMARK       I    between atoms: N_24  and  C_25 
REMARK       I    between atoms: C_25  and  N_27 
REMARK    9  A    between atoms: N_27  and  C_28 
REMARK   10  A    between atoms: C_28  and  C_30 
ROOT
HETATM    1  N   UNK N   1      34.601  16.025   8.390  0.00  0.00    -0.356 N 
HETATM    2  C   UNK N   1      34.779  15.692   7.092  0.00  0.00     0.092 A 
HETATM    3  C   UNK N   1      35.717  14.650   7.005  0.00  0.00     0.031 A 
HETATM    4  C   UNK N   1      36.091  14.383   8.312  0.00  0.00    -0.008 A 
HETATM    5  C   UNK N   1      35.393  15.228   9.110  0.00  0.00     0.046 A 
HETATM    6  C   UNK N   1      36.996  13.462   8.853  0.00  0.00     0.016 A 
HETATM    7  C   UNK N   1      37.160  13.440  10.263  0.00  0.00     0.030 A 
HETATM    8  C   UNK N   1      36.434  14.346  11.079  0.00  0.00     0.038 A 
HETATM    9  C   UNK N   1      35.533  15.232  10.474  0.00  0.00     0.060 A 
ENDROOT
BRANCH   1  10
HETATM   10  C   UNK N   1      33.736  17.074   8.931  0.00  0.00     0.131 C 
BRANCH  10  11
HETATM   11  C   UNK N   1      32.276  16.616   8.832  0.00  0.00     0.048 C 
BRANCH  11  12
HETATM   12  C   UNK N   1      31.359  17.472   7.948  0.00  0.00     0.115 C 
BRANCH  12  13
HETATM   13  N   UNK N   1      30.860  16.732   6.786  0.00  0.00    -0.344 N 
HETATM   14  C   UNK N   1      30.224  17.276   5.733  0.00  0.00     0.127 A 
HETATM   15  C   UNK N   1      29.966  16.254   4.848  0.00  0.00     0.117 A 
HETATM   16  N   UNK N   1      30.429  15.091   5.346  0.00  0.00    -0.347 N 
HETATM   17  C   UNK N   1      30.979  15.411   6.532  0.00  0.00     0.183 A 
ATOM     18  HN  UNK N   1      30.375  14.167   4.917  1.00  0.00     0.167 HD
BRANCH  15  19
HETATM   19  C   UNK N   1      29.317  16.383   3.537  0.00  0.00     0.267 C 
HETATM   20  O   UNK N   1      28.131  16.119   3.417  0.00  0.00    -0.266 OA
HETATM   21  N   UNK N   1      30.029  16.771   2.461  0.00  0.00    -0.365 N 
HETATM   22  H   UNK N   1      30.999  16.915   2.531  0.00  0.00     0.159 HD
HETATM   23  H   UNK N   1      29.574  16.913   1.599  0.00  0.00     0.159 HD
ENDBRANCH  15  19
ENDBRANCH  12  13
BRANCH  12  24
HETATM   24  C   UNK N   1      30.192  18.066   8.739  0.00  0.00     0.189 C 
BRANCH  24  25
HETATM   25  O   UNK N   1      30.057  17.427   9.973  0.00  0.00    -0.399 OA
HETATM   26  H   UNK N   1      30.791  16.912  10.341  0.00  0.00     0.209 HD
ENDBRANCH  24  25
ENDBRANCH  12  24
ENDBRANCH  11  12
ENDBRANCH  10  11
ENDBRANCH   1  10
BRANCH   8  27
HETATM   27  N   UNK N   1      36.520  14.305  12.505  0.00  0.00    -0.309 N 
HETATM   28  C   UNK N   1      35.646  13.573  13.261  0.00  0.00     0.320 C 
HETATM   29  O   UNK N   1      34.618  13.128  12.766  0.00  0.00    -0.247 OA
HETATM   30  N   UNK N   1      35.944  13.269  14.544  0.00  0.00    -0.339 N 
HETATM   31  H   UNK N   1      36.713  13.689  14.994  0.00  0.00     0.164 HD
HETATM   32  H   UNK N   1      37.227  14.818  12.956  0.00  0.00     0.170 HD
BRANCH  30  33
HETATM   33  C   UNK N   1      35.111  12.313  15.243  0.00  0.00     0.162 C 
BRANCH  33  34
HETATM   34  C   UNK N   1      35.182  12.405  16.725  0.00  0.00    -0.040 A 
HETATM   35  C   UNK N   1      35.079  13.628  17.400  0.00  0.00     0.009 A 
HETATM   36  C   UNK N   1      35.162  13.661  18.794  0.00  0.00     0.001 A 
HETATM   37  C   UNK N   1      35.346  12.476  19.514  0.00  0.00     0.000 A 
HETATM   38  C   UNK N   1      35.448  11.256  18.840  0.00  0.00     0.001 A 
HETATM   39  C   UNK N   1      35.368  11.223  17.448  0.00  0.00     0.009 A 
ENDBRANCH  33  34
ENDBRANCH  30  33
ENDBRANCH   8  27
TORSDOF 10
ENDMDL
MODEL 6
REMARK VINA RESULT:      -7.7      7.580     13.219
REMARK  10 active torsions:
REMARK  status: ('A' for Active; 'I' for Inactive)
REMARK    1  A    between atoms: C_10  and  N_2 
REMARK    2  A    between atoms: C_6  and  C_7 
REMARK       I    between atoms: C_7  and  N_9 
REMARK    3  A    between atoms: C_10  and  C_11 
REMARK    4  A    between atoms: C_10  and  C_13 
REMARK    5  A    between atoms: C_11  and  O_12 
REMARK    6  A    between atoms: C_13  and  C_14 
REMARK    7  A    between atoms: C_14  and  N_15 
REMARK    8  A    between atoms: C_22  and  N_24 
REMARK       I    between atoms: N_24  and  C_25 
REMARK       I    between atoms: C_25  and  N_27 
REMARK    9  A    between atoms: N_27  and  C_28 
REMARK   10  A    between atoms: C_28  and  C_30 
ROOT
HETATM    1  N   UNK N   1      23.125  18.011   4.395  0.00  0.00    -0.356 N 
HETATM    2  C   UNK N   1      22.082  18.768   3.984  0.00  0.00     0.092 A 
HETATM    3  C   UNK N   1      22.570  19.912   3.329  0.00  0.00     0.031 A 
HETATM    4  C   UNK N   1      23.950  19.799   3.373  0.00  0.00    -0.008 A 
HETATM    5  C   UNK N   1      24.238  18.642   4.018  0.00  0.00     0.046 A 
HETATM    6  C   UNK N   1      24.969  20.633   2.898  0.00  0.00     0.016 A 
HETATM    7  C   UNK N   1      26.313  20.229   3.111  0.00  0.00     0.030 A 
HETATM    8  C   UNK N   1      26.594  19.023   3.804  0.00  0.00     0.038 A 
HETATM    9  C   UNK N   1      25.527  18.227   4.240  0.00  0.00     0.060 A 
ENDROOT
BRANCH   1  10
HETATM   10  C   UNK N   1      23.073  16.752   5.138  0.00  0.00     0.131 C 
BRANCH  10  11
HETATM   11  C   UNK N   1      23.049  15.586   4.143  0.00  0.00     0.048 C 
BRANCH  11  12
HETATM   12  C   UNK N   1      21.843  14.642   4.238  0.00  0.00     0.115 C 
BRANCH  12  13
HETATM   13  N   UNK N   1      20.933  14.789   3.099  0.00  0.00    -0.344 N 
HETATM   14  C   UNK N   1      20.851  15.872   2.306  0.00  0.00     0.127 A 
HETATM   15  C   UNK N   1      19.914  15.589   1.337  0.00  0.00     0.117 A 
HETATM   16  N   UNK N   1      19.418  14.352   1.529  0.00  0.00    -0.347 N 
HETATM   17  C   UNK N   1      20.064  13.878   2.611  0.00  0.00     0.183 A 
ATOM     18  HN  UNK N   1      18.707  13.875   0.973  1.00  0.00     0.167 HD
BRANCH  15  19
HETATM   19  C   UNK N   1      19.517  16.468   0.230  0.00  0.00     0.267 C 
HETATM   20  O   UNK N   1      20.345  17.192  -0.300  0.00  0.00    -0.266 OA
HETATM   21  N   UNK N   1      18.237  16.496  -0.192  0.00  0.00    -0.365 N 
HETATM   22  H   UNK N   1      17.548  15.973   0.276  0.00  0.00     0.159 HD
HETATM   23  H   UNK N   1      17.991  17.044  -0.972  0.00  0.00     0.159 HD
ENDBRANCH  15  19
ENDBRANCH  12  13
BRANCH  12  24
HETATM   24  C   UNK N   1      22.269  13.181   4.390  0.00  0.00     0.189 C 
BRANCH  24  25
HETATM   25  O   UNK N   1      22.450  12.858   5.737  0.00  0.00    -0.399 OA
HETATM   26  H   UNK N   1      22.239  11.969   6.060  0.00  0.00     0.209 HD
ENDBRANCH  24  25
ENDBRANCH  12  24
ENDBRANCH  11  12
ENDBRANCH  10  11
ENDBRANCH   1  10
BRANCH   8  27
HETATM   27  N   UNK N   1      27.931  18.549   3.973  0.00  0.00    -0.309 N 
HETATM   28  C   UNK N   1      28.483  18.371   5.212  0.00  0.00     0.320 C 
HETATM   29  O   UNK N   1      27.942  18.838   6.207  0.00  0.00    -0.247 OA
HETATM   30  N   UNK N   1      29.591  17.611   5.361  0.00  0.00    -0.339 N 
HETATM   31  H   UNK N   1      30.098  17.303   4.575  0.00  0.00     0.164 HD
HETATM   32  H   UNK N   1      28.471  18.348   3.177  0.00  0.00     0.170 HD
BRANCH  30  33
HETATM   33  C   UNK N   1      30.018  17.260   6.699  0.00  0.00     0.162 C 
BRANCH  33  34
HETATM   34  C   UNK N   1      31.483  17.375   6.926  0.00  0.00    -0.040 A 
HETATM   35  C   UNK N   1      32.409  17.249   5.884  0.00  0.00     0.009 A 
HETATM   36  C   UNK N   1      33.776  17.355   6.153  0.00  0.00     0.001 A 
HETATM   37  C   UNK N   1      34.218  17.588   7.459  0.00  0.00     0.000 A 
HETATM   38  C   UNK N   1      33.293  17.714   8.499  0.00  0.00     0.001 A 
HETATM   39  C   UNK N   1      31.929  17.606   8.232  0.00  0.00     0.009 A 
ENDBRANCH  33  34
ENDBRANCH  30  33
ENDBRANCH   8  27
TORSDOF 10
ENDMDL
MODEL 7
REMARK VINA RESULT:      -7.6      3.021      5.537
REMARK  10 active torsions:
REMARK  status: ('A' for Active; 'I' for Inactive)
REMARK    1  A    between atoms: C_10  and  N_2 
REMARK    2  A    between atoms: C_6  and  C_7 
REMARK       I    between atoms: C_7  and  N_9 
REMARK    3  A    between atoms: C_10  and  C_11 
REMARK    4  A    between atoms: C_10  and  C_13 
REMARK    5  A    between atoms: C_11  and  O_12 
REMARK    6  A    between atoms: C_13  and  C_14 
REMARK    7  A    between atoms: C_14  and  N_15 
REMARK    8  A    between atoms: C_22  and  N_24 
REMARK       I    between atoms: N_24  and  C_25 
REMARK       I    between atoms: C_25  and  N_27 
REMARK    9  A    between atoms: N_27  and  C_28 
REMARK   10  A    between atoms: C_28  and  C_30 
ROOT
HETATM    1  N   UNK N   1      30.788  16.326   4.836  0.00  0.00    -0.356 N 
HETATM    2  C   UNK N   1      31.208  16.904   3.687  0.00  0.00     0.092 A 
HETATM    3  C   UNK N   1      32.477  17.472   3.891  0.00  0.00     0.031 A 
HETATM    4  C   UNK N   1      32.789  17.207   5.215  0.00  0.00    -0.008 A 
HETATM    5  C   UNK N   1      31.750  16.514   5.741  0.00  0.00     0.046 A 
HETATM    6  C   UNK N   1      33.908  17.530   5.991  0.00  0.00     0.016 A 
HETATM    7  C   UNK N   1      33.922  17.109   7.346  0.00  0.00     0.030 A 
HETATM    8  C   UNK N   1      32.816  16.400   7.884  0.00  0.00     0.038 A 
HETATM    9  C   UNK N   1      31.734  16.097   7.048  0.00  0.00     0.060 A 
ENDROOT
BRANCH   1  10
HETATM   10  C   UNK N   1      29.516  15.646   5.078  0.00  0.00     0.131 C 
BRANCH  10  11
HETATM   11  C   UNK N   1      28.391  16.434   4.397  0.00  0.00     0.048 C 
BRANCH  11  12
HETATM   12  C   UNK N   1      27.770  17.571   5.221  0.00  0.00     0.115 C 
BRANCH  12  13
HETATM   13  N   UNK N   1      27.878  17.333   6.663  0.00  0.00    -0.344 N 
HETATM   14  C   UNK N   1      28.816  17.862   7.469  0.00  0.00     0.127 A 
HETATM   15  C   UNK N   1      28.538  17.429   8.746  0.00  0.00     0.117 A 
HETATM   16  N   UNK N   1      27.446  16.640   8.733  0.00  0.00    -0.347 N 
HETATM   17  C   UNK N   1      27.055  16.602   7.445  0.00  0.00     0.183 A 
ATOM     18  HN  UNK N   1      27.010  16.172   9.527  1.00  0.00     0.167 HD
BRANCH  15  19
HETATM   19  C   UNK N   1      29.278  17.782   9.963  0.00  0.00     0.267 C 
HETATM   20  O   UNK N   1      29.592  18.944  10.170  0.00  0.00    -0.266 OA
HETATM   21  N   UNK N   1      29.633  16.827  10.846  0.00  0.00    -0.365 N 
HETATM   22  H   UNK N   1      29.450  15.879  10.654  0.00  0.00     0.159 HD
HETATM   23  H   UNK N   1      30.077  17.079  11.687  0.00  0.00     0.159 HD
ENDBRANCH  15  19
ENDBRANCH  12  13
BRANCH  12  24
HETATM   24  C   UNK N   1      28.368  18.932   4.863  0.00  0.00     0.189 C 
BRANCH  24  25
HETATM   25  O   UNK N   1      27.415  19.942   5.004  0.00  0.00    -0.399 OA
HETATM   26  H   UNK N   1      26.595  19.919   4.487  0.00  0.00     0.209 HD
ENDBRANCH  24  25
ENDBRANCH  12  24
ENDBRANCH  11  12
ENDBRANCH  10  11
ENDBRANCH   1  10
BRANCH   8  27
HETATM   27  N   UNK N   1      32.825  15.900   9.222  0.00  0.00    -0.309 N 
HETATM   28  C   UNK N   1      33.514  14.769   9.566  0.00  0.00     0.320 C 
HETATM   29  O   UNK N   1      33.943  14.015   8.701  0.00  0.00    -0.247 OA
HETATM   30  N   UNK N   1      33.796  14.511  10.863  0.00  0.00    -0.339 N 
HETATM   31  H   UNK N   1      33.387  15.045  11.581  0.00  0.00     0.164 HD
HETATM   32  H   UNK N   1      32.321  16.381   9.915  0.00  0.00     0.170 HD
BRANCH  30  33
HETATM   33  C   UNK N   1      34.711  13.434  11.174  0.00  0.00     0.162 C 
BRANCH  33  34
HETATM   34  C   UNK N   1      35.220  13.443  12.571  0.00  0.00    -0.040 A 
HETATM   35  C   UNK N   1      34.884  12.443  13.491  0.00  0.00     0.009 A 
HETATM   36  C   UNK N   1      35.381  12.504  14.796  0.00  0.00     0.001 A 
HETATM   37  C   UNK N   1      36.213  13.561  15.181  0.00  0.00     0.000 A 
HETATM   38  C   UNK N   1      36.547  14.559  14.261  0.00  0.00     0.001 A 
HETATM   39  C   UNK N   1      36.050  14.500  12.959  0.00  0.00     0.009 A 
ENDBRANCH  33  34
ENDBRANCH  30  33
ENDBRANCH   8  27
TORSDOF 10
ENDMDL
MODEL 8
REMARK VINA RESULT:      -7.5     11.510     15.198
REMARK  10 active torsions:
REMARK  status: ('A' for Active; 'I' for Inactive)
REMARK    1  A    between atoms: C_10  and  N_2 
REMARK    2  A    between atoms: C_6  and  C_7 
REMARK       I    between atoms: C_7  and  N_9 
REMARK    3  A    between atoms: C_10  and  C_11 
REMARK    4  A    between atoms: C_10  and  C_13 
REMARK    5  A    between atoms: C_11  and  O_12 
REMARK    6  A    between atoms: C_13  and  C_14 
REMARK    7  A    between atoms: C_14  and  N_15 
REMARK    8  A    between atoms: C_22  and  N_24 
REMARK       I    between atoms: N_24  and  C_25 
REMARK       I    between atoms: C_25  and  N_27 
REMARK    9  A    between atoms: N_27  and  C_28 
REMARK   10  A    between atoms: C_28  and  C_30 
ROOT
HETATM    1  N   UNK N   1      20.133  16.752   1.072  0.00  0.00    -0.356 N 
HETATM    2  C   UNK N   1      19.181  16.142   0.329  0.00  0.00     0.092 A 
HETATM    3  C   UNK N   1      19.330  14.749   0.437  0.00  0.00     0.031 A 
HETATM    4  C   UNK N   1      20.417  14.561   1.277  0.00  0.00    -0.008 A 
HETATM    5  C   UNK N   1      20.864  15.789   1.637  0.00  0.00     0.046 A 
HETATM    6  C   UNK N   1      21.044  13.400   1.743  0.00  0.00     0.016 A 
HETATM    7  C   UNK N   1      22.162  13.548   2.606  0.00  0.00     0.030 A 
HETATM    8  C   UNK N   1      22.625  14.842   2.956  0.00  0.00     0.038 A 
HETATM    9  C   UNK N   1      21.942  15.963   2.466  0.00  0.00     0.060 A 
ENDROOT
BRANCH   1  10
HETATM   10  C   UNK N   1      20.360  18.189   1.223  0.00  0.00     0.131 C 
BRANCH  10  11
HETATM   11  C   UNK N   1      19.796  18.644   2.574  0.00  0.00     0.048 C 
BRANCH  11  12
HETATM   12  C   UNK N   1      20.723  19.513   3.435  0.00  0.00     0.115 C 
BRANCH  12  13
HETATM   13  N   UNK N   1      21.447  18.726   4.437  0.00  0.00    -0.344 N 
HETATM   14  C   UNK N   1      20.907  17.766   5.209  0.00  0.00     0.127 A 
HETATM   15  C   UNK N   1      21.927  17.247   5.975  0.00  0.00     0.117 A 
HETATM   16  N   UNK N   1      23.081  17.878   5.687  0.00  0.00    -0.347 N 
HETATM   17  C   UNK N   1      22.763  18.776   4.736  0.00  0.00     0.183 A 
ATOM     18  HN  UNK N   1      23.998  17.711   6.100  1.00  0.00     0.167 HD
BRANCH  15  19
HETATM   19  C   UNK N   1      21.812  16.149   6.943  0.00  0.00     0.267 C 
HETATM   20  O   UNK N   1      22.578  15.201   6.882  0.00  0.00    -0.266 OA
HETATM   21  N   UNK N   1      20.852  16.173   7.889  0.00  0.00    -0.365 N 
HETATM   22  H   UNK N   1      20.184  16.896   7.902  0.00  0.00     0.159 HD
HETATM   23  H   UNK N   1      20.819  15.464   8.570  0.00  0.00     0.159 HD
ENDBRANCH  15  19
ENDBRANCH  12  13
BRANCH  12  24
HETATM   24  C   UNK N   1      21.705  20.321   2.585  0.00  0.00     0.189 C 
BRANCH  24  25
HETATM   25  O   UNK N   1      21.436  21.687   2.687  0.00  0.00    -0.399 OA
HETATM   26  H   UNK N   1      21.986  22.332   2.217  0.00  0.00     0.209 HD
ENDBRANCH  24  25
ENDBRANCH  12  24
ENDBRANCH  11  12
ENDBRANCH  10  11
ENDBRANCH   1  10
BRANCH   8  27
HETATM   27  N   UNK N   1      23.701  15.030   3.877  0.00  0.00    -0.309 N 
HETATM   28  C   UNK N   1      24.896  15.571   3.493  0.00  0.00     0.320 C 
HETATM   29  O   UNK N   1      25.172  15.687   2.304  0.00  0.00    -0.247 OA
HETATM   30  N   UNK N   1      25.755  16.054   4.418  0.00  0.00    -0.339 N 
HETATM   31  H   UNK N   1      25.604  15.890   5.377  0.00  0.00     0.164 HD
HETATM   32  H   UNK N   1      23.579  14.760   4.816  0.00  0.00     0.170 HD
BRANCH  30  33
HETATM   33  C   UNK N   1      26.902  16.816   3.970  0.00  0.00     0.162 C 
BRANCH  33  34
HETATM   34  C   UNK N   1      26.937  18.219   4.464  0.00  0.00    -0.040 A 
HETATM   35  C   UNK N   1      27.540  18.564   5.679  0.00  0.00     0.009 A 
HETATM   36  C   UNK N   1      27.537  19.895   6.103  0.00  0.00     0.001 A 
HETATM   37  C   UNK N   1      26.936  20.881   5.313  0.00  0.00     0.000 A 
HETATM   38  C   UNK N   1      26.335  20.536   4.100  0.00  0.00     0.001 A 
HETATM   39  C   UNK N   1      26.336  19.206   3.678  0.00  0.00     0.009 A 
ENDBRANCH  33  34
ENDBRANCH  30  33
ENDBRANCH   8  27
TORSDOF 10
ENDMDL
MODEL 9
REMARK VINA RESULT:      -7.5     17.576     21.909
REMARK  10 active torsions:
REMARK  status: ('A' for Active; 'I' for Inactive)
REMARK    1  A    between atoms: C_10  and  N_2 
REMARK    2  A    between atoms: C_6  and  C_7 
REMARK       I    between atoms: C_7  and  N_9 
REMARK    3  A    between atoms: C_10  and  C_11 
REMARK    4  A    between atoms: C_10  and  C_13 
REMARK    5  A    between atoms: C_11  and  O_12 
REMARK    6  A    between atoms: C_13  and  C_14 
REMARK    7  A    between atoms: C_14  and  N_15 
REMARK    8  A    between atoms: C_22  and  N_24 
REMARK       I    between atoms: N_24  and  C_25 
REMARK       I    between atoms: C_25  and  N_27 
REMARK    9  A    between atoms: N_27  and  C_28 
REMARK   10  A    between atoms: C_28  and  C_30 
ROOT
HETATM    1  N   UNK N   1      30.868  19.975  -7.215  0.00  0.00    -0.356 N 
HETATM    2  C   UNK N   1      31.624  19.286  -8.101  0.00  0.00     0.092 A 
HETATM    3  C   UNK N   1      31.015  19.333  -9.366  0.00  0.00     0.031 A 
HETATM    4  C   UNK N   1      29.860  20.079  -9.190  0.00  0.00    -0.008 A 
HETATM    5  C   UNK N   1      29.815  20.447  -7.886  0.00  0.00     0.046 A 
HETATM    6  C   UNK N   1      28.848  20.454 -10.081  0.00  0.00     0.016 A 
HETATM    7  C   UNK N   1      27.773  21.232  -9.577  0.00  0.00     0.030 A 
HETATM    8  C   UNK N   1      27.735  21.592  -8.205  0.00  0.00     0.038 A 
HETATM    9  C   UNK N   1      28.788  21.197  -7.371  0.00  0.00     0.060 A 
ENDROOT
BRANCH   1  10
HETATM   10  C   UNK N   1      31.116  20.159  -5.786  0.00  0.00     0.131 C 
BRANCH  10  11
HETATM   11  C   UNK N   1      32.133  21.291  -5.598  0.00  0.00     0.048 C 
BRANCH  11  12
HETATM   12  C   UNK N   1      31.843  22.277  -4.457  0.00  0.00     0.115 C 
BRANCH  12  13
HETATM   13  N   UNK N   1      30.676  23.118  -4.735  0.00  0.00    -0.344 N 
HETATM   14  C   UNK N   1      29.490  23.032  -4.106  0.00  0.00     0.127 A 
HETATM   15  C   UNK N   1      28.687  24.023  -4.627  0.00  0.00     0.117 A 
HETATM   16  N   UNK N   1      29.362  24.709  -5.569  0.00  0.00    -0.347 N 
HETATM   17  C   UNK N   1      30.582  24.140  -5.612  0.00  0.00     0.183 A 
ATOM     18  HN  UNK N   1      29.023  25.492  -6.128  1.00  0.00     0.167 HD
BRANCH  15  19
HETATM   19  C   UNK N   1      27.311  24.331  -4.217  0.00  0.00     0.267 C 
HETATM   20  O   UNK N   1      26.373  23.773  -4.764  0.00  0.00    -0.266 OA
HETATM   21  N   UNK N   1      27.077  25.243  -3.252  0.00  0.00    -0.365 N 
HETATM   22  H   UNK N   1      27.821  25.750  -2.857  0.00  0.00     0.159 HD
HETATM   23  H   UNK N   1      26.156  25.400  -2.942  0.00  0.00     0.159 HD
ENDBRANCH  15  19
ENDBRANCH  12  13
BRANCH  12  24
HETATM   24  C   UNK N   1      31.676  21.566  -3.114  0.00  0.00     0.189 C 
BRANCH  24  25
HETATM   25  O   UNK N   1      32.894  21.041  -2.679  0.00  0.00    -0.399 OA
HETATM   26  H   UNK N   1      33.663  21.619  -2.561  0.00  0.00     0.209 HD
ENDBRANCH  24  25
ENDBRANCH  12  24
ENDBRANCH  11  12
ENDBRANCH  10  11
ENDBRANCH   1  10
BRANCH   8  27
HETATM   27  N   UNK N   1      26.708  22.434  -7.679  0.00  0.00    -0.309 N 
HETATM   28  C   UNK N   1      26.745  23.794  -7.818  0.00  0.00     0.320 C 
HETATM   29  O   UNK N   1      27.774  24.353  -8.179  0.00  0.00    -0.247 OA
HETATM   30  N   UNK N   1      25.626  24.529  -7.631  0.00  0.00    -0.339 N 
HETATM   31  H   UNK N   1      24.815  24.121  -7.252  0.00  0.00     0.164 HD
HETATM   32  H   UNK N   1      25.951  22.023  -7.202  0.00  0.00     0.170 HD
BRANCH  30  33
HETATM   33  C   UNK N   1      25.646  25.929  -8.000  0.00  0.00     0.162 C 
BRANCH  33  34
HETATM   34  C   UNK N   1      25.936  26.857  -6.875  0.00  0.00    -0.040 A 
HETATM   35  C   UNK N   1      27.114  27.611  -6.819  0.00  0.00     0.009 A 
HETATM   36  C   UNK N   1      27.344  28.461  -5.734  0.00  0.00     0.001 A 
HETATM   37  C   UNK N   1      26.398  28.559  -4.707  0.00  0.00     0.000 A 
HETATM   38  C   UNK N   1      25.223  27.806  -4.764  0.00  0.00     0.001 A 
HETATM   39  C   UNK N   1      24.994  26.956  -5.846  0.00  0.00     0.009 A 
ENDBRANCH  33  34
ENDBRANCH  30  33
ENDBRANCH   8  27
TORSDOF 10
ENDMDL
