MODEL 1
REMARK VINA RESULT:      -8.6      0.000      0.000
REMARK  5 active torsions:
REMARK  status: ('A' for Active; 'I' for Inactive)
REMARK    1  A    between atoms: C_9  and  C_13 
REMARK    2  A    between atoms: C_13  and  C_14 
REMARK    3  A    between atoms: C_14  and  C_15 
REMARK    4  A    between atoms: C_15  and  N_16 
REMARK    5  A    between atoms: C_19  and  C_22 
ROOT
HETATM    1  C   UNK N   1      36.040  14.615  11.564  0.00  0.00     0.078 C 
ENDROOT
BRANCH   1   2
HETATM    2  C   UNK N   1      36.045  14.001  12.924  0.00  0.00     0.084 A 
HETATM    3  N   UNK N   1      35.311  12.883  13.187  0.00  0.00    -0.345 N 
HETATM    4  C   UNK N   1      35.269  12.347  14.437  0.00  0.00     0.055 A 
ATOM      5  HN  UNK N   1      34.784  12.441  12.433  1.00  0.00     0.167 HD
HETATM    6  C   UNK N   1      34.521  11.183  14.698  0.00  0.00    -0.034 A 
HETATM    7  C   UNK N   1      35.980  12.969  15.486  0.00  0.00     0.059 A 
HETATM    8  C   UNK N   1      34.485  10.657  15.993  0.00  0.00     0.009 A 
HETATM    9  C   UNK N   1      33.766  10.492  13.615  0.00  0.00     0.050 C 
HETATM   10  C   UNK N   1      35.184  11.280  17.031  0.00  0.00     0.002 A 
HETATM   11  C   UNK N   1      35.931  12.432  16.779  0.00  0.00     0.019 A 
HETATM   12  C   UNK N   1      36.722  14.120  15.197  0.00  0.00     0.259 A 
HETATM   13  N   UNK N   1      36.740  14.610  13.920  0.00  0.00    -0.312 N 
HETATM   14  O   UNK N   1      37.350  14.694  16.071  0.00  0.00    -0.267 OA
HETATM   15  H   UNK N   1      37.265  15.418  13.719  0.00  0.00     0.170 HD
ENDBRANCH   1   2
BRANCH   1  16
HETATM   16  C   UNK N   1      35.426  16.001  11.547  0.00  0.00     0.038 C 
BRANCH  16  17
HETATM   17  C   UNK N   1      35.431  16.454  10.090  0.00  0.00     0.273 C 
BRANCH  17  18
HETATM   18  N   UNK N   1      34.108  16.681   9.498  0.00  0.00     0.092 N 
HETATM   19  C   UNK N   1      34.257  17.466   8.281  0.00  0.00     0.300 C 
HETATM   20  C   UNK N   1      32.901  17.860   7.772  0.00  0.00     0.011 C 
HETATM   21  C   UNK N   1      31.822  17.077   7.972  0.00  0.00    -0.048 C 
HETATM   22  C   UNK N   1      31.946  15.773   8.742  0.00  0.00     0.069 C 
HETATM   23  C   UNK N   1      33.380  15.449   9.179  0.00  0.00     0.277 C 
BRANCH  21  24
HETATM   24  C   UNK N   1      30.496  17.503   7.456  0.00  0.00    -0.030 A 
HETATM   25  C   UNK N   1      29.543  18.070   8.319  0.00  0.00     0.015 A 
HETATM   26  C   UNK N   1      28.299  18.478   7.832  0.00  0.00     0.043 A 
HETATM   27  C   UNK N   1      27.997  18.328   6.477  0.00  0.00     0.116 A 
HETATM   28  C   UNK N   1      28.937  17.764   5.608  0.00  0.00     0.043 A 
HETATM   29  F   UNK N   1      26.795  18.734   6.005  0.00  0.00    -0.206 F 
HETATM   30  C   UNK N   1      30.181  17.350   6.097  0.00  0.00     0.015 A 
ENDBRANCH  21  24
ENDBRANCH  17  18
ENDBRANCH  16  17
ENDBRANCH   1  16
TORSDOF 5
ENDMDL
MODEL 2
REMARK VINA RESULT:      -8.6      4.702     10.310
REMARK  5 active torsions:
REMARK  status: ('A' for Active; 'I' for Inactive)
REMARK    1  A    between atoms: C_9  and  C_13 
REMARK    2  A    between atoms: C_13  and  C_14 
REMARK    3  A    between atoms: C_14  and  C_15 
REMARK    4  A    between atoms: C_15  and  N_16 
REMARK    5  A    between atoms: C_19  and  C_22 
ROOT
HETATM    1  C   UNK N   1      34.761  15.481  11.308  0.00  0.00     0.078 C 
ENDROOT
BRANCH   1   2
HETATM    2  C   UNK N   1      34.474  16.065   9.965  0.00  0.00     0.084 A 
HETATM    3  N   UNK N   1      33.981  15.290   8.959  0.00  0.00    -0.345 N 
HETATM    4  C   UNK N   1      33.766  15.804   7.716  0.00  0.00     0.055 A 
ATOM      5  HN  UNK N   1      33.769  14.309   9.140  1.00  0.00     0.167 HD
HETATM    6  C   UNK N   1      33.241  15.001   6.685  0.00  0.00    -0.034 A 
HETATM    7  C   UNK N   1      34.078  17.155   7.458  0.00  0.00     0.059 A 
HETATM    8  C   UNK N   1      33.039  15.548   5.414  0.00  0.00     0.009 A 
HETATM    9  C   UNK N   1      32.889  13.572   6.922  0.00  0.00     0.050 C 
HETATM   10  C   UNK N   1      33.357  16.885   5.159  0.00  0.00     0.002 A 
HETATM   11  C   UNK N   1      33.874  17.689   6.178  0.00  0.00     0.019 A 
HETATM   12  C   UNK N   1      34.591  17.933   8.502  0.00  0.00     0.259 A 
HETATM   13  N   UNK N   1      34.775  17.370   9.736  0.00  0.00    -0.312 N 
HETATM   14  O   UNK N   1      34.879  19.104   8.326  0.00  0.00    -0.267 OA
HETATM   15  H   UNK N   1      35.133  17.920  10.470  0.00  0.00     0.170 HD
ENDBRANCH   1   2
BRANCH   1  16
HETATM   16  C   UNK N   1      36.240  15.249  11.545  0.00  0.00     0.038 C 
BRANCH  16  17
HETATM   17  C   UNK N   1      36.415  13.742  11.713  0.00  0.00     0.273 C 
BRANCH  17  18
HETATM   18  N   UNK N   1      36.184  13.231  13.068  0.00  0.00     0.092 N 
HETATM   19  C   UNK N   1      36.394  14.306  14.027  0.00  0.00     0.300 C 
HETATM   20  C   UNK N   1      36.343  13.749  15.420  0.00  0.00     0.011 C 
HETATM   21  C   UNK N   1      35.575  12.682  15.722  0.00  0.00    -0.048 C 
HETATM   22  C   UNK N   1      34.750  11.996  14.647  0.00  0.00     0.069 C 
HETATM   23  C   UNK N   1      34.844  12.671  13.272  0.00  0.00     0.277 C 
BRANCH  21  24
HETATM   24  C   UNK N   1      35.553  12.159  17.111  0.00  0.00    -0.030 A 
HETATM   25  C   UNK N   1      35.874  10.816  17.373  0.00  0.00     0.015 A 
HETATM   26  C   UNK N   1      35.862  10.326  18.680  0.00  0.00     0.043 A 
HETATM   27  C   UNK N   1      35.534  11.173  19.740  0.00  0.00     0.116 A 
HETATM   28  C   UNK N   1      35.211  12.511  19.492  0.00  0.00     0.043 A 
HETATM   29  F   UNK N   1      35.532  10.698  21.008  0.00  0.00    -0.206 F 
HETATM   30  C   UNK N   1      35.218  13.001  18.182  0.00  0.00     0.015 A 
ENDBRANCH  21  24
ENDBRANCH  17  18
ENDBRANCH  16  17
ENDBRANCH   1  16
TORSDOF 5
ENDMDL
MODEL 3
REMARK VINA RESULT:      -8.6      1.396      2.686
REMARK  5 active torsions:
REMARK  status: ('A' for Active; 'I' for Inactive)
REMARK    1  A    between atoms: C_9  and  C_13 
REMARK    2  A    between atoms: C_13  and  C_14 
REMARK    3  A    between atoms: C_14  and  C_15 
REMARK    4  A    between atoms: C_15  and  N_16 
REMARK    5  A    between atoms: C_19  and  C_22 
ROOT
HETATM    1  C   UNK N   1      36.771  13.928  11.313  0.00  0.00     0.078 C 
ENDROOT
BRANCH   1   2
HETATM    2  C   UNK N   1      36.214  13.612  12.661  0.00  0.00     0.084 A 
HETATM    3  N   UNK N   1      36.635  14.290  13.765  0.00  0.00    -0.345 N 
HETATM    4  C   UNK N   1      36.170  13.973  15.005  0.00  0.00     0.055 A 
ATOM      5  HN  UNK N   1      37.310  15.048  13.661  1.00  0.00     0.167 HD
HETATM    6  C   UNK N   1      36.598  14.688  16.140  0.00  0.00    -0.034 A 
HETATM    7  C   UNK N   1      35.252  12.912  15.154  0.00  0.00     0.059 A 
HETATM    8  C   UNK N   1      36.115  14.336  17.405  0.00  0.00     0.009 A 
HETATM    9  C   UNK N   1      37.558  15.821  16.023  0.00  0.00     0.050 C 
HETATM   10  C   UNK N   1      35.211  13.280  17.550  0.00  0.00     0.002 A 
HETATM   11  C   UNK N   1      34.779  12.569  16.428  0.00  0.00     0.019 A 
HETATM   12  C   UNK N   1      34.837  12.224  14.008  0.00  0.00     0.259 A 
HETATM   13  N   UNK N   1      35.326  12.592  12.785  0.00  0.00    -0.312 N 
HETATM   14  O   UNK N   1      34.048  11.297  14.087  0.00  0.00    -0.267 OA
HETATM   15  H   UNK N   1      35.030  12.108  11.980  0.00  0.00     0.170 HD
ENDBRANCH   1   2
BRANCH   1  16
HETATM   16  C   UNK N   1      36.309  15.272  10.786  0.00  0.00     0.038 C 
BRANCH  16  17
HETATM   17  C   UNK N   1      35.923  15.049   9.326  0.00  0.00     0.273 C 
BRANCH  17  18
HETATM   18  N   UNK N   1      34.683  15.706   8.898  0.00  0.00     0.092 N 
HETATM   19  C   UNK N   1      33.562  15.138   9.633  0.00  0.00     0.300 C 
HETATM   20  C   UNK N   1      32.276  15.669   9.071  0.00  0.00     0.011 C 
HETATM   21  C   UNK N   1      32.203  16.901   8.526  0.00  0.00    -0.048 C 
HETATM   22  C   UNK N   1      33.437  17.784   8.448  0.00  0.00     0.069 C 
HETATM   23  C   UNK N   1      34.684  17.160   9.088  0.00  0.00     0.277 C 
BRANCH  21  24
HETATM   24  C   UNK N   1      30.913  17.389   7.978  0.00  0.00    -0.030 A 
HETATM   25  C   UNK N   1      30.518  17.049   6.672  0.00  0.00     0.015 A 
HETATM   26  C   UNK N   1      29.301  17.502   6.159  0.00  0.00     0.043 A 
HETATM   27  C   UNK N   1      28.463  18.295   6.946  0.00  0.00     0.116 A 
HETATM   28  C   UNK N   1      28.846  18.641   8.246  0.00  0.00     0.043 A 
HETATM   29  F   UNK N   1      27.279  18.724   6.451  0.00  0.00    -0.206 F 
HETATM   30  C   UNK N   1      30.068  18.193   8.759  0.00  0.00     0.015 A 
ENDBRANCH  21  24
ENDBRANCH  17  18
ENDBRANCH  16  17
ENDBRANCH   1  16
TORSDOF 5
ENDMDL
MODEL 4
REMARK VINA RESULT:      -8.3      4.241     10.649
REMARK  5 active torsions:
REMARK  status: ('A' for Active; 'I' for Inactive)
REMARK    1  A    between atoms: C_9  and  C_13 
REMARK    2  A    between atoms: C_13  and  C_14 
REMARK    3  A    between atoms: C_14  and  C_15 
REMARK    4  A    between atoms: C_15  and  N_16 
REMARK    5  A    between atoms: C_19  and  C_22 
ROOT
HETATM    1  C   UNK N   1      33.982  15.972   9.368  0.00  0.00     0.078 C 
ENDROOT
BRANCH   1   2
HETATM    2  C   UNK N   1      32.770  16.356   8.586  0.00  0.00     0.084 A 
HETATM    3  N   UNK N   1      32.842  16.550   7.239  0.00  0.00    -0.345 N 
HETATM    4  C   UNK N   1      31.753  16.952   6.527  0.00  0.00     0.055 A 
ATOM      5  HN  UNK N   1      33.727  16.393   6.756  1.00  0.00     0.167 HD
HETATM    6  C   UNK N   1      31.831  17.136   5.134  0.00  0.00    -0.034 A 
HETATM    7  C   UNK N   1      30.533  17.190   7.196  0.00  0.00     0.059 A 
HETATM    8  C   UNK N   1      30.701  17.559   4.425  0.00  0.00     0.009 A 
HETATM    9  C   UNK N   1      33.098  16.884   4.391  0.00  0.00     0.050 C 
HETATM   10  C   UNK N   1      29.497  17.801   5.091  0.00  0.00     0.002 A 
HETATM   11  C   UNK N   1      29.411  17.617   6.473  0.00  0.00     0.019 A 
HETATM   12  C   UNK N   1      30.482  16.991   8.580  0.00  0.00     0.259 A 
HETATM   13  N   UNK N   1      31.603  16.575   9.245  0.00  0.00    -0.312 N 
HETATM   14  O   UNK N   1      29.451  17.188   9.201  0.00  0.00    -0.267 OA
HETATM   15  H   UNK N   1      31.563  16.433  10.218  0.00  0.00     0.170 HD
ENDBRANCH   1   2
BRANCH   1  16
HETATM   16  C   UNK N   1      33.690  14.932  10.432  0.00  0.00     0.038 C 
BRANCH  16  17
HETATM   17  C   UNK N   1      35.043  14.376  10.869  0.00  0.00     0.273 C 
BRANCH  17  18
HETATM   18  N   UNK N   1      35.150  14.033  12.291  0.00  0.00     0.092 N 
HETATM   19  C   UNK N   1      34.959  12.599  12.453  0.00  0.00     0.300 C 
HETATM   20  C   UNK N   1      34.882  12.268  13.914  0.00  0.00     0.011 C 
HETATM   21  C   UNK N   1      35.550  12.993  14.835  0.00  0.00    -0.048 C 
HETATM   22  C   UNK N   1      36.389  14.188  14.416  0.00  0.00     0.069 C 
HETATM   23  C   UNK N   1      36.430  14.411  12.899  0.00  0.00     0.277 C 
BRANCH  21  24
HETATM   24  C   UNK N   1      35.446  12.635  16.272  0.00  0.00    -0.030 A 
HETATM   25  C   UNK N   1      35.523  11.292  16.680  0.00  0.00     0.015 A 
HETATM   26  C   UNK N   1      35.433  10.956  18.033  0.00  0.00     0.043 A 
HETATM   27  C   UNK N   1      35.271  11.958  18.991  0.00  0.00     0.116 A 
HETATM   28  C   UNK N   1      35.192  13.297  18.598  0.00  0.00     0.043 A 
HETATM   29  F   UNK N   1      35.196  11.630  20.303  0.00  0.00    -0.206 F 
HETATM   30  C   UNK N   1      35.276  13.635  17.243  0.00  0.00     0.015 A 
ENDBRANCH  21  24
ENDBRANCH  17  18
ENDBRANCH  16  17
ENDBRANCH   1  16
TORSDOF 5
ENDMDL
MODEL 5
REMARK VINA RESULT:      -8.3     10.422     14.217
REMARK  5 active torsions:
REMARK  status: ('A' for Active; 'I' for Inactive)
REMARK    1  A    between atoms: C_9  and  C_13 
REMARK    2  A    between atoms: C_13  and  C_14 
REMARK    3  A    between atoms: C_14  and  C_15 
REMARK    4  A    between atoms: C_15  and  N_16 
REMARK    5  A    between atoms: C_19  and  C_22 
ROOT
HETATM    1  C   UNK N   1      21.664  17.315   5.491  0.00  0.00     0.078 C 
ENDROOT
BRANCH   1   2
HETATM    2  C   UNK N   1      22.760  18.105   4.856  0.00  0.00     0.084 A 
HETATM    3  N   UNK N   1      24.065  17.851   5.155  0.00  0.00    -0.345 N 
HETATM    4  C   UNK N   1      25.068  18.602   4.621  0.00  0.00     0.055 A 
ATOM      5  HN  UNK N   1      24.295  17.086   5.790  1.00  0.00     0.167 HD
HETATM    6  C   UNK N   1      26.415  18.324   4.922  0.00  0.00    -0.034 A 
HETATM    7  C   UNK N   1      24.752  19.673   3.759  0.00  0.00     0.059 A 
HETATM    8  C   UNK N   1      27.427  19.115   4.370  0.00  0.00     0.009 A 
HETATM    9  C   UNK N   1      26.789  17.194   5.819  0.00  0.00     0.050 C 
HETATM   10  C   UNK N   1      27.111  20.181   3.523  0.00  0.00     0.002 A 
HETATM   11  C   UNK N   1      25.777  20.460   3.216  0.00  0.00     0.019 A 
HETATM   12  C   UNK N   1      23.406  19.922   3.471  0.00  0.00     0.259 A 
HETATM   13  N   UNK N   1      22.438  19.129   4.025  0.00  0.00    -0.312 N 
HETATM   14  O   UNK N   1      23.084  20.840   2.735  0.00  0.00    -0.267 OA
HETATM   15  H   UNK N   1      21.492  19.305   3.817  0.00  0.00     0.170 HD
ENDBRANCH   1   2
BRANCH   1  16
HETATM   16  C   UNK N   1      20.936  16.423   4.504  0.00  0.00     0.038 C 
BRANCH  16  17
HETATM   17  C   UNK N   1      21.703  15.104   4.474  0.00  0.00     0.273 C 
BRANCH  17  18
HETATM   18  N   UNK N   1      22.022  14.533   5.787  0.00  0.00     0.092 N 
HETATM   19  C   UNK N   1      20.861  13.814   6.291  0.00  0.00     0.300 C 
HETATM   20  C   UNK N   1      21.114  13.387   7.706  0.00  0.00     0.011 C 
HETATM   21  C   UNK N   1      22.358  13.100   8.142  0.00  0.00    -0.048 C 
HETATM   22  C   UNK N   1      23.549  13.221   7.207  0.00  0.00     0.069 C 
HETATM   23  C   UNK N   1      23.172  13.624   5.776  0.00  0.00     0.277 C 
BRANCH  21  24
HETATM   24  C   UNK N   1      22.568  12.683   9.551  0.00  0.00    -0.030 A 
HETATM   25  C   UNK N   1      23.866  12.463  10.044  0.00  0.00     0.015 A 
HETATM   26  C   UNK N   1      24.065  12.079  11.372  0.00  0.00     0.043 A 
HETATM   27  C   UNK N   1      22.970  11.916  12.222  0.00  0.00     0.116 A 
HETATM   28  C   UNK N   1      21.674  12.131  11.743  0.00  0.00     0.043 A 
HETATM   29  F   UNK N   1      23.165  11.554  13.512  0.00  0.00    -0.206 F 
HETATM   30  C   UNK N   1      21.473  12.510  10.412  0.00  0.00     0.015 A 
ENDBRANCH  21  24
ENDBRANCH  17  18
ENDBRANCH  16  17
ENDBRANCH   1  16
TORSDOF 5
ENDMDL
MODEL 6
REMARK VINA RESULT:      -7.8     16.966     21.740
REMARK  5 active torsions:
REMARK  status: ('A' for Active; 'I' for Inactive)
REMARK    1  A    between atoms: C_9  and  C_13 
REMARK    2  A    between atoms: C_13  and  C_14 
REMARK    3  A    between atoms: C_14  and  C_15 
REMARK    4  A    between atoms: C_15  and  N_16 
REMARK    5  A    between atoms: C_19  and  C_22 
ROOT
HETATM    1  C   UNK N   1      25.152  25.922  -5.517  0.00  0.00     0.078 C 
ENDROOT
BRANCH   1   2
HETATM    2  C   UNK N   1      25.925  27.198  -5.477  0.00  0.00     0.084 A 
HETATM    3  N   UNK N   1      26.843  27.488  -6.441  0.00  0.00    -0.345 N 
HETATM    4  C   UNK N   1      27.589  28.626  -6.384  0.00  0.00     0.055 A 
ATOM      5  HN  UNK N   1      26.974  26.841  -7.220  1.00  0.00     0.167 HD
HETATM    6  C   UNK N   1      28.525  28.926  -7.391  0.00  0.00    -0.034 A 
HETATM    7  C   UNK N   1      27.424  29.512  -5.298  0.00  0.00     0.059 A 
HETATM    8  C   UNK N   1      29.287  30.096  -7.305  0.00  0.00     0.009 A 
HETATM    9  C   UNK N   1      28.719  28.021  -8.559  0.00  0.00     0.050 C 
HETATM   10  C   UNK N   1      29.127  30.967  -6.224  0.00  0.00     0.002 A 
HETATM   11  C   UNK N   1      28.197  30.678  -5.223  0.00  0.00     0.019 A 
HETATM   12  C   UNK N   1      26.481  29.193  -4.314  0.00  0.00     0.259 A 
HETATM   13  N   UNK N   1      25.749  28.042  -4.427  0.00  0.00    -0.312 N 
HETATM   14  O   UNK N   1      26.307  29.925  -3.355  0.00  0.00    -0.267 OA
HETATM   15  H   UNK N   1      25.084  27.822  -3.736  0.00  0.00     0.170 HD
ENDBRANCH   1   2
BRANCH   1  16
HETATM   16  C   UNK N   1      26.035  24.697  -5.388  0.00  0.00     0.038 C 
BRANCH  16  17
HETATM   17  C   UNK N   1      26.704  24.794  -4.020  0.00  0.00     0.273 C 
BRANCH  17  18
HETATM   18  N   UNK N   1      28.066  24.253  -3.947  0.00  0.00     0.092 N 
HETATM   19  C   UNK N   1      28.356  23.522  -5.173  0.00  0.00     0.300 C 
HETATM   20  C   UNK N   1      29.671  22.812  -5.031  0.00  0.00     0.011 C 
HETATM   21  C   UNK N   1      30.660  23.313  -4.263  0.00  0.00    -0.048 C 
HETATM   22  C   UNK N   1      30.462  24.610  -3.499  0.00  0.00     0.069 C 
HETATM   23  C   UNK N   1      29.101  25.272  -3.749  0.00  0.00     0.277 C 
BRANCH  21  24
HETATM   24  C   UNK N   1      31.945  22.579  -4.146  0.00  0.00    -0.030 A 
HETATM   25  C   UNK N   1      32.165  21.689  -3.080  0.00  0.00     0.015 A 
HETATM   26  C   UNK N   1      33.370  20.993  -2.974  0.00  0.00     0.043 A 
HETATM   27  C   UNK N   1      34.367  21.173  -3.934  0.00  0.00     0.116 A 
HETATM   28  C   UNK N   1      34.162  22.056  -4.999  0.00  0.00     0.043 A 
HETATM   29  F   UNK N   1      35.531  20.489  -3.835  0.00  0.00    -0.206 F 
HETATM   30  C   UNK N   1      32.957  22.759  -5.103  0.00  0.00     0.015 A 
ENDBRANCH  21  24
ENDBRANCH  17  18
ENDBRANCH  16  17
ENDBRANCH   1  16
TORSDOF 5
ENDMDL
MODEL 7
REMARK VINA RESULT:      -7.7      4.308      6.877
REMARK  5 active torsions:
REMARK  status: ('A' for Active; 'I' for Inactive)
REMARK    1  A    between atoms: C_9  and  C_13 
REMARK    2  A    between atoms: C_13  and  C_14 
REMARK    3  A    between atoms: C_14  and  C_15 
REMARK    4  A    between atoms: C_15  and  N_16 
REMARK    5  A    between atoms: C_19  and  C_22 
ROOT
HETATM    1  C   UNK N   1      32.726  16.247   5.391  0.00  0.00     0.078 C 
ENDROOT
BRANCH   1   2
HETATM    2  C   UNK N   1      33.445  16.455   6.682  0.00  0.00     0.084 A 
HETATM    3  N   UNK N   1      33.565  15.441   7.584  0.00  0.00    -0.345 N 
HETATM    4  C   UNK N   1      34.174  15.637   8.787  0.00  0.00     0.055 A 
ATOM      5  HN  UNK N   1      33.192  14.519   7.355  1.00  0.00     0.167 HD
HETATM    6  C   UNK N   1      34.308  14.581   9.708  0.00  0.00    -0.034 A 
HETATM    7  C   UNK N   1      34.672  16.916   9.114  0.00  0.00     0.059 A 
HETATM    8  C   UNK N   1      34.927  14.810  10.941  0.00  0.00     0.009 A 
HETATM    9  C   UNK N   1      33.805  13.214   9.394  0.00  0.00     0.050 C 
HETATM   10  C   UNK N   1      35.412  16.079  11.265  0.00  0.00     0.002 A 
HETATM   11  C   UNK N   1      35.287  17.131  10.355  0.00  0.00     0.019 A 
HETATM   12  C   UNK N   1      34.532  17.946   8.177  0.00  0.00     0.259 A 
HETATM   13  N   UNK N   1      33.923  17.691   6.978  0.00  0.00    -0.312 N 
HETATM   14  O   UNK N   1      34.943  19.069   8.417  0.00  0.00    -0.267 OA
HETATM   15  H   UNK N   1      33.829  18.417   6.319  0.00  0.00     0.170 HD
ENDBRANCH   1   2
BRANCH   1  16
HETATM   16  C   UNK N   1      31.584  17.223   5.190  0.00  0.00     0.038 C 
BRANCH  16  17
HETATM   17  C   UNK N   1      30.372  16.613   5.889  0.00  0.00     0.273 C 
BRANCH  17  18
HETATM   18  N   UNK N   1      29.068  17.095   5.421  0.00  0.00     0.092 N 
HETATM   19  C   UNK N   1      29.254  18.339   4.687  0.00  0.00     0.300 C 
HETATM   20  C   UNK N   1      27.915  18.934   4.366  0.00  0.00     0.011 C 
HETATM   21  C   UNK N   1      26.831  18.157   4.163  0.00  0.00    -0.048 C 
HETATM   22  C   UNK N   1      26.934  16.646   4.274  0.00  0.00     0.069 C 
HETATM   23  C   UNK N   1      28.355  16.144   4.564  0.00  0.00     0.277 C 
BRANCH  21  24
HETATM   24  C   UNK N   1      25.522  18.784   3.851  0.00  0.00    -0.030 A 
HETATM   25  C   UNK N   1      25.464  20.004   3.154  0.00  0.00     0.015 A 
HETATM   26  C   UNK N   1      24.233  20.590   2.853  0.00  0.00     0.043 A 
HETATM   27  C   UNK N   1      23.048  19.962   3.240  0.00  0.00     0.116 A 
HETATM   28  C   UNK N   1      23.093  18.749   3.935  0.00  0.00     0.043 A 
HETATM   29  F   UNK N   1      21.855  20.526   2.938  0.00  0.00    -0.206 F 
HETATM   30  C   UNK N   1      24.326  18.164   4.242  0.00  0.00     0.015 A 
ENDBRANCH  21  24
ENDBRANCH  17  18
ENDBRANCH  16  17
ENDBRANCH   1  16
TORSDOF 5
ENDMDL
MODEL 8
REMARK VINA RESULT:      -7.7      2.286      3.250
REMARK  5 active torsions:
REMARK  status: ('A' for Active; 'I' for Inactive)
REMARK    1  A    between atoms: C_9  and  C_13 
REMARK    2  A    between atoms: C_13  and  C_14 
REMARK    3  A    between atoms: C_14  and  C_15 
REMARK    4  A    between atoms: C_15  and  N_16 
REMARK    5  A    between atoms: C_19  and  C_22 
ROOT
HETATM    1  C   UNK N   1      35.484  14.095  11.111  0.00  0.00     0.078 C 
ENDROOT
BRANCH   1   2
HETATM    2  C   UNK N   1      35.153  13.116  12.188  0.00  0.00     0.084 A 
HETATM    3  N   UNK N   1      35.526  13.347  13.478  0.00  0.00    -0.345 N 
HETATM    4  C   UNK N   1      35.275  12.435  14.457  0.00  0.00     0.055 A 
ATOM      5  HN  UNK N   1      36.003  14.218  13.714  1.00  0.00     0.167 HD
HETATM    6  C   UNK N   1      35.650  12.686  15.791  0.00  0.00    -0.034 A 
HETATM    7  C   UNK N   1      34.635  11.221  14.129  0.00  0.00     0.059 A 
HETATM    8  C   UNK N   1      35.390  11.730  16.777  0.00  0.00     0.009 A 
HETATM    9  C   UNK N   1      36.317  13.961  16.178  0.00  0.00     0.050 C 
HETATM   10  C   UNK N   1      34.763  10.525  16.448  0.00  0.00     0.002 A 
HETATM   11  C   UNK N   1      34.384  10.270  15.128  0.00  0.00     0.019 A 
HETATM   12  C   UNK N   1      34.266  11.000  12.798  0.00  0.00     0.259 A 
HETATM   13  N   UNK N   1      34.532  11.956  11.856  0.00  0.00    -0.312 N 
HETATM   14  O   UNK N   1      33.714   9.964  12.466  0.00  0.00    -0.267 OA
HETATM   15  H   UNK N   1      34.268  11.799  10.920  0.00  0.00     0.170 HD
ENDBRANCH   1   2
BRANCH   1  16
HETATM   16  C   UNK N   1      34.824  15.444  11.320  0.00  0.00     0.038 C 
BRANCH  16  17
HETATM   17  C   UNK N   1      35.429  16.382  10.280  0.00  0.00     0.273 C 
BRANCH  17  18
HETATM   18  N   UNK N   1      34.662  16.520   9.037  0.00  0.00     0.092 N 
HETATM   19  C   UNK N   1      33.310  16.026   9.252  0.00  0.00     0.300 C 
HETATM   20  C   UNK N   1      32.577  15.991   7.943  0.00  0.00     0.011 C 
HETATM   21  C   UNK N   1      32.852  16.873   6.960  0.00  0.00    -0.048 C 
HETATM   22  C   UNK N   1      33.934  17.923   7.146  0.00  0.00     0.069 C 
HETATM   23  C   UNK N   1      34.588  17.895   8.533  0.00  0.00     0.277 C 
BRANCH  21  24
HETATM   24  C   UNK N   1      32.107  16.803   5.678  0.00  0.00    -0.030 A 
HETATM   25  C   UNK N   1      32.729  17.166   4.471  0.00  0.00     0.015 A 
HETATM   26  C   UNK N   1      32.031  17.093   3.264  0.00  0.00     0.043 A 
HETATM   27  C   UNK N   1      30.707  16.653   3.249  0.00  0.00     0.116 A 
HETATM   28  C   UNK N   1      30.076  16.290   4.443  0.00  0.00     0.043 A 
HETATM   29  F   UNK N   1      30.035  16.572   2.076  0.00  0.00    -0.206 F 
HETATM   30  C   UNK N   1      30.773  16.369   5.654  0.00  0.00     0.015 A 
ENDBRANCH  21  24
ENDBRANCH  17  18
ENDBRANCH  16  17
ENDBRANCH   1  16
TORSDOF 5
ENDMDL
MODEL 9
REMARK VINA RESULT:      -7.6      4.493     10.324
REMARK  5 active torsions:
REMARK  status: ('A' for Active; 'I' for Inactive)
REMARK    1  A    between atoms: C_9  and  C_13 
REMARK    2  A    between atoms: C_13  and  C_14 
REMARK    3  A    between atoms: C_14  and  C_15 
REMARK    4  A    between atoms: C_15  and  N_16 
REMARK    5  A    between atoms: C_19  and  C_22 
ROOT
HETATM    1  C   UNK N   1      33.257  14.650   9.514  0.00  0.00     0.078 C 
ENDROOT
BRANCH   1   2
HETATM    2  C   UNK N   1      33.148  15.459   8.264  0.00  0.00     0.084 A 
HETATM    3  N   UNK N   1      32.359  15.045   7.233  0.00  0.00    -0.345 N 
HETATM    4  C   UNK N   1      32.296  15.750   6.069  0.00  0.00     0.055 A 
ATOM      5  HN  UNK N   1      31.808  14.193   7.334  1.00  0.00     0.167 HD
HETATM    6  C   UNK N   1      31.467  15.325   5.014  0.00  0.00    -0.034 A 
HETATM    7  C   UNK N   1      33.074  16.917   5.919  0.00  0.00     0.059 A 
HETATM    8  C   UNK N   1      31.426  16.059   3.824  0.00  0.00     0.009 A 
HETATM    9  C   UNK N   1      30.622  14.103   5.139  0.00  0.00     0.050 C 
HETATM   10  C   UNK N   1      32.204  17.210   3.675  0.00  0.00     0.002 A 
HETATM   11  C   UNK N   1      33.025  17.641   4.720  0.00  0.00     0.019 A 
HETATM   12  C   UNK N   1      33.883  17.321   6.987  0.00  0.00     0.259 A 
HETATM   13  N   UNK N   1      33.900  16.583   8.139  0.00  0.00    -0.312 N 
HETATM   14  O   UNK N   1      34.576  18.321   6.902  0.00  0.00    -0.267 OA
HETATM   15  H   UNK N   1      34.468  16.871   8.890  0.00  0.00     0.170 HD
ENDBRANCH   1   2
BRANCH   1  16
HETATM   16  C   UNK N   1      33.972  13.331   9.300  0.00  0.00     0.038 C 
BRANCH  16  17
HETATM   17  C   UNK N   1      35.363  13.496   9.907  0.00  0.00     0.273 C 
BRANCH  17  18
HETATM   18  N   UNK N   1      35.446  13.280  11.355  0.00  0.00     0.092 N 
HETATM   19  C   UNK N   1      34.922  11.960  11.673  0.00  0.00     0.300 C 
HETATM   20  C   UNK N   1      34.830  11.804  13.162  0.00  0.00     0.011 C 
HETATM   21  C   UNK N   1      35.691  12.432  13.989  0.00  0.00    -0.048 C 
HETATM   22  C   UNK N   1      36.775  13.338  13.429  0.00  0.00     0.069 C 
HETATM   23  C   UNK N   1      36.804  13.392  11.897  0.00  0.00     0.277 C 
BRANCH  21  24
HETATM   24  C   UNK N   1      35.566  12.255  15.457  0.00  0.00    -0.030 A 
HETATM   25  C   UNK N   1      35.070  13.296  16.262  0.00  0.00     0.015 A 
HETATM   26  C   UNK N   1      34.945  13.127  17.642  0.00  0.00     0.043 A 
HETATM   27  C   UNK N   1      35.309  11.916  18.233  0.00  0.00     0.116 A 
HETATM   28  C   UNK N   1      35.805  10.873  17.444  0.00  0.00     0.043 A 
HETATM   29  F   UNK N   1      35.176  11.750  19.570  0.00  0.00    -0.206 F 
HETATM   30  C   UNK N   1      35.936  11.044  16.061  0.00  0.00     0.015 A 
ENDBRANCH  21  24
ENDBRANCH  17  18
ENDBRANCH  16  17
ENDBRANCH   1  16
TORSDOF 5
ENDMDL
