REMARK  5 active torsions:
REMARK  status: ('A' for Active; 'I' for Inactive)
REMARK    1  A    between atoms: C_3  and  S_11 
REMARK    2  A    between atoms: C_6  and  C_7 
REMARK       I    between atoms: C_7  and  N_9 
REMARK    3  A    between atoms: N_9  and  C_10 
REMARK    4  A    between atoms: C_10  and  C_15 
REMARK    5  A    between atoms: S_11  and  N_12 
ROOT
HETATM    1  C   UNK N   1       0.822  -0.866  -0.105  0.00  0.00     0.018 A 
HETATM    2  C   UNK N   1       2.046  -1.507  -0.127  0.00  0.00     0.026 A 
HETATM    3  C   UNK N   1       2.133  -2.842   0.245  0.00  0.00     0.079 A 
HETATM    4  C   UNK N   1       0.994  -3.525   0.703  0.00  0.00     0.026 A 
HETATM    5  C   UNK N   1      -0.246  -2.869   0.744  0.00  0.00     0.018 A 
HETATM    6  C   UNK N   1      -0.335  -1.542   0.297  0.00  0.00     0.032 A 
ENDROOT
BRANCH   6   7
HETATM    7  C   UNK N   1      -1.623  -0.863   0.097  0.00  0.00     0.251 C 
HETATM    8  O   UNK N   1      -2.667  -1.305   0.542  0.00  0.00    -0.268 OA
HETATM    9  N   UNK N   1      -1.602   0.243  -0.680  0.00  0.00    -0.353 N 
HETATM   10  H   UNK N   1      -0.731   0.499  -1.061  0.00  0.00     0.163 HD
BRANCH   9  11
HETATM   11  C   UNK N   1      -2.714   1.082  -1.008  0.00  0.00     0.164 C 
BRANCH  11  12
HETATM   12  C   UNK N   1      -2.363   2.452  -0.536  0.00  0.00    -0.002 A 
HETATM   13  C   UNK N   1      -3.295   3.162   0.219  0.00  0.00     0.012 A 
HETATM   14  C   UNK N   1      -2.973   4.424   0.721  0.00  0.00     0.001 A 
HETATM   15  C   UNK N   1      -1.710   4.973   0.483  0.00  0.00     0.003 A 
HETATM   16  C   UNK N   1      -0.770   4.269  -0.271  0.00  0.00     0.043 A 
HETATM   17  C   UNK N   1      -1.089   3.013  -0.789  0.00  0.00     0.124 A 
HETATM   18  F   UNK N   1      -0.151   2.336  -1.501  0.00  0.00    -0.205 F 
ENDBRANCH  11  12
ENDBRANCH   9  11
ENDBRANCH   6   7
BRANCH   3  19
HETATM   19  S   UNK N   1       3.653  -3.702  -0.099  0.00  0.00     0.256 S 
HETATM   20  O   UNK N   1       4.431  -2.974  -1.208  0.00  0.00    -0.201 OA
HETATM   21  O   UNK N   1       3.412  -5.064  -0.763  0.00  0.00    -0.201 OA
BRANCH  19  22
HETATM   22  N   UNK N   1       4.843  -3.977   1.171  0.00  0.00    -0.324 N 
HETATM   23  H   UNK N   1       5.049  -4.653   1.907  0.00  0.00     0.169 HD
HETATM   24  H   UNK N   1       5.539  -3.232   1.171  0.00  0.00     0.169 HD
ENDBRANCH  19  22
ENDBRANCH   3  19
TORSDOF 5
