MODEL 1
REMARK VINA RESULT:      -7.7      0.000      0.000
REMARK  5 active torsions:
REMARK  status: ('A' for Active; 'I' for Inactive)
REMARK    1  A    between atoms: C_3  and  S_11 
REMARK    2  A    between atoms: C_6  and  C_7 
REMARK       I    between atoms: C_7  and  N_9 
REMARK    3  A    between atoms: N_9  and  C_10 
REMARK    4  A    between atoms: C_10  and  C_15 
REMARK    5  A    between atoms: S_11  and  N_12 
ROOT
HETATM    1  C   UNK N   1      35.548  15.724  11.510  0.00  0.00     0.018 A 
HETATM    2  C   UNK N   1      35.344  16.763  10.622  0.00  0.00     0.026 A 
HETATM    3  C   UNK N   1      34.941  16.490   9.321  0.00  0.00     0.079 A 
HETATM    4  C   UNK N   1      34.801  15.162   8.887  0.00  0.00     0.026 A 
HETATM    5  C   UNK N   1      35.027  14.105   9.783  0.00  0.00     0.018 A 
HETATM    6  C   UNK N   1      35.363  14.395  11.114  0.00  0.00     0.032 A 
ENDROOT
BRANCH   6   7
HETATM    7  C   UNK N   1      35.395  13.364  12.161  0.00  0.00     0.251 C 
HETATM    8  O   UNK N   1      34.789  12.313  12.057  0.00  0.00    -0.268 OA
HETATM    9  N   UNK N   1      36.072  13.676  13.288  0.00  0.00    -0.353 N 
HETATM   10  H   UNK N   1      36.478  14.573  13.326  0.00  0.00     0.163 HD
BRANCH   9  11
HETATM   11  C   UNK N   1      36.261  12.841  14.435  0.00  0.00     0.164 C 
BRANCH  11  12
HETATM   12  C   UNK N   1      36.353  13.753  15.611  0.00  0.00    -0.002 A 
HETATM   13  C   UNK N   1      37.193  14.862  15.537  0.00  0.00     0.012 A 
HETATM   14  C   UNK N   1      37.257  15.763  16.601  0.00  0.00     0.001 A 
HETATM   15  C   UNK N   1      36.468  15.566  17.737  0.00  0.00     0.003 A 
HETATM   16  C   UNK N   1      35.622  14.458  17.820  0.00  0.00     0.043 A 
HETATM   17  C   UNK N   1      35.563  13.545  16.766  0.00  0.00     0.124 A 
HETATM   18  F   UNK N   1      34.717  12.486  16.859  0.00  0.00    -0.205 F 
ENDBRANCH  11  12
ENDBRANCH   9  11
ENDBRANCH   6   7
BRANCH   3  19
HETATM   19  S   UNK N   1      34.390  17.855   8.320  0.00  0.00     0.256 S 
HETATM   20  O   UNK N   1      34.681  17.572   6.837  0.00  0.00    -0.201 OA
HETATM   21  O   UNK N   1      35.234  19.117   8.543  0.00  0.00    -0.201 OA
BRANCH  19  22
HETATM   22  N   UNK N   1      32.707  18.377   8.351  0.00  0.00    -0.324 N 
HETATM   23  H   UNK N   1      31.836  18.157   8.835  0.00  0.00     0.169 HD
HETATM   24  H   UNK N   1      32.558  19.128   7.678  0.00  0.00     0.169 HD
ENDBRANCH  19  22
ENDBRANCH   3  19
TORSDOF 5
ENDMDL
MODEL 2
REMARK VINA RESULT:      -7.1     18.424     21.814
REMARK  5 active torsions:
REMARK  status: ('A' for Active; 'I' for Inactive)
REMARK    1  A    between atoms: C_3  and  S_11 
REMARK    2  A    between atoms: C_6  and  C_7 
REMARK       I    between atoms: C_7  and  N_9 
REMARK    3  A    between atoms: N_9  and  C_10 
REMARK    4  A    between atoms: C_10  and  C_15 
REMARK    5  A    between atoms: S_11  and  N_12 
ROOT
HETATM    1  C   UNK N   1      28.588  23.551  -2.773  0.00  0.00     0.018 A 
HETATM    2  C   UNK N   1      29.700  22.739  -2.650  0.00  0.00     0.026 A 
HETATM    3  C   UNK N   1      30.325  22.248  -3.787  0.00  0.00     0.079 A 
HETATM    4  C   UNK N   1      29.797  22.520  -5.060  0.00  0.00     0.026 A 
HETATM    5  C   UNK N   1      28.657  23.329  -5.185  0.00  0.00     0.018 A 
HETATM    6  C   UNK N   1      28.076  23.880  -4.033  0.00  0.00     0.032 A 
ENDROOT
BRANCH   6   7
HETATM    7  C   UNK N   1      27.028  24.908  -4.093  0.00  0.00     0.251 C 
HETATM    8  O   UNK N   1      26.382  25.236  -3.114  0.00  0.00    -0.268 OA
HETATM    9  N   UNK N   1      26.759  25.418  -5.316  0.00  0.00    -0.353 N 
HETATM   10  H   UNK N   1      27.276  25.052  -6.071  0.00  0.00     0.163 HD
BRANCH   9  11
HETATM   11  C   UNK N   1      25.802  26.434  -5.631  0.00  0.00     0.164 C 
BRANCH  11  12
HETATM   12  C   UNK N   1      26.499  27.740  -5.451  0.00  0.00    -0.002 A 
HETATM   13  C   UNK N   1      27.409  28.155  -6.421  0.00  0.00     0.012 A 
HETATM   14  C   UNK N   1      28.035  29.398  -6.308  0.00  0.00     0.001 A 
HETATM   15  C   UNK N   1      27.737  30.237  -5.231  0.00  0.00     0.003 A 
HETATM   16  C   UNK N   1      26.826  29.831  -4.255  0.00  0.00     0.043 A 
HETATM   17  C   UNK N   1      26.207  28.584  -4.354  0.00  0.00     0.124 A 
HETATM   18  F   UNK N   1      25.307  28.218  -3.405  0.00  0.00    -0.205 F 
ENDBRANCH  11  12
ENDBRANCH   9  11
ENDBRANCH   6   7
BRANCH   3  19
HETATM   19  S   UNK N   1      31.919  21.478  -3.592  0.00  0.00     0.256 S 
HETATM   20  O   UNK N   1      32.372  21.571  -2.125  0.00  0.00    -0.201 OA
HETATM   21  O   UNK N   1      33.034  22.268  -4.288  0.00  0.00    -0.201 OA
BRANCH  19  22
HETATM   22  N   UNK N   1      32.166  19.789  -4.027  0.00  0.00    -0.324 N 
HETATM   23  H   UNK N   1      32.427  18.906  -3.588  0.00  0.00     0.169 HD
HETATM   24  H   UNK N   1      31.997  19.652  -5.023  0.00  0.00     0.169 HD
ENDBRANCH  19  22
ENDBRANCH   3  19
TORSDOF 5
ENDMDL
MODEL 3
REMARK VINA RESULT:      -7.1      1.248      1.922
REMARK  5 active torsions:
REMARK  status: ('A' for Active; 'I' for Inactive)
REMARK    1  A    between atoms: C_3  and  S_11 
REMARK    2  A    between atoms: C_6  and  C_7 
REMARK       I    between atoms: C_7  and  N_9 
REMARK    3  A    between atoms: N_9  and  C_10 
REMARK    4  A    between atoms: C_10  and  C_15 
REMARK    5  A    between atoms: S_11  and  N_12 
ROOT
HETATM    1  C   UNK N   1      34.288  14.230  10.470  0.00  0.00     0.018 A 
HETATM    2  C   UNK N   1      33.910  15.082   9.449  0.00  0.00     0.026 A 
HETATM    3  C   UNK N   1      34.437  16.365   9.390  0.00  0.00     0.079 A 
HETATM    4  C   UNK N   1      35.302  16.823  10.398  0.00  0.00     0.026 A 
HETATM    5  C   UNK N   1      35.670  15.965  11.446  0.00  0.00     0.018 A 
HETATM    6  C   UNK N   1      35.189  14.647  11.455  0.00  0.00     0.032 A 
ENDROOT
BRANCH   6   7
HETATM    7  C   UNK N   1      35.701  13.628  12.383  0.00  0.00     0.251 C 
HETATM    8  O   UNK N   1      35.450  12.444  12.250  0.00  0.00    -0.268 OA
HETATM    9  N   UNK N   1      36.403  14.084  13.444  0.00  0.00    -0.353 N 
HETATM   10  H   UNK N   1      36.506  15.060  13.520  0.00  0.00     0.163 HD
BRANCH   9  11
HETATM   11  C   UNK N   1      37.014  13.296  14.470  0.00  0.00     0.164 C 
BRANCH  11  12
HETATM   12  C   UNK N   1      36.455  13.781  15.764  0.00  0.00    -0.002 A 
HETATM   13  C   UNK N   1      35.523  12.988  16.433  0.00  0.00     0.012 A 
HETATM   14  C   UNK N   1      35.024  13.390  17.672  0.00  0.00     0.001 A 
HETATM   15  C   UNK N   1      35.468  14.580  18.256  0.00  0.00     0.003 A 
HETATM   16  C   UNK N   1      36.402  15.379  17.595  0.00  0.00     0.043 A 
HETATM   17  C   UNK N   1      36.895  14.992  16.348  0.00  0.00     0.124 A 
HETATM   18  F   UNK N   1      37.820  15.774  15.733  0.00  0.00    -0.205 F 
ENDBRANCH  11  12
ENDBRANCH   9  11
ENDBRANCH   6   7
BRANCH   3  19
HETATM   19  S   UNK N   1      34.171  17.304   7.901  0.00  0.00     0.256 S 
HETATM   20  O   UNK N   1      34.863  16.614   6.713  0.00  0.00    -0.201 OA
HETATM   21  O   UNK N   1      34.910  18.648   7.923  0.00  0.00    -0.201 OA
BRANCH  19  22
HETATM   22  N   UNK N   1      32.541  17.647   7.327  0.00  0.00    -0.324 N 
HETATM   23  H   UNK N   1      31.791  18.320   7.482  0.00  0.00     0.169 HD
HETATM   24  H   UNK N   1      32.262  16.962   6.626  0.00  0.00     0.169 HD
ENDBRANCH  19  22
ENDBRANCH   3  19
TORSDOF 5
ENDMDL
MODEL 4
REMARK VINA RESULT:      -7.0      1.651      2.272
REMARK  5 active torsions:
REMARK  status: ('A' for Active; 'I' for Inactive)
REMARK    1  A    between atoms: C_3  and  S_11 
REMARK    2  A    between atoms: C_6  and  C_7 
REMARK       I    between atoms: C_7  and  N_9 
REMARK    3  A    between atoms: N_9  and  C_10 
REMARK    4  A    between atoms: C_10  and  C_15 
REMARK    5  A    between atoms: S_11  and  N_12 
ROOT
HETATM    1  C   UNK N   1      35.789  14.281   9.469  0.00  0.00     0.018 A 
HETATM    2  C   UNK N   1      35.158  15.280   8.751  0.00  0.00     0.026 A 
HETATM    3  C   UNK N   1      34.903  16.505   9.352  0.00  0.00     0.079 A 
HETATM    4  C   UNK N   1      35.226  16.712  10.703  0.00  0.00     0.026 A 
HETATM    5  C   UNK N   1      35.850  15.692  11.438  0.00  0.00     0.018 A 
HETATM    6  C   UNK N   1      36.168  14.484  10.800  0.00  0.00     0.032 A 
ENDROOT
BRANCH   6   7
HETATM    7  C   UNK N   1      37.015  13.460  11.429  0.00  0.00     0.251 C 
HETATM    8  O   UNK N   1      37.822  12.805  10.795  0.00  0.00    -0.268 OA
HETATM    9  N   UNK N   1      36.793  13.224  12.741  0.00  0.00    -0.353 N 
HETATM   10  H   UNK N   1      36.075  13.745  13.169  0.00  0.00     0.163 HD
BRANCH   9  11
HETATM   11  C   UNK N   1      37.492  12.295  13.576  0.00  0.00     0.164 C 
BRANCH  11  12
HETATM   12  C   UNK N   1      36.760  12.260  14.874  0.00  0.00    -0.002 A 
HETATM   13  C   UNK N   1      36.062  13.395  15.283  0.00  0.00     0.012 A 
HETATM   14  C   UNK N   1      35.323  13.373  16.467  0.00  0.00     0.001 A 
HETATM   15  C   UNK N   1      35.266  12.209  17.237  0.00  0.00     0.003 A 
HETATM   16  C   UNK N   1      35.960  11.067  16.835  0.00  0.00     0.043 A 
HETATM   17  C   UNK N   1      36.714  11.085  15.661  0.00  0.00     0.124 A 
HETATM   18  F   UNK N   1      37.364   9.956  15.277  0.00  0.00    -0.205 F 
ENDBRANCH  11  12
ENDBRANCH   9  11
ENDBRANCH   6   7
BRANCH   3  19
HETATM   19  S   UNK N   1      34.383  17.849   8.307  0.00  0.00     0.256 S 
HETATM   20  O   UNK N   1      34.704  17.529   6.838  0.00  0.00    -0.201 OA
HETATM   21  O   UNK N   1      35.232  19.110   8.518  0.00  0.00    -0.201 OA
BRANCH  19  22
HETATM   22  N   UNK N   1      32.704  18.383   8.290  0.00  0.00    -0.324 N 
HETATM   23  H   UNK N   1      32.009  18.776   8.925  0.00  0.00     0.169 HD
HETATM   24  H   UNK N   1      32.305  18.263   7.360  0.00  0.00     0.169 HD
ENDBRANCH  19  22
ENDBRANCH   3  19
TORSDOF 5
ENDMDL
MODEL 5
REMARK VINA RESULT:      -6.8      8.146     11.628
REMARK  5 active torsions:
REMARK  status: ('A' for Active; 'I' for Inactive)
REMARK    1  A    between atoms: C_3  and  S_11 
REMARK    2  A    between atoms: C_6  and  C_7 
REMARK       I    between atoms: C_7  and  N_9 
REMARK    3  A    between atoms: N_9  and  C_10 
REMARK    4  A    between atoms: C_10  and  C_15 
REMARK    5  A    between atoms: S_11  and  N_12 
ROOT
HETATM    1  C   UNK N   1      30.657  17.058   6.511  0.00  0.00     0.018 A 
HETATM    2  C   UNK N   1      32.004  17.187   6.791  0.00  0.00     0.026 A 
HETATM    3  C   UNK N   1      32.409  17.826   7.956  0.00  0.00     0.079 A 
HETATM    4  C   UNK N   1      31.457  18.397   8.817  0.00  0.00     0.026 A 
HETATM    5  C   UNK N   1      30.089  18.283   8.523  0.00  0.00     0.018 A 
HETATM    6  C   UNK N   1      29.690  17.571   7.381  0.00  0.00     0.032 A 
ENDROOT
BRANCH   6   7
HETATM    7  C   UNK N   1      28.288  17.216   7.125  0.00  0.00     0.251 C 
HETATM    8  O   UNK N   1      27.548  16.813   8.004  0.00  0.00    -0.268 OA
HETATM    9  N   UNK N   1      27.879  17.284   5.838  0.00  0.00    -0.353 N 
HETATM   10  H   UNK N   1      28.554  17.552   5.174  0.00  0.00     0.163 HD
BRANCH   9  11
HETATM   11  C   UNK N   1      26.566  17.006   5.340  0.00  0.00     0.164 C 
BRANCH  11  12
HETATM   12  C   UNK N   1      26.119  18.234   4.622  0.00  0.00    -0.002 A 
HETATM   13  C   UNK N   1      27.081  19.131   4.160  0.00  0.00     0.012 A 
HETATM   14  C   UNK N   1      26.694  20.260   3.437  0.00  0.00     0.001 A 
HETATM   15  C   UNK N   1      25.343  20.487   3.158  0.00  0.00     0.003 A 
HETATM   16  C   UNK N   1      24.373  19.594   3.616  0.00  0.00     0.043 A 
HETATM   17  C   UNK N   1      24.750  18.470   4.352  0.00  0.00     0.124 A 
HETATM   18  F   UNK N   1      23.791  17.602   4.768  0.00  0.00    -0.205 F 
ENDBRANCH  11  12
ENDBRANCH   9  11
ENDBRANCH   6   7
BRANCH   3  19
HETATM   19  S   UNK N   1      34.120  17.690   8.426  0.00  0.00     0.256 S 
HETATM   20  O   UNK N   1      34.809  19.060   8.312  0.00  0.00    -0.201 OA
HETATM   21  O   UNK N   1      34.936  16.873   7.416  0.00  0.00    -0.201 OA
BRANCH  19  22
HETATM   22  N   UNK N   1      34.574  17.096  10.021  0.00  0.00    -0.324 N 
HETATM   23  H   UNK N   1      34.135  16.829  10.903  0.00  0.00     0.169 HD
HETATM   24  H   UNK N   1      35.586  16.986  10.083  0.00  0.00     0.169 HD
ENDBRANCH  19  22
ENDBRANCH   3  19
TORSDOF 5
ENDMDL
MODEL 6
REMARK VINA RESULT:      -6.8      4.712      8.412
REMARK  5 active torsions:
REMARK  status: ('A' for Active; 'I' for Inactive)
REMARK    1  A    between atoms: C_3  and  S_11 
REMARK    2  A    between atoms: C_6  and  C_7 
REMARK       I    between atoms: C_7  and  N_9 
REMARK    3  A    between atoms: N_9  and  C_10 
REMARK    4  A    between atoms: C_10  and  C_15 
REMARK    5  A    between atoms: S_11  and  N_12 
ROOT
HETATM    1  C   UNK N   1      34.869  14.901   8.970  0.00  0.00     0.018 A 
HETATM    2  C   UNK N   1      35.360  14.223  10.070  0.00  0.00     0.026 A 
HETATM    3  C   UNK N   1      35.718  14.928  11.212  0.00  0.00     0.079 A 
HETATM    4  C   UNK N   1      35.641  16.330  11.231  0.00  0.00     0.026 A 
HETATM    5  C   UNK N   1      35.160  17.021  10.108  0.00  0.00     0.018 A 
HETATM    6  C   UNK N   1      34.734  16.293   8.987  0.00  0.00     0.032 A 
ENDROOT
BRANCH   6   7
HETATM    7  C   UNK N   1      34.014  16.919   7.869  0.00  0.00     0.251 C 
HETATM    8  O   UNK N   1      34.545  17.724   7.123  0.00  0.00    -0.268 OA
HETATM    9  N   UNK N   1      32.702  16.617   7.757  0.00  0.00    -0.353 N 
HETATM   10  H   UNK N   1      32.328  16.013   8.439  0.00  0.00     0.163 HD
BRANCH   9  11
HETATM   11  C   UNK N   1      31.796  17.082   6.751  0.00  0.00     0.164 C 
BRANCH  11  12
HETATM   12  C   UNK N   1      30.562  17.520   7.464  0.00  0.00    -0.002 A 
HETATM   13  C   UNK N   1      30.680  18.052   8.747  0.00  0.00     0.012 A 
HETATM   14  C   UNK N   1      29.548  18.521   9.416  0.00  0.00     0.001 A 
HETATM   15  C   UNK N   1      28.297  18.475   8.796  0.00  0.00     0.003 A 
HETATM   16  C   UNK N   1      28.169  17.945   7.511  0.00  0.00     0.043 A 
HETATM   17  C   UNK N   1      29.293  17.461   6.841  0.00  0.00     0.124 A 
HETATM   18  F   UNK N   1      29.150  16.970   5.582  0.00  0.00    -0.205 F 
ENDBRANCH  11  12
ENDBRANCH   9  11
ENDBRANCH   6   7
BRANCH   3  19
HETATM   19  S   UNK N   1      36.041  13.997  12.694  0.00  0.00     0.256 S 
HETATM   20  O   UNK N   1      36.932  12.785  12.372  0.00  0.00    -0.201 OA
HETATM   21  O   UNK N   1      34.784  13.296  13.225  0.00  0.00    -0.201 OA
BRANCH  19  22
HETATM   22  N   UNK N   1      36.809  14.754  14.087  0.00  0.00    -0.324 N 
HETATM   23  H   UNK N   1      37.742  14.998  14.421  0.00  0.00     0.169 HD
HETATM   24  H   UNK N   1      36.106  15.033  14.771  0.00  0.00     0.169 HD
ENDBRANCH  19  22
ENDBRANCH   3  19
TORSDOF 5
ENDMDL
MODEL 7
REMARK VINA RESULT:      -6.7     12.068     14.678
REMARK  5 active torsions:
REMARK  status: ('A' for Active; 'I' for Inactive)
REMARK    1  A    between atoms: C_3  and  S_11 
REMARK    2  A    between atoms: C_6  and  C_7 
REMARK       I    between atoms: C_7  and  N_9 
REMARK    3  A    between atoms: N_9  and  C_10 
REMARK    4  A    between atoms: C_10  and  C_15 
REMARK    5  A    between atoms: S_11  and  N_12 
ROOT
HETATM    1  C   UNK N   1      23.744  18.545   3.908  0.00  0.00     0.018 A 
HETATM    2  C   UNK N   1      22.478  18.000   3.817  0.00  0.00     0.026 A 
HETATM    3  C   UNK N   1      21.466  18.706   3.179  0.00  0.00     0.079 A 
HETATM    4  C   UNK N   1      21.709  19.998   2.683  0.00  0.00     0.026 A 
HETATM    5  C   UNK N   1      22.991  20.560   2.792  0.00  0.00     0.018 A 
HETATM    6  C   UNK N   1      24.022  19.807   3.373  0.00  0.00     0.032 A 
ENDROOT
BRANCH   6   7
HETATM    7  C   UNK N   1      25.429  20.229   3.323  0.00  0.00     0.251 C 
HETATM    8  O   UNK N   1      25.856  20.967   2.453  0.00  0.00    -0.268 OA
HETATM    9  N   UNK N   1      26.250  19.688   4.251  0.00  0.00    -0.353 N 
HETATM   10  H   UNK N   1      25.845  19.046   4.878  0.00  0.00     0.163 HD
BRANCH   9  11
HETATM   11  C   UNK N   1      27.647  19.951   4.418  0.00  0.00     0.164 C 
BRANCH  11  12
HETATM   12  C   UNK N   1      28.083  19.171   5.612  0.00  0.00    -0.002 A 
HETATM   13  C   UNK N   1      28.847  18.021   5.421  0.00  0.00     0.012 A 
HETATM   14  C   UNK N   1      29.316  17.302   6.521  0.00  0.00     0.001 A 
HETATM   15  C   UNK N   1      29.035  17.741   7.818  0.00  0.00     0.003 A 
HETATM   16  C   UNK N   1      28.272  18.891   8.019  0.00  0.00     0.043 A 
HETATM   17  C   UNK N   1      27.787  19.608   6.925  0.00  0.00     0.124 A 
HETATM   18  F   UNK N   1      27.065  20.738   7.144  0.00  0.00    -0.205 F 
ENDBRANCH  11  12
ENDBRANCH   9  11
ENDBRANCH   6   7
BRANCH   3  19
HETATM   19  S   UNK N   1      19.955  17.841   2.811  0.00  0.00     0.256 S 
HETATM   20  O   UNK N   1      19.480  17.060   4.048  0.00  0.00    -0.201 OA
HETATM   21  O   UNK N   1      20.169  16.697   1.812  0.00  0.00    -0.201 OA
BRANCH  19  22
HETATM   22  N   UNK N   1      18.526  18.713   2.261  0.00  0.00    -0.324 N 
HETATM   23  H   UNK N   1      18.040  18.936   1.392  0.00  0.00     0.169 HD
HETATM   24  H   UNK N   1      18.033  19.121   3.055  0.00  0.00     0.169 HD
ENDBRANCH  19  22
ENDBRANCH   3  19
TORSDOF 5
ENDMDL
MODEL 8
REMARK VINA RESULT:      -6.6      5.678      8.160
REMARK  5 active torsions:
REMARK  status: ('A' for Active; 'I' for Inactive)
REMARK    1  A    between atoms: C_3  and  S_11 
REMARK    2  A    between atoms: C_6  and  C_7 
REMARK       I    between atoms: C_7  and  N_9 
REMARK    3  A    between atoms: N_9  and  C_10 
REMARK    4  A    between atoms: C_10  and  C_15 
REMARK    5  A    between atoms: S_11  and  N_12 
ROOT
HETATM    1  C   UNK N   1      35.251  12.841  18.004  0.00  0.00     0.018 A 
HETATM    2  C   UNK N   1      35.525  13.386  16.764  0.00  0.00     0.026 A 
HETATM    3  C   UNK N   1      36.056  12.586  15.761  0.00  0.00     0.079 A 
HETATM    4  C   UNK N   1      36.372  11.242  16.020  0.00  0.00     0.026 A 
HETATM    5  C   UNK N   1      36.112  10.693  17.285  0.00  0.00     0.018 A 
HETATM    6  C   UNK N   1      35.509  11.491  18.268  0.00  0.00     0.032 A 
ENDROOT
BRANCH   6   7
HETATM    7  C   UNK N   1      35.001  10.937  19.531  0.00  0.00     0.251 C 
HETATM    8  O   UNK N   1      34.629  11.646  20.449  0.00  0.00    -0.268 OA
HETATM    9  N   UNK N   1      35.045   9.592  19.655  0.00  0.00    -0.353 N 
HETATM   10  H   UNK N   1      35.424   9.090  18.897  0.00  0.00     0.163 HD
BRANCH   9  11
HETATM   11  C   UNK N   1      34.597   8.818  20.772  0.00  0.00     0.164 C 
BRANCH  11  12
HETATM   12  C   UNK N   1      33.275   8.247  20.388  0.00  0.00    -0.002 A 
HETATM   13  C   UNK N   1      33.241   7.044  19.684  0.00  0.00     0.012 A 
HETATM   14  C   UNK N   1      32.016   6.458  19.359  0.00  0.00     0.001 A 
HETATM   15  C   UNK N   1      30.821   7.065  19.754  0.00  0.00     0.003 A 
HETATM   16  C   UNK N   1      30.845   8.269  20.460  0.00  0.00     0.043 A 
HETATM   17  C   UNK N   1      32.065   8.869  20.776  0.00  0.00     0.124 A 
HETATM   18  F   UNK N   1      32.065  10.028  21.483  0.00  0.00    -0.205 F 
ENDBRANCH  11  12
ENDBRANCH   9  11
ENDBRANCH   6   7
BRANCH   3  19
HETATM   19  S   UNK N   1      36.094  13.244  14.108  0.00  0.00     0.256 S 
HETATM   20  O   UNK N   1      36.403  14.750  14.148  0.00  0.00    -0.201 OA
HETATM   21  O   UNK N   1      34.707  13.252  13.453  0.00  0.00    -0.201 OA
BRANCH  19  22
HETATM   22  N   UNK N   1      37.204  12.596  12.902  0.00  0.00    -0.324 N 
HETATM   23  H   UNK N   1      37.596  11.699  12.612  0.00  0.00     0.169 HD
HETATM   24  H   UNK N   1      37.566  13.346  12.315  0.00  0.00     0.169 HD
ENDBRANCH  19  22
ENDBRANCH   3  19
TORSDOF 5
ENDMDL
MODEL 9
REMARK VINA RESULT:      -6.5      6.121      8.657
REMARK  5 active torsions:
REMARK  status: ('A' for Active; 'I' for Inactive)
REMARK    1  A    between atoms: C_3  and  S_11 
REMARK    2  A    between atoms: C_6  and  C_7 
REMARK       I    between atoms: C_7  and  N_9 
REMARK    3  A    between atoms: N_9  and  C_10 
REMARK    4  A    between atoms: C_10  and  C_15 
REMARK    5  A    between atoms: S_11  and  N_12 
ROOT
HETATM    1  C   UNK N   1      35.685  10.755  17.547  0.00  0.00     0.018 A 
HETATM    2  C   UNK N   1      35.853  11.345  16.309  0.00  0.00     0.026 A 
HETATM    3  C   UNK N   1      35.709  12.720  16.174  0.00  0.00     0.079 A 
HETATM    4  C   UNK N   1      35.331  13.503  17.277  0.00  0.00     0.026 A 
HETATM    5  C   UNK N   1      35.141  12.902  18.531  0.00  0.00     0.018 A 
HETATM    6  C   UNK N   1      35.360  11.523  18.670  0.00  0.00     0.032 A 
ENDROOT
BRANCH   6   7
HETATM    7  C   UNK N   1      35.402  10.861  19.982  0.00  0.00     0.251 C 
HETATM    8  O   UNK N   1      36.416  10.817  20.656  0.00  0.00    -0.268 OA
HETATM    9  N   UNK N   1      34.272  10.229  20.369  0.00  0.00    -0.353 N 
HETATM   10  H   UNK N   1      33.516  10.250  19.739  0.00  0.00     0.163 HD
BRANCH   9  11
HETATM   11  C   UNK N   1      34.058   9.531  21.600  0.00  0.00     0.164 C 
BRANCH  11  12
HETATM   12  C   UNK N   1      32.934   8.582  21.359  0.00  0.00    -0.002 A 
HETATM   13  C   UNK N   1      31.971   8.910  20.406  0.00  0.00     0.012 A 
HETATM   14  C   UNK N   1      30.938   8.017  20.119  0.00  0.00     0.001 A 
HETATM   15  C   UNK N   1      30.874   6.784  20.773  0.00  0.00     0.003 A 
HETATM   16  C   UNK N   1      31.835   6.446  21.728  0.00  0.00     0.043 A 
HETATM   17  C   UNK N   1      32.862   7.340  22.031  0.00  0.00     0.124 A 
HETATM   18  F   UNK N   1      33.799   6.981  22.948  0.00  0.00    -0.205 F 
ENDBRANCH  11  12
ENDBRANCH   9  11
ENDBRANCH   6   7
BRANCH   3  19
HETATM   19  S   UNK N   1      36.241  13.464  14.648  0.00  0.00     0.256 S 
HETATM   20  O   UNK N   1      35.036  13.674  13.715  0.00  0.00    -0.201 OA
HETATM   21  O   UNK N   1      37.096  12.510  13.803  0.00  0.00    -0.201 OA
BRANCH  19  22
HETATM   22  N   UNK N   1      37.081  15.013  14.642  0.00  0.00    -0.324 N 
HETATM   23  H   UNK N   1      37.406  15.716  13.978  0.00  0.00     0.169 HD
HETATM   24  H   UNK N   1      37.314  15.292  15.594  0.00  0.00     0.169 HD
ENDBRANCH  19  22
ENDBRANCH   3  19
TORSDOF 5
ENDMDL
