MODEL 1
REMARK VINA RESULT:      -8.0      0.000      0.000
REMARK  8 active torsions:
REMARK  status: ('A' for Active; 'I' for Inactive)
REMARK       I    between atoms: C_2  and  N_4 
REMARK    1  A    between atoms: N_4  and  C_5 
REMARK    2  A    between atoms: C_10  and  C_11 
REMARK    3  A    between atoms: C_11  and  C_12 
REMARK    4  A    between atoms: N_16  and  C_17 
REMARK    5  A    between atoms: C_17  and  C_18 
REMARK    6  A    between atoms: C_18  and  C_19 
REMARK    7  A    between atoms: N_25  and  C_28 
REMARK    8  A    between atoms: C_28  and  C_29 
ROOT
HETATM    1  C   UNK N   1      29.411  16.758   4.029  0.00  0.00     0.087 A 
HETATM    2  N   UNK N   1      28.991  18.041   4.190  0.00  0.00    -0.330 N 
ATOM      3  HN  UNK N   1      29.558  18.878   4.319  1.00  0.00     0.168 HD
HETATM    4  C   UNK N   1      27.658  17.946   4.141  0.00  0.00     0.145 A 
HETATM    5  N   UNK N   1      26.766  18.963   4.218  0.00  0.00    -0.283 N 
HETATM    6  C   UNK N   1      27.288  16.662   3.971  0.00  0.00     0.147 A 
HETATM    7  N   UNK N   1      28.381  15.881   3.896  0.00  0.00    -0.338 N 
HETATM    8  C   UNK N   1      25.951  16.318   3.878  0.00  0.00     0.282 A 
HETATM    9  O   UNK N   1      25.624  15.157   3.690  0.00  0.00    -0.265 OA
HETATM   10  N   UNK N   1      25.002  17.328   3.992  0.00  0.00    -0.260 N 
HETATM   11  C   UNK N   1      25.414  18.651   4.156  0.00  0.00     0.333 A 
HETATM   12  O   UNK N   1      24.582  19.544   4.227  0.00  0.00    -0.246 OA
HETATM   13  H   UNK N   1      28.425  14.906   3.774  0.00  0.00     0.167 HD
ENDROOT
BRANCH   1  14
HETATM   14  C   UNK N   1      30.857  16.347   4.030  0.00  0.00     0.115 C 
BRANCH  14  15
HETATM   15  C   UNK N   1      31.658  16.801   5.227  0.00  0.00    -0.051 A 
HETATM   16  C   UNK N   1      31.145  16.743   6.531  0.00  0.00     0.010 A 
HETATM   17  C   UNK N   1      31.927  17.120   7.621  0.00  0.00     0.030 A 
HETATM   18  C   UNK N   1      33.235  17.570   7.432  0.00  0.00     0.034 A 
HETATM   19  C   UNK N   1      33.748  17.645   6.126  0.00  0.00     0.030 A 
HETATM   20  C   UNK N   1      32.963  17.264   5.030  0.00  0.00     0.010 A 
BRANCH  18  21
HETATM   21  N   UNK N   1      34.002  17.909   8.586  0.00  0.00    -0.328 N 
HETATM   22  C   UNK N   1      34.790  17.090   9.334  0.00  0.00     0.218 C 
HETATM   23  O   UNK N   1      35.354  17.549  10.313  0.00  0.00    -0.274 OA
HETATM   24  C   UNK N   1      35.005  15.649   9.000  0.00  0.00     0.117 C 
HETATM   25  H   UNK N   1      33.955  18.848   8.875  0.00  0.00     0.169 HD
ENDBRANCH  18  21
ENDBRANCH  14  15
ENDBRANCH   1  14
BRANCH   5  26
HETATM   26  C   UNK N   1      27.236  20.343   4.327  0.00  0.00     0.135 C 
BRANCH  26  27
HETATM   27  C   UNK N   1      27.727  20.607   5.744  0.00  0.00     0.020 C 
BRANCH  27  28
HETATM   28  C   UNK N   1      27.073  21.848   6.309  0.00  0.00    -0.003 C 
HETATM   29  C   UNK N   1      26.069  21.442   7.368  0.00  0.00     0.005 C 
ENDBRANCH  27  28
ENDBRANCH  26  27
ENDBRANCH   5  26
BRANCH  10  30
HETATM   30  C   UNK N   1      23.563  17.049   3.862  0.00  0.00     0.178 C 
BRANCH  30  31
HETATM   31  C   UNK N   1      22.814  16.766   5.142  0.00  0.00    -0.001 A 
HETATM   32  C   UNK N   1      23.029  15.601   5.895  0.00  0.00     0.012 A 
HETATM   33  C   UNK N   1      22.277  15.354   7.048  0.00  0.00     0.001 A 
HETATM   34  C   UNK N   1      21.310  16.274   7.462  0.00  0.00     0.003 A 
HETATM   35  C   UNK N   1      21.102  17.444   6.729  0.00  0.00     0.043 A 
HETATM   36  C   UNK N   1      21.849  17.691   5.573  0.00  0.00     0.124 A 
HETATM   37  F   UNK N   1      21.630  18.832   4.873  0.00  0.00    -0.205 F 
ENDBRANCH  30  31
ENDBRANCH  10  30
TORSDOF 8
ENDMDL
MODEL 2
REMARK VINA RESULT:      -8.0      7.331     12.257
REMARK  8 active torsions:
REMARK  status: ('A' for Active; 'I' for Inactive)
REMARK       I    between atoms: C_2  and  N_4 
REMARK    1  A    between atoms: N_4  and  C_5 
REMARK    2  A    between atoms: C_10  and  C_11 
REMARK    3  A    between atoms: C_11  and  C_12 
REMARK    4  A    between atoms: N_16  and  C_17 
REMARK    5  A    between atoms: C_17  and  C_18 
REMARK    6  A    between atoms: C_18  and  C_19 
REMARK    7  A    between atoms: N_25  and  C_28 
REMARK    8  A    between atoms: C_28  and  C_29 
ROOT
HETATM    1  C   UNK N   1      36.515  14.244  13.643  0.00  0.00     0.087 A 
HETATM    2  N   UNK N   1      36.338  13.157  12.846  0.00  0.00    -0.330 N 
ATOM      3  HN  UNK N   1      36.469  12.174  13.084  1.00  0.00     0.168 HD
HETATM    4  C   UNK N   1      35.953  13.680  11.677  0.00  0.00     0.145 A 
HETATM    5  N   UNK N   1      35.615  13.002  10.554  0.00  0.00    -0.283 N 
HETATM    6  C   UNK N   1      35.912  15.024  11.760  0.00  0.00     0.147 A 
HETATM    7  N   UNK N   1      36.265  15.414  12.998  0.00  0.00    -0.338 N 
HETATM    8  C   UNK N   1      35.527  15.787  10.672  0.00  0.00     0.282 A 
HETATM    9  O   UNK N   1      35.459  17.002  10.763  0.00  0.00    -0.265 OA
HETATM   10  N   UNK N   1      35.210  15.131   9.486  0.00  0.00    -0.260 N 
HETATM   11  C   UNK N   1      35.250  13.737   9.433  0.00  0.00     0.333 A 
HETATM   12  O   UNK N   1      34.944  13.158   8.401  0.00  0.00    -0.246 OA
HETATM   13  H   UNK N   1      36.327  16.330  13.353  0.00  0.00     0.167 HD
ENDROOT
BRANCH   1  14
HETATM   14  C   UNK N   1      36.971  14.166  15.073  0.00  0.00     0.115 C 
BRANCH  14  15
HETATM   15  C   UNK N   1      36.372  13.041  15.884  0.00  0.00    -0.051 A 
HETATM   16  C   UNK N   1      36.669  11.695  15.622  0.00  0.00     0.010 A 
HETATM   17  C   UNK N   1      36.142  10.682  16.420  0.00  0.00     0.030 A 
HETATM   18  C   UNK N   1      35.301  10.989  17.491  0.00  0.00     0.034 A 
HETATM   19  C   UNK N   1      34.988  12.336  17.747  0.00  0.00     0.030 A 
HETATM   20  C   UNK N   1      35.519  13.354  16.947  0.00  0.00     0.010 A 
BRANCH  18  21
HETATM   21  N   UNK N   1      34.818   9.916  18.296  0.00  0.00    -0.328 N 
HETATM   22  C   UNK N   1      35.416   9.353  19.381  0.00  0.00     0.218 C 
HETATM   23  O   UNK N   1      34.868   8.414  19.935  0.00  0.00    -0.274 OA
HETATM   24  C   UNK N   1      36.715   9.845  19.935  0.00  0.00     0.117 C 
HETATM   25  H   UNK N   1      33.949   9.537  18.035  0.00  0.00     0.169 HD
ENDBRANCH  18  21
ENDBRANCH  14  15
ENDBRANCH   1  14
BRANCH   5  26
HETATM   26  C   UNK N   1      35.609  11.540  10.554  0.00  0.00     0.135 C 
BRANCH  26  27
HETATM   27  C   UNK N   1      34.298  11.033  11.138  0.00  0.00     0.020 C 
BRANCH  27  28
HETATM   28  C   UNK N   1      34.562  10.065  12.270  0.00  0.00    -0.003 C 
HETATM   29  C   UNK N   1      33.832  10.538  13.509  0.00  0.00     0.005 C 
ENDBRANCH  27  28
ENDBRANCH  26  27
ENDBRANCH   5  26
BRANCH  10  30
HETATM   30  C   UNK N   1      34.751  15.868   8.299  0.00  0.00     0.178 C 
BRANCH  30  31
HETATM   31  C   UNK N   1      33.381  16.497   8.385  0.00  0.00    -0.001 A 
HETATM   32  C   UNK N   1      32.216  15.735   8.568  0.00  0.00     0.012 A 
HETATM   33  C   UNK N   1      30.962  16.353   8.592  0.00  0.00     0.001 A 
HETATM   34  C   UNK N   1      30.863  17.739   8.440  0.00  0.00     0.003 A 
HETATM   35  C   UNK N   1      32.018  18.506   8.276  0.00  0.00     0.043 A 
HETATM   36  C   UNK N   1      33.273  17.890   8.247  0.00  0.00     0.124 A 
HETATM   37  F   UNK N   1      34.383  18.652   8.083  0.00  0.00    -0.205 F 
ENDBRANCH  30  31
ENDBRANCH  10  30
TORSDOF 8
ENDMDL
MODEL 3
REMARK VINA RESULT:      -7.9      5.819     11.354
REMARK  8 active torsions:
REMARK  status: ('A' for Active; 'I' for Inactive)
REMARK       I    between atoms: C_2  and  N_4 
REMARK    1  A    between atoms: N_4  and  C_5 
REMARK    2  A    between atoms: C_10  and  C_11 
REMARK    3  A    between atoms: C_11  and  C_12 
REMARK    4  A    between atoms: N_16  and  C_17 
REMARK    5  A    between atoms: C_17  and  C_18 
REMARK    6  A    between atoms: C_18  and  C_19 
REMARK    7  A    between atoms: N_25  and  C_28 
REMARK    8  A    between atoms: C_28  and  C_29 
ROOT
HETATM    1  C   UNK N   1      34.576  16.832   8.740  0.00  0.00     0.087 A 
HETATM    2  N   UNK N   1      34.961  15.688   8.116  0.00  0.00    -0.330 N 
ATOM      3  HN  UNK N   1      34.920  15.470   7.121  1.00  0.00     0.168 HD
HETATM    4  C   UNK N   1      35.404  14.916   9.113  0.00  0.00     0.145 A 
HETATM    5  N   UNK N   1      35.935  13.674   9.008  0.00  0.00    -0.283 N 
HETATM    6  C   UNK N   1      35.281  15.560  10.290  0.00  0.00     0.147 A 
HETATM    7  N   UNK N   1      34.756  16.781  10.086  0.00  0.00    -0.338 N 
HETATM    8  C   UNK N   1      35.687  14.961  11.469  0.00  0.00     0.282 A 
HETATM    9  O   UNK N   1      35.604  15.562  12.528  0.00  0.00    -0.265 OA
HETATM   10  N   UNK N   1      36.201  13.669  11.408  0.00  0.00    -0.260 N 
HETATM   11  C   UNK N   1      36.329  13.031  10.174  0.00  0.00     0.333 A 
HETATM   12  O   UNK N   1      36.807  11.908  10.116  0.00  0.00    -0.246 OA
HETATM   13  H   UNK N   1      34.551  17.475  10.754  0.00  0.00     0.167 HD
ENDROOT
BRANCH   1  14
HETATM   14  C   UNK N   1      33.984  18.015   8.026  0.00  0.00     0.115 C 
BRANCH  14  15
HETATM   15  C   UNK N   1      33.011  17.683   6.920  0.00  0.00    -0.051 A 
HETATM   16  C   UNK N   1      31.667  17.374   7.179  0.00  0.00     0.010 A 
HETATM   17  C   UNK N   1      30.780  17.123   6.135  0.00  0.00     0.030 A 
HETATM   18  C   UNK N   1      31.216  17.167   4.809  0.00  0.00     0.034 A 
HETATM   19  C   UNK N   1      32.565  17.461   4.546  0.00  0.00     0.030 A 
HETATM   20  C   UNK N   1      33.456  17.716   5.595  0.00  0.00     0.010 A 
BRANCH  18  21
HETATM   21  N   UNK N   1      30.258  16.937   3.778  0.00  0.00    -0.328 N 
HETATM   22  C   UNK N   1      29.979  15.766   3.145  0.00  0.00     0.218 C 
HETATM   23  O   UNK N   1      29.141  15.761   2.258  0.00  0.00    -0.274 OA
HETATM   24  C   UNK N   1      30.647  14.476   3.499  0.00  0.00     0.117 C 
HETATM   25  H   UNK N   1      29.737  17.721   3.490  0.00  0.00     0.169 HD
ENDBRANCH  18  21
ENDBRANCH  14  15
ENDBRANCH   1  14
BRANCH   5  26
HETATM   26  C   UNK N   1      36.110  13.061   7.691  0.00  0.00     0.135 C 
BRANCH  26  27
HETATM   27  C   UNK N   1      34.839  12.322   7.297  0.00  0.00     0.020 C 
BRANCH  27  28
HETATM   28  C   UNK N   1      34.272  12.891   6.016  0.00  0.00    -0.003 C 
HETATM   29  C   UNK N   1      32.924  13.519   6.304  0.00  0.00     0.005 C 
ENDBRANCH  27  28
ENDBRANCH  26  27
ENDBRANCH   5  26
BRANCH  10  30
HETATM   30  C   UNK N   1      36.694  12.981  12.612  0.00  0.00     0.178 C 
BRANCH  30  31
HETATM   31  C   UNK N   1      35.661  12.265  13.449  0.00  0.00    -0.001 A 
HETATM   32  C   UNK N   1      34.960  11.143  12.978  0.00  0.00     0.012 A 
HETATM   33  C   UNK N   1      33.976  10.540  13.767  0.00  0.00     0.001 A 
HETATM   34  C   UNK N   1      33.689  11.050  15.036  0.00  0.00     0.003 A 
HETATM   35  C   UNK N   1      34.394  12.154  15.520  0.00  0.00     0.043 A 
HETATM   36  C   UNK N   1      35.376  12.761  14.731  0.00  0.00     0.124 A 
HETATM   37  F   UNK N   1      36.047  13.835  15.217  0.00  0.00    -0.205 F 
ENDBRANCH  30  31
ENDBRANCH  10  30
TORSDOF 8
ENDMDL
MODEL 4
REMARK VINA RESULT:      -7.9      5.282     11.757
REMARK  8 active torsions:
REMARK  status: ('A' for Active; 'I' for Inactive)
REMARK       I    between atoms: C_2  and  N_4 
REMARK    1  A    between atoms: N_4  and  C_5 
REMARK    2  A    between atoms: C_10  and  C_11 
REMARK    3  A    between atoms: C_11  and  C_12 
REMARK    4  A    between atoms: N_16  and  C_17 
REMARK    5  A    between atoms: C_17  and  C_18 
REMARK    6  A    between atoms: C_18  and  C_19 
REMARK    7  A    between atoms: N_25  and  C_28 
REMARK    8  A    between atoms: C_28  and  C_29 
ROOT
HETATM    1  C   UNK N   1      34.138  16.764   9.057  0.00  0.00     0.087 A 
HETATM    2  N   UNK N   1      34.181  15.499   8.563  0.00  0.00    -0.330 N 
ATOM      3  HN  UNK N   1      33.823  15.159   7.671  1.00  0.00     0.168 HD
HETATM    4  C   UNK N   1      34.803  14.805   9.522  0.00  0.00     0.145 A 
HETATM    5  N   UNK N   1      35.125  13.490   9.496  0.00  0.00    -0.283 N 
HETATM    6  C   UNK N   1      35.110  15.613  10.556  0.00  0.00     0.147 A 
HETATM    7  N   UNK N   1      34.699  16.866  10.290  0.00  0.00    -0.338 N 
HETATM    8  C   UNK N   1      35.771  15.119  11.666  0.00  0.00     0.282 A 
HETATM    9  O   UNK N   1      36.076  15.862  12.584  0.00  0.00    -0.265 OA
HETATM   10  N   UNK N   1      36.085  13.763  11.696  0.00  0.00    -0.260 N 
HETATM   11  C   UNK N   1      35.766  12.953  10.606  0.00  0.00     0.333 A 
HETATM   12  O   UNK N   1      36.066  11.769  10.619  0.00  0.00    -0.246 OA
HETATM   13  H   UNK N   1      34.786  17.667  10.856  0.00  0.00     0.167 HD
ENDROOT
BRANCH   1  14
HETATM   14  C   UNK N   1      33.508  17.922   8.334  0.00  0.00     0.115 C 
BRANCH  14  15
HETATM   15  C   UNK N   1      32.100  17.689   7.839  0.00  0.00    -0.051 A 
HETATM   16  C   UNK N   1      30.977  17.973   8.630  0.00  0.00     0.010 A 
HETATM   17  C   UNK N   1      29.690  17.796   8.127  0.00  0.00     0.030 A 
HETATM   18  C   UNK N   1      29.496  17.325   6.827  0.00  0.00     0.034 A 
HETATM   19  C   UNK N   1      30.619  17.024   6.037  0.00  0.00     0.030 A 
HETATM   20  C   UNK N   1      31.912  17.203   6.541  0.00  0.00     0.010 A 
BRANCH  18  21
HETATM   21  N   UNK N   1      28.157  17.196   6.352  0.00  0.00    -0.328 N 
HETATM   22  C   UNK N   1      27.445  18.090   5.613  0.00  0.00     0.218 C 
HETATM   23  O   UNK N   1      26.292  17.824   5.319  0.00  0.00    -0.274 OA
HETATM   24  C   UNK N   1      28.021  19.384   5.133  0.00  0.00     0.117 C 
HETATM   25  H   UNK N   1      27.693  16.361   6.587  0.00  0.00     0.169 HD
ENDBRANCH  18  21
ENDBRANCH  14  15
ENDBRANCH   1  14
BRANCH   5  26
HETATM   26  C   UNK N   1      34.829  12.685   8.311  0.00  0.00     0.135 C 
BRANCH  26  27
HETATM   27  C   UNK N   1      33.407  12.150   8.398  0.00  0.00     0.020 C 
BRANCH  27  28
HETATM   28  C   UNK N   1      33.416  10.643   8.530  0.00  0.00    -0.003 C 
HETATM   29  C   UNK N   1      32.869  10.261   9.889  0.00  0.00     0.005 C 
ENDBRANCH  27  28
ENDBRANCH  26  27
ENDBRANCH   5  26
BRANCH  10  30
HETATM   30  C   UNK N   1      36.824  13.171  12.822  0.00  0.00     0.178 C 
BRANCH  30  31
HETATM   31  C   UNK N   1      36.030  12.888  14.075  0.00  0.00    -0.001 A 
HETATM   32  C   UNK N   1      34.935  12.010  14.087  0.00  0.00     0.012 A 
HETATM   33  C   UNK N   1      34.196  11.816  15.259  0.00  0.00     0.001 A 
HETATM   34  C   UNK N   1      34.551  12.492  16.429  0.00  0.00     0.003 A 
HETATM   35  C   UNK N   1      35.650  13.353  16.430  0.00  0.00     0.043 A 
HETATM   36  C   UNK N   1      36.388  13.552  15.259  0.00  0.00     0.124 A 
HETATM   37  F   UNK N   1      37.450  14.396  15.280  0.00  0.00    -0.205 F 
ENDBRANCH  30  31
ENDBRANCH  10  30
TORSDOF 8
ENDMDL
MODEL 5
REMARK VINA RESULT:      -7.8      3.107      4.651
REMARK  8 active torsions:
REMARK  status: ('A' for Active; 'I' for Inactive)
REMARK       I    between atoms: C_2  and  N_4 
REMARK    1  A    between atoms: N_4  and  C_5 
REMARK    2  A    between atoms: C_10  and  C_11 
REMARK    3  A    between atoms: C_11  and  C_12 
REMARK    4  A    between atoms: N_16  and  C_17 
REMARK    5  A    between atoms: C_17  and  C_18 
REMARK    6  A    between atoms: C_18  and  C_19 
REMARK    7  A    between atoms: N_25  and  C_28 
REMARK    8  A    between atoms: C_28  and  C_29 
ROOT
HETATM    1  C   UNK N   1      26.860  16.853   5.657  0.00  0.00     0.087 A 
HETATM    2  N   UNK N   1      25.612  17.376   5.524  0.00  0.00    -0.330 N 
ATOM      3  HN  UNK N   1      25.353  18.322   5.246  1.00  0.00     0.168 HD
HETATM    4  C   UNK N   1      24.806  16.358   5.843  0.00  0.00     0.145 A 
HETATM    5  N   UNK N   1      23.452  16.357   5.830  0.00  0.00    -0.283 N 
HETATM    6  C   UNK N   1      25.534  15.272   6.167  0.00  0.00     0.147 A 
HETATM    7  N   UNK N   1      26.845  15.555   6.060  0.00  0.00    -0.338 N 
HETATM    8  C   UNK N   1      24.915  14.087   6.523  0.00  0.00     0.282 A 
HETATM    9  O   UNK N   1      25.580  13.097   6.783  0.00  0.00    -0.265 OA
HETATM   10  N   UNK N   1      23.525  14.056   6.561  0.00  0.00    -0.260 N 
HETATM   11  C   UNK N   1      22.796  15.192   6.207  0.00  0.00     0.333 A 
HETATM   12  O   UNK N   1      21.574  15.159   6.213  0.00  0.00    -0.246 OA
HETATM   13  H   UNK N   1      27.611  14.963   6.232  0.00  0.00     0.167 HD
ENDROOT
BRANCH   1  14
HETATM   14  C   UNK N   1      28.123  17.634   5.419  0.00  0.00     0.115 C 
BRANCH  14  15
HETATM   15  C   UNK N   1      29.243  17.367   6.396  0.00  0.00    -0.051 A 
HETATM   16  C   UNK N   1      30.322  16.529   6.079  0.00  0.00     0.010 A 
HETATM   17  C   UNK N   1      31.368  16.342   6.981  0.00  0.00     0.030 A 
HETATM   18  C   UNK N   1      31.355  16.983   8.222  0.00  0.00     0.034 A 
HETATM   19  C   UNK N   1      30.268  17.812   8.549  0.00  0.00     0.030 A 
HETATM   20  C   UNK N   1      29.218  18.000   7.642  0.00  0.00     0.010 A 
BRANCH  18  21
HETATM   21  N   UNK N   1      32.468  16.785   9.091  0.00  0.00    -0.328 N 
HETATM   22  C   UNK N   1      33.704  17.348   9.006  0.00  0.00     0.218 C 
HETATM   23  O   UNK N   1      34.551  17.038   9.827  0.00  0.00    -0.274 OA
HETATM   24  C   UNK N   1      34.068  18.345   7.952  0.00  0.00     0.117 C 
HETATM   25  H   UNK N   1      32.325  16.167   9.843  0.00  0.00     0.169 HD
ENDBRANCH  18  21
ENDBRANCH  14  15
ENDBRANCH   1  14
BRANCH   5  26
HETATM   26  C   UNK N   1      22.722  17.548   5.395  0.00  0.00     0.135 C 
BRANCH  26  27
HETATM   27  C   UNK N   1      22.470  17.475   3.896  0.00  0.00     0.020 C 
BRANCH  27  28
HETATM   28  C   UNK N   1      21.037  17.842   3.582  0.00  0.00    -0.003 C 
HETATM   29  C   UNK N   1      20.961  19.320   3.261  0.00  0.00     0.005 C 
ENDBRANCH  27  28
ENDBRANCH  26  27
ENDBRANCH   5  26
BRANCH  10  30
HETATM   30  C   UNK N   1      22.792  12.823   6.887  0.00  0.00     0.178 C 
BRANCH  30  31
HETATM   31  C   UNK N   1      22.431  12.619   8.340  0.00  0.00    -0.001 A 
HETATM   32  C   UNK N   1      21.394  13.331   8.963  0.00  0.00     0.012 A 
HETATM   33  C   UNK N   1      21.126  13.147  10.323  0.00  0.00     0.001 A 
HETATM   34  C   UNK N   1      21.889  12.245  11.069  0.00  0.00     0.003 A 
HETATM   35  C   UNK N   1      22.910  11.519  10.454  0.00  0.00     0.043 A 
HETATM   36  C   UNK N   1      23.183  11.704   9.095  0.00  0.00     0.124 A 
HETATM   37  F   UNK N   1      24.182  10.992   8.516  0.00  0.00    -0.205 F 
ENDBRANCH  30  31
ENDBRANCH  10  30
TORSDOF 8
ENDMDL
MODEL 6
REMARK VINA RESULT:      -7.7      3.853      6.739
REMARK  8 active torsions:
REMARK  status: ('A' for Active; 'I' for Inactive)
REMARK       I    between atoms: C_2  and  N_4 
REMARK    1  A    between atoms: N_4  and  C_5 
REMARK    2  A    between atoms: C_10  and  C_11 
REMARK    3  A    between atoms: C_11  and  C_12 
REMARK    4  A    between atoms: N_16  and  C_17 
REMARK    5  A    between atoms: C_17  and  C_18 
REMARK    6  A    between atoms: C_18  and  C_19 
REMARK    7  A    between atoms: N_25  and  C_28 
REMARK    8  A    between atoms: C_28  and  C_29 
ROOT
HETATM    1  C   UNK N   1      33.810  17.134   8.680  0.00  0.00     0.087 A 
HETATM    2  N   UNK N   1      33.962  17.137   7.329  0.00  0.00    -0.330 N 
ATOM      3  HN  UNK N   1      34.830  17.114   6.793  1.00  0.00     0.168 HD
HETATM    4  C   UNK N   1      32.708  17.178   6.868  0.00  0.00     0.145 A 
HETATM    5  N   UNK N   1      32.315  17.161   5.572  0.00  0.00    -0.283 N 
HETATM    6  C   UNK N   1      31.836  17.211   7.895  0.00  0.00     0.147 A 
HETATM    7  N   UNK N   1      32.506  17.186   9.061  0.00  0.00    -0.338 N 
HETATM    8  C   UNK N   1      30.472  17.244   7.663  0.00  0.00     0.282 A 
HETATM    9  O   UNK N   1      29.687  17.241   8.597  0.00  0.00    -0.265 OA
HETATM   10  N   UNK N   1      30.029  17.269   6.345  0.00  0.00    -0.260 N 
HETATM   11  C   UNK N   1      30.954  17.220   5.301  0.00  0.00     0.333 A 
HETATM   12  O   UNK N   1      30.565  17.212   4.143  0.00  0.00    -0.246 OA
HETATM   13  H   UNK N   1      32.140  17.200   9.974  0.00  0.00     0.167 HD
ENDROOT
BRANCH   1  14
HETATM   14  C   UNK N   1      34.958  17.111   9.650  0.00  0.00     0.115 C 
BRANCH  14  15
HETATM   15  C   UNK N   1      35.119  15.830  10.433  0.00  0.00    -0.051 A 
HETATM   16  C   UNK N   1      35.684  15.810  11.718  0.00  0.00     0.010 A 
HETATM   17  C   UNK N   1      35.771  14.621  12.437  0.00  0.00     0.030 A 
HETATM   18  C   UNK N   1      35.304  13.424  11.889  0.00  0.00     0.034 A 
HETATM   19  C   UNK N   1      34.751  13.438  10.596  0.00  0.00     0.030 A 
HETATM   20  C   UNK N   1      34.662  14.634   9.873  0.00  0.00     0.010 A 
BRANCH  18  21
HETATM   21  N   UNK N   1      35.386  12.243  12.684  0.00  0.00    -0.328 N 
HETATM   22  C   UNK N   1      36.356  11.290  12.665  0.00  0.00     0.218 C 
HETATM   23  O   UNK N   1      36.247  10.323  13.400  0.00  0.00    -0.274 OA
HETATM   24  C   UNK N   1      37.563  11.383  11.787  0.00  0.00     0.117 C 
HETATM   25  H   UNK N   1      34.651  12.101  13.323  0.00  0.00     0.169 HD
ENDBRANCH  18  21
ENDBRANCH  14  15
ENDBRANCH   1  14
BRANCH   5  26
HETATM   26  C   UNK N   1      33.310  17.048   4.507  0.00  0.00     0.135 C 
BRANCH  26  27
HETATM   27  C   UNK N   1      33.704  15.588   4.325  0.00  0.00     0.020 C 
BRANCH  27  28
HETATM   28  C   UNK N   1      33.214  15.070   2.992  0.00  0.00    -0.003 C 
HETATM   29  C   UNK N   1      32.054  14.123   3.223  0.00  0.00     0.005 C 
ENDBRANCH  27  28
ENDBRANCH  26  27
ENDBRANCH   5  26
BRANCH  10  30
HETATM   30  C   UNK N   1      28.595  17.261   6.016  0.00  0.00     0.178 C 
BRANCH  30  31
HETATM   31  C   UNK N   1      27.961  18.603   5.740  0.00  0.00    -0.001 A 
HETATM   32  C   UNK N   1      27.812  19.582   6.736  0.00  0.00     0.012 A 
HETATM   33  C   UNK N   1      27.173  20.793   6.450  0.00  0.00     0.001 A 
HETATM   34  C   UNK N   1      26.685  21.038   5.164  0.00  0.00     0.003 A 
HETATM   35  C   UNK N   1      26.845  20.078   4.162  0.00  0.00     0.043 A 
HETATM   36  C   UNK N   1      27.479  18.865   4.447  0.00  0.00     0.124 A 
HETATM   37  F   UNK N   1      27.622  17.943   3.462  0.00  0.00    -0.205 F 
ENDBRANCH  30  31
ENDBRANCH  10  30
TORSDOF 8
ENDMDL
MODEL 7
REMARK VINA RESULT:      -7.4      1.677      2.351
REMARK  8 active torsions:
REMARK  status: ('A' for Active; 'I' for Inactive)
REMARK       I    between atoms: C_2  and  N_4 
REMARK    1  A    between atoms: N_4  and  C_5 
REMARK    2  A    between atoms: C_10  and  C_11 
REMARK    3  A    between atoms: C_11  and  C_12 
REMARK    4  A    between atoms: N_16  and  C_17 
REMARK    5  A    between atoms: C_17  and  C_18 
REMARK    6  A    between atoms: C_18  and  C_19 
REMARK    7  A    between atoms: N_25  and  C_28 
REMARK    8  A    between atoms: C_28  and  C_29 
ROOT
HETATM    1  C   UNK N   1      28.992  16.515   3.485  0.00  0.00     0.087 A 
HETATM    2  N   UNK N   1      28.357  17.717   3.463  0.00  0.00    -0.330 N 
ATOM      3  HN  UNK N   1      28.760  18.639   3.296  1.00  0.00     0.168 HD
HETATM    4  C   UNK N   1      27.081  17.407   3.714  0.00  0.00     0.145 A 
HETATM    5  N   UNK N   1      26.030  18.260   3.764  0.00  0.00    -0.283 N 
HETATM    6  C   UNK N   1      26.952  16.077   3.892  0.00  0.00     0.147 A 
HETATM    7  N   UNK N   1      28.150  15.483   3.753  0.00  0.00    -0.338 N 
HETATM    8  C   UNK N   1      25.715  15.517   4.153  0.00  0.00     0.282 A 
HETATM    9  O   UNK N   1      25.599  14.309   4.281  0.00  0.00    -0.265 OA
HETATM   10  N   UNK N   1      24.616  16.364   4.253  0.00  0.00    -0.260 N 
HETATM   11  C   UNK N   1      24.777  17.735   4.051  0.00  0.00     0.333 A 
HETATM   12  O   UNK N   1      23.807  18.478   4.110  0.00  0.00    -0.246 OA
HETATM   13  H   UNK N   1      28.367  14.525   3.828  0.00  0.00     0.167 HD
ENDROOT
BRANCH   1  14
HETATM   14  C   UNK N   1      30.470  16.347   3.269  0.00  0.00     0.115 C 
BRANCH  14  15
HETATM   15  C   UNK N   1      31.344  16.739   4.437  0.00  0.00    -0.051 A 
HETATM   16  C   UNK N   1      32.658  17.198   4.261  0.00  0.00     0.010 A 
HETATM   17  C   UNK N   1      33.423  17.601   5.354  0.00  0.00     0.030 A 
HETATM   18  C   UNK N   1      32.895  17.549   6.646  0.00  0.00     0.034 A 
HETATM   19  C   UNK N   1      31.584  17.075   6.827  0.00  0.00     0.030 A 
HETATM   20  C   UNK N   1      30.815  16.671   5.729  0.00  0.00     0.010 A 
BRANCH  18  21
HETATM   21  N   UNK N   1      33.709  18.008   7.723  0.00  0.00    -0.328 N 
HETATM   22  C   UNK N   1      34.461  17.262   8.576  0.00  0.00     0.218 C 
HETATM   23  O   UNK N   1      35.076  17.826   9.466  0.00  0.00    -0.274 OA
HETATM   24  C   UNK N   1      34.579  15.776   8.463  0.00  0.00     0.117 C 
HETATM   25  H   UNK N   1      33.728  18.981   7.866  0.00  0.00     0.169 HD
ENDBRANCH  18  21
ENDBRANCH  14  15
ENDBRANCH   1  14
BRANCH   5  26
HETATM   26  C   UNK N   1      26.227  19.682   3.487  0.00  0.00     0.135 C 
BRANCH  26  27
HETATM   27  C   UNK N   1      26.030  20.485   4.765  0.00  0.00     0.020 C 
BRANCH  27  28
HETATM   28  C   UNK N   1      27.365  20.825   5.389  0.00  0.00    -0.003 C 
HETATM   29  C   UNK N   1      27.140  21.340   6.795  0.00  0.00     0.005 C 
ENDBRANCH  27  28
ENDBRANCH  26  27
ENDBRANCH   5  26
BRANCH  10  30
HETATM   30  C   UNK N   1      23.260  15.841   4.486  0.00  0.00     0.178 C 
BRANCH  30  31
HETATM   31  C   UNK N   1      22.411  15.603   3.261  0.00  0.00    -0.001 A 
HETATM   32  C   UNK N   1      22.753  14.655   2.283  0.00  0.00     0.012 A 
HETATM   33  C   UNK N   1      21.965  14.502   1.138  0.00  0.00     0.001 A 
HETATM   34  C   UNK N   1      20.823  15.289   0.965  0.00  0.00     0.003 A 
HETATM   35  C   UNK N   1      20.465  16.221   1.942  0.00  0.00     0.043 A 
HETATM   36  C   UNK N   1      21.254  16.379   3.085  0.00  0.00     0.124 A 
HETATM   37  F   UNK N   1      20.892  17.293   4.020  0.00  0.00    -0.205 F 
ENDBRANCH  30  31
ENDBRANCH  10  30
TORSDOF 8
ENDMDL
MODEL 8
REMARK VINA RESULT:      -7.4      5.258     11.962
REMARK  8 active torsions:
REMARK  status: ('A' for Active; 'I' for Inactive)
REMARK       I    between atoms: C_2  and  N_4 
REMARK    1  A    between atoms: N_4  and  C_5 
REMARK    2  A    between atoms: C_10  and  C_11 
REMARK    3  A    between atoms: C_11  and  C_12 
REMARK    4  A    between atoms: N_16  and  C_17 
REMARK    5  A    between atoms: C_17  and  C_18 
REMARK    6  A    between atoms: C_18  and  C_19 
REMARK    7  A    between atoms: N_25  and  C_28 
REMARK    8  A    between atoms: C_28  and  C_29 
ROOT
HETATM    1  C   UNK N   1      34.550  16.837   8.984  0.00  0.00     0.087 A 
HETATM    2  N   UNK N   1      34.928  15.715   8.316  0.00  0.00    -0.330 N 
ATOM      3  HN  UNK N   1      34.845  15.518   7.320  1.00  0.00     0.168 HD
HETATM    4  C   UNK N   1      35.432  14.930   9.275  0.00  0.00     0.145 A 
HETATM    5  N   UNK N   1      35.981  13.703   9.117  0.00  0.00    -0.283 N 
HETATM    6  C   UNK N   1      35.350  15.546  10.471  0.00  0.00     0.147 A 
HETATM    7  N   UNK N   1      34.793  16.760  10.319  0.00  0.00    -0.338 N 
HETATM    8  C   UNK N   1      35.823  14.930  11.616  0.00  0.00     0.282 A 
HETATM    9  O   UNK N   1      35.777  15.505  12.690  0.00  0.00    -0.265 OA
HETATM   10  N   UNK N   1      36.358  13.650  11.502  0.00  0.00    -0.260 N 
HETATM   11  C   UNK N   1      36.442  13.042  10.249  0.00  0.00     0.333 A 
HETATM   12  O   UNK N   1      36.938  11.931  10.143  0.00  0.00    -0.246 OA
HETATM   13  H   UNK N   1      34.606  17.435  11.011  0.00  0.00     0.167 HD
ENDROOT
BRANCH   1  14
HETATM   14  C   UNK N   1      33.902  18.023   8.325  0.00  0.00     0.115 C 
BRANCH  14  15
HETATM   15  C   UNK N   1      32.508  17.787   7.794  0.00  0.00    -0.051 A 
HETATM   16  C   UNK N   1      32.279  17.304   6.496  0.00  0.00     0.010 A 
HETATM   17  C   UNK N   1      30.984  17.047   6.052  0.00  0.00     0.030 A 
HETATM   18  C   UNK N   1      29.889  17.273   6.889  0.00  0.00     0.034 A 
HETATM   19  C   UNK N   1      30.115  17.771   8.184  0.00  0.00     0.030 A 
HETATM   20  C   UNK N   1      31.416  18.028   8.632  0.00  0.00     0.010 A 
BRANCH  18  21
HETATM   21  N   UNK N   1      28.589  16.959   6.396  0.00  0.00    -0.328 N 
HETATM   22  C   UNK N   1      27.717  17.784   5.757  0.00  0.00     0.218 C 
HETATM   23  O   UNK N   1      26.626  17.349   5.428  0.00  0.00    -0.274 OA
HETATM   24  C   UNK N   1      28.043  19.206   5.427  0.00  0.00     0.117 C 
HETATM   25  H   UNK N   1      28.287  16.032   6.534  0.00  0.00     0.169 HD
ENDBRANCH  18  21
ENDBRANCH  14  15
ENDBRANCH   1  14
BRANCH   5  26
HETATM   26  C   UNK N   1      36.107  13.123   7.780  0.00  0.00     0.135 C 
BRANCH  26  27
HETATM   27  C   UNK N   1      37.364  13.655   7.107  0.00  0.00     0.020 C 
BRANCH  27  28
HETATM   28  C   UNK N   1      38.442  12.594   7.085  0.00  0.00    -0.003 C 
HETATM   29  C   UNK N   1      37.825  11.266   6.699  0.00  0.00     0.005 C 
ENDBRANCH  27  28
ENDBRANCH  26  27
ENDBRANCH   5  26
BRANCH  10  30
HETATM   30  C   UNK N   1      36.920  12.946  12.665  0.00  0.00     0.178 C 
BRANCH  30  31
HETATM   31  C   UNK N   1      35.989  12.012  13.400  0.00  0.00    -0.001 A 
HETATM   32  C   UNK N   1      34.884  12.476  14.133  0.00  0.00     0.012 A 
HETATM   33  C   UNK N   1      34.077  11.580  14.841  0.00  0.00     0.001 A 
HETATM   34  C   UNK N   1      34.363  10.212  14.816  0.00  0.00     0.003 A 
HETATM   35  C   UNK N   1      35.448   9.740  14.075  0.00  0.00     0.043 A 
HETATM   36  C   UNK N   1      36.260  10.634  13.370  0.00  0.00     0.124 A 
HETATM   37  F   UNK N   1      37.312  10.156  12.659  0.00  0.00    -0.205 F 
ENDBRANCH  30  31
ENDBRANCH  10  30
TORSDOF 8
ENDMDL
MODEL 9
REMARK VINA RESULT:      -7.3      6.380     11.388
REMARK  8 active torsions:
REMARK  status: ('A' for Active; 'I' for Inactive)
REMARK       I    between atoms: C_2  and  N_4 
REMARK    1  A    between atoms: N_4  and  C_5 
REMARK    2  A    between atoms: C_10  and  C_11 
REMARK    3  A    between atoms: C_11  and  C_12 
REMARK    4  A    between atoms: N_16  and  C_17 
REMARK    5  A    between atoms: C_17  and  C_18 
REMARK    6  A    between atoms: C_18  and  C_19 
REMARK    7  A    between atoms: N_25  and  C_28 
REMARK    8  A    between atoms: C_28  and  C_29 
ROOT
HETATM    1  C   UNK N   1      36.086  14.534  12.829  0.00  0.00     0.087 A 
HETATM    2  N   UNK N   1      35.623  13.554  12.008  0.00  0.00    -0.330 N 
ATOM      3  HN  UNK N   1      35.552  12.555  12.199  1.00  0.00     0.168 HD
HETATM    4  C   UNK N   1      35.284  14.209  10.893  0.00  0.00     0.145 A 
HETATM    5  N   UNK N   1      34.732  13.681   9.775  0.00  0.00    -0.283 N 
HETATM    6  C   UNK N   1      35.543  15.524  11.029  0.00  0.00     0.147 A 
HETATM    7  N   UNK N   1      36.054  15.763  12.250  0.00  0.00    -0.338 N 
HETATM    8  C   UNK N   1      35.261  16.409  10.003  0.00  0.00     0.282 A 
HETATM    9  O   UNK N   1      35.467  17.604  10.144  0.00  0.00    -0.265 OA
HETATM   10  N   UNK N   1      34.731  15.900   8.822  0.00  0.00    -0.260 N 
HETATM   11  C   UNK N   1      34.462  14.536   8.713  0.00  0.00     0.333 A 
HETATM   12  O   UNK N   1      33.969  14.091   7.687  0.00  0.00    -0.246 OA
HETATM   13  H   UNK N   1      36.338  16.624  12.633  0.00  0.00     0.167 HD
ENDROOT
BRANCH   1  14
HETATM   14  C   UNK N   1      36.609  14.283  14.217  0.00  0.00     0.115 C 
BRANCH  14  15
HETATM   15  C   UNK N   1      36.230  12.952  14.821  0.00  0.00    -0.051 A 
HETATM   16  C   UNK N   1      37.110  11.859  14.822  0.00  0.00     0.010 A 
HETATM   17  C   UNK N   1      36.753  10.659  15.434  0.00  0.00     0.030 A 
HETATM   18  C   UNK N   1      35.508  10.521  16.050  0.00  0.00     0.034 A 
HETATM   19  C   UNK N   1      34.618  11.609  16.037  0.00  0.00     0.030 A 
HETATM   20  C   UNK N   1      34.977  12.815  15.424  0.00  0.00     0.010 A 
BRANCH  18  21
HETATM   21  N   UNK N   1      35.209   9.283  16.691  0.00  0.00    -0.328 N 
HETATM   22  C   UNK N   1      35.439   8.938  17.987  0.00  0.00     0.218 C 
HETATM   23  O   UNK N   1      35.143   7.814  18.359  0.00  0.00    -0.274 OA
HETATM   24  C   UNK N   1      36.030   9.883  18.983  0.00  0.00     0.117 C 
HETATM   25  H   UNK N   1      34.785   8.596  16.128  0.00  0.00     0.169 HD
ENDBRANCH  18  21
ENDBRANCH  14  15
ENDBRANCH   1  14
BRANCH   5  26
HETATM   26  C   UNK N   1      34.408  12.256   9.720  0.00  0.00     0.135 C 
BRANCH  26  27
HETATM   27  C   UNK N   1      35.621  11.472   9.240  0.00  0.00     0.020 C 
BRANCH  27  28
HETATM   28  C   UNK N   1      35.333  10.813   7.909  0.00  0.00    -0.003 C 
HETATM   29  C   UNK N   1      36.201  11.448   6.843  0.00  0.00     0.005 C 
ENDBRANCH  27  28
ENDBRANCH  26  27
ENDBRANCH   5  26
BRANCH  10  30
HETATM   30  C   UNK N   1      34.365  16.781   7.701  0.00  0.00     0.178 C 
BRANCH  30  31
HETATM   31  C   UNK N   1      32.894  17.073   7.527  0.00  0.00    -0.001 A 
HETATM   32  C   UNK N   1      32.090  17.534   8.581  0.00  0.00     0.012 A 
HETATM   33  C   UNK N   1      30.721  17.744   8.389  0.00  0.00     0.001 A 
HETATM   34  C   UNK N   1      30.146  17.501   7.138  0.00  0.00     0.003 A 
HETATM   35  C   UNK N   1      30.941  17.059   6.079  0.00  0.00     0.043 A 
HETATM   36  C   UNK N   1      32.310  16.845   6.270  0.00  0.00     0.124 A 
HETATM   37  F   UNK N   1      33.065  16.412   5.230  0.00  0.00    -0.205 F 
ENDBRANCH  30  31
ENDBRANCH  10  30
TORSDOF 8
ENDMDL
