MODEL 1
REMARK VINA RESULT:      -4.9      0.000      0.000
REMARK  14 active torsions:
REMARK  status: ('A' for Active; 'I' for Inactive)
REMARK    1  A    between atoms: C_1  and  C_2 
REMARK    2  A    between atoms: C_1  and  O_17 
REMARK    3  A    between atoms: C_2  and  C_3 
REMARK    4  A    between atoms: C_3  and  C_4 
REMARK    5  A    between atoms: C_3  and  O_16 
REMARK    6  A    between atoms: C_4  and  C_5 
REMARK    7  A    between atoms: C_5  and  C_6 
REMARK    8  A    between atoms: C_6  and  C_7 
REMARK    9  A    between atoms: C_7  and  C_8 
REMARK   10  A    between atoms: C_8  and  C_9 
REMARK   11  A    between atoms: C_9  and  C_10 
REMARK   12  A    between atoms: C_10  and  C_11 
REMARK   13  A    between atoms: C_11  and  C_12 
REMARK   14  A    between atoms: C_12  and  C_13 
ROOT
HETATM    1  C   UNK N   1      28.382  24.084  -4.317  0.00  0.00     0.002 C 
ENDROOT
BRANCH   1   2
HETATM    2  C   UNK N   1      29.619  24.050  -3.424  0.00  0.00     0.032 C 
BRANCH   2   3
HETATM    3  C   UNK N   1      29.700  22.803  -2.545  0.00  0.00     0.128 C 
BRANCH   3   4
HETATM    4  C   UNK N   1      30.450  21.726  -3.330  0.00  0.00     0.141 C 
BRANCH   4   5
HETATM    5  C   UNK N   1      31.938  21.781  -3.146  0.00  0.00     0.141 C 
HETATM    6  O   UNK N   1      32.632  22.345  -3.974  0.00  0.00    -0.650 OA
BRANCH   5   7
HETATM    7  O   UNK N   1      32.504  21.254  -2.044  0.00  0.00    -0.776 OA
HETATM    8  H   UNK N   1      32.697  20.338  -2.008  0.00  0.00     0.167 HD
ENDBRANCH   5   7
ENDBRANCH   4   5
ENDBRANCH   3   4
BRANCH   3   9
HETATM    9  O   UNK N   1      30.392  23.100  -1.368  0.00  0.00    -0.395 OA
HETATM   10  H   UNK N   1      31.154  23.700  -1.391  0.00  0.00     0.210 HD
ENDBRANCH   3   9
ENDBRANCH   2   3
ENDBRANCH   1   2
BRANCH   1  11
HETATM   11  C   UNK N   1      27.109  24.308  -3.525  0.00  0.00     0.000 C 
BRANCH  11  12
HETATM   12  C   UNK N   1      25.917  24.228  -4.464  0.00  0.00     0.000 C 
BRANCH  12  13
HETATM   13  C   UNK N   1      26.110  25.135  -5.665  0.00  0.00     0.000 C 
BRANCH  13  14
HETATM   14  C   UNK N   1      25.117  26.280  -5.588  0.00  0.00     0.000 C 
BRANCH  14  15
HETATM   15  C   UNK N   1      25.830  27.573  -5.248  0.00  0.00     0.000 C 
BRANCH  15  16
HETATM   16  C   UNK N   1      25.645  27.877  -3.774  0.00  0.00     0.000 C 
BRANCH  16  17
HETATM   17  C   UNK N   1      26.989  28.155  -3.133  0.00  0.00    -0.000 C 
BRANCH  17  18
HETATM   18  C   UNK N   1      28.095  27.833  -4.117  0.00  0.00    -0.005 C 
HETATM   19  C   UNK N   1      29.436  28.190  -3.511  0.00  0.00     0.005 C 
ENDBRANCH  17  18
ENDBRANCH  16  17
ENDBRANCH  15  16
ENDBRANCH  14  15
ENDBRANCH  13  14
ENDBRANCH  12  13
ENDBRANCH  11  12
ENDBRANCH   1  11
TORSDOF 14
ENDMDL
MODEL 2
REMARK VINA RESULT:      -4.5     17.236     20.843
REMARK  14 active torsions:
REMARK  status: ('A' for Active; 'I' for Inactive)
REMARK    1  A    between atoms: C_1  and  C_2 
REMARK    2  A    between atoms: C_1  and  O_17 
REMARK    3  A    between atoms: C_2  and  C_3 
REMARK    4  A    between atoms: C_3  and  C_4 
REMARK    5  A    between atoms: C_3  and  O_16 
REMARK    6  A    between atoms: C_4  and  C_5 
REMARK    7  A    between atoms: C_5  and  C_6 
REMARK    8  A    between atoms: C_6  and  C_7 
REMARK    9  A    between atoms: C_7  and  C_8 
REMARK   10  A    between atoms: C_8  and  C_9 
REMARK   11  A    between atoms: C_9  and  C_10 
REMARK   12  A    between atoms: C_10  and  C_11 
REMARK   13  A    between atoms: C_11  and  C_12 
REMARK   14  A    between atoms: C_12  and  C_13 
ROOT
HETATM    1  C   UNK N   1      34.626  14.305  11.435  0.00  0.00     0.002 C 
ENDROOT
BRANCH   1   2
HETATM    2  C   UNK N   1      34.221  15.074  10.180  0.00  0.00     0.032 C 
BRANCH   2   3
HETATM    3  C   UNK N   1      35.169  16.223   9.838  0.00  0.00     0.128 C 
BRANCH   3   4
HETATM    4  C   UNK N   1      34.845  16.687   8.418  0.00  0.00     0.141 C 
BRANCH   4   5
HETATM    5  C   UNK N   1      34.413  18.122   8.344  0.00  0.00     0.141 C 
HETATM    6  O   UNK N   1      33.229  18.395   8.241  0.00  0.00    -0.650 OA
BRANCH   5   7
HETATM    7  O   UNK N   1      35.322  19.110   8.441  0.00  0.00    -0.776 OA
HETATM    8  H   UNK N   1      36.093  18.988   8.959  0.00  0.00     0.167 HD
ENDBRANCH   5   7
ENDBRANCH   4   5
ENDBRANCH   3   4
BRANCH   3   9
HETATM    9  O   UNK N   1      34.978  17.275  10.737  0.00  0.00    -0.395 OA
HETATM   10  H   UNK N   1      34.399  18.017  10.501  0.00  0.00     0.210 HD
ENDBRANCH   3   9
ENDBRANCH   2   3
ENDBRANCH   1   2
BRANCH   1  11
HETATM   11  C   UNK N   1      35.763  13.337  11.172  0.00  0.00     0.000 C 
BRANCH  11  12
HETATM   12  C   UNK N   1      36.711  13.348  12.359  0.00  0.00     0.000 C 
BRANCH  12  13
HETATM   13  C   UNK N   1      36.315  14.417  13.361  0.00  0.00     0.000 C 
BRANCH  13  14
HETATM   14  C   UNK N   1      36.393  13.839  14.762  0.00  0.00     0.000 C 
BRANCH  14  15
HETATM   15  C   UNK N   1      35.136  13.051  15.076  0.00  0.00     0.000 C 
BRANCH  15  16
HETATM   16  C   UNK N   1      35.470  11.941  16.053  0.00  0.00     0.000 C 
BRANCH  16  17
HETATM   17  C   UNK N   1      34.827  10.645  15.600  0.00  0.00    -0.000 C 
BRANCH  17  18
HETATM   18  C   UNK N   1      33.680  10.953  14.660  0.00  0.00    -0.005 C 
HETATM   19  C   UNK N   1      34.004  10.432  13.275  0.00  0.00     0.005 C 
ENDBRANCH  17  18
ENDBRANCH  16  17
ENDBRANCH  15  16
ENDBRANCH  14  15
ENDBRANCH  13  14
ENDBRANCH  12  13
ENDBRANCH  11  12
ENDBRANCH   1  11
TORSDOF 14
ENDMDL
MODEL 3
REMARK VINA RESULT:      -4.5      1.081      2.661
REMARK  14 active torsions:
REMARK  status: ('A' for Active; 'I' for Inactive)
REMARK    1  A    between atoms: C_1  and  C_2 
REMARK    2  A    between atoms: C_1  and  O_17 
REMARK    3  A    between atoms: C_2  and  C_3 
REMARK    4  A    between atoms: C_3  and  C_4 
REMARK    5  A    between atoms: C_3  and  O_16 
REMARK    6  A    between atoms: C_4  and  C_5 
REMARK    7  A    between atoms: C_5  and  C_6 
REMARK    8  A    between atoms: C_6  and  C_7 
REMARK    9  A    between atoms: C_7  and  C_8 
REMARK   10  A    between atoms: C_8  and  C_9 
REMARK   11  A    between atoms: C_9  and  C_10 
REMARK   12  A    between atoms: C_10  and  C_11 
REMARK   13  A    between atoms: C_11  and  C_12 
REMARK   14  A    between atoms: C_12  and  C_13 
ROOT
HETATM    1  C   UNK N   1      29.873  24.707  -4.555  0.00  0.00     0.002 C 
ENDROOT
BRANCH   1   2
HETATM    2  C   UNK N   1      30.772  24.153  -3.453  0.00  0.00     0.032 C 
BRANCH   2   3
HETATM    3  C   UNK N   1      30.170  22.955  -2.721  0.00  0.00     0.128 C 
BRANCH   3   4
HETATM    4  C   UNK N   1      30.697  21.686  -3.393  0.00  0.00     0.141 C 
BRANCH   4   5
HETATM    5  C   UNK N   1      32.169  21.476  -3.199  0.00  0.00     0.141 C 
HETATM    6  O   UNK N   1      32.925  21.556  -4.152  0.00  0.00    -0.650 OA
BRANCH   5   7
HETATM    7  O   UNK N   1      32.666  21.250  -1.968  0.00  0.00    -0.776 OA
HETATM    8  H   UNK N   1      33.363  20.634  -1.849  0.00  0.00     0.167 HD
ENDBRANCH   5   7
ENDBRANCH   4   5
ENDBRANCH   3   4
BRANCH   3   9
HETATM    9  O   UNK N   1      30.558  22.978  -1.380  0.00  0.00    -0.395 OA
HETATM   10  H   UNK N   1      31.495  23.076  -1.146  0.00  0.00     0.210 HD
ENDBRANCH   3   9
ENDBRANCH   2   3
ENDBRANCH   1   2
BRANCH   1  11
HETATM   11  C   UNK N   1      28.937  25.785  -4.043  0.00  0.00     0.000 C 
BRANCH  11  12
HETATM   12  C   UNK N   1      29.071  27.018  -4.920  0.00  0.00     0.000 C 
BRANCH  12  13
HETATM   13  C   UNK N   1      28.326  28.196  -4.318  0.00  0.00     0.000 C 
BRANCH  13  14
HETATM   14  C   UNK N   1      27.175  28.575  -5.232  0.00  0.00     0.000 C 
BRANCH  14  15
HETATM   15  C   UNK N   1      25.853  28.399  -4.513  0.00  0.00     0.000 C 
BRANCH  15  16
HETATM   16  C   UNK N   1      25.267  27.045  -4.862  0.00  0.00     0.000 C 
BRANCH  16  17
HETATM   17  C   UNK N   1      25.489  26.752  -6.332  0.00  0.00    -0.000 C 
BRANCH  17  18
HETATM   18  C   UNK N   1      25.871  25.296  -6.505  0.00  0.00    -0.005 C 
HETATM   19  C   UNK N   1      25.610  24.546  -5.216  0.00  0.00     0.005 C 
ENDBRANCH  17  18
ENDBRANCH  16  17
ENDBRANCH  15  16
ENDBRANCH  14  15
ENDBRANCH  13  14
ENDBRANCH  12  13
ENDBRANCH  11  12
ENDBRANCH   1  11
TORSDOF 14
ENDMDL
MODEL 4
REMARK VINA RESULT:      -4.5     12.057     14.331
REMARK  14 active torsions:
REMARK  status: ('A' for Active; 'I' for Inactive)
REMARK    1  A    between atoms: C_1  and  C_2 
REMARK    2  A    between atoms: C_1  and  O_17 
REMARK    3  A    between atoms: C_2  and  C_3 
REMARK    4  A    between atoms: C_3  and  C_4 
REMARK    5  A    between atoms: C_3  and  O_16 
REMARK    6  A    between atoms: C_4  and  C_5 
REMARK    7  A    between atoms: C_5  and  C_6 
REMARK    8  A    between atoms: C_6  and  C_7 
REMARK    9  A    between atoms: C_7  and  C_8 
REMARK   10  A    between atoms: C_8  and  C_9 
REMARK   11  A    between atoms: C_9  and  C_10 
REMARK   12  A    between atoms: C_10  and  C_11 
REMARK   13  A    between atoms: C_11  and  C_12 
REMARK   14  A    between atoms: C_12  and  C_13 
ROOT
HETATM    1  C   UNK N   1      33.705  16.500   6.310  0.00  0.00     0.002 C 
ENDROOT
BRANCH   1   2
HETATM    2  C   UNK N   1      33.734  17.940   6.817  0.00  0.00     0.032 C 
BRANCH   2   3
HETATM    3  C   UNK N   1      34.178  18.063   8.274  0.00  0.00     0.128 C 
BRANCH   3   4
HETATM    4  C   UNK N   1      34.693  16.695   8.722  0.00  0.00     0.141 C 
BRANCH   4   5
HETATM    5  C   UNK N   1      35.042  16.637  10.180  0.00  0.00     0.141 C 
HETATM    6  O   UNK N   1      35.952  17.322  10.614  0.00  0.00    -0.650 OA
BRANCH   5   7
HETATM    7  O   UNK N   1      34.320  15.870  11.020  0.00  0.00    -0.776 OA
HETATM    8  H   UNK N   1      33.682  16.263  11.582  0.00  0.00     0.167 HD
ENDBRANCH   5   7
ENDBRANCH   4   5
ENDBRANCH   3   4
BRANCH   3   9
HETATM    9  O   UNK N   1      35.198  19.012   8.377  0.00  0.00    -0.395 OA
HETATM   10  H   UNK N   1      35.829  19.128   7.650  0.00  0.00     0.210 HD
ENDBRANCH   3   9
ENDBRANCH   2   3
ENDBRANCH   1   2
BRANCH   1  11
HETATM   11  C   UNK N   1      33.083  16.391   4.932  0.00  0.00     0.000 C 
BRANCH  11  12
HETATM   12  C   UNK N   1      31.997  17.444   4.790  0.00  0.00     0.000 C 
BRANCH  12  13
HETATM   13  C   UNK N   1      30.618  16.813   4.845  0.00  0.00     0.000 C 
BRANCH  13  14
HETATM   14  C   UNK N   1      29.572  17.911   4.902  0.00  0.00     0.000 C 
BRANCH  14  15
HETATM   15  C   UNK N   1      28.399  17.475   5.758  0.00  0.00     0.000 C 
BRANCH  15  16
HETATM   16  C   UNK N   1      28.896  17.103   7.141  0.00  0.00     0.000 C 
BRANCH  16  17
HETATM   17  C   UNK N   1      29.098  18.356   7.970  0.00  0.00    -0.000 C 
BRANCH  17  18
HETATM   18  C   UNK N   1      30.352  18.211   8.806  0.00  0.00    -0.005 C 
HETATM   19  C   UNK N   1      30.839  16.778   8.749  0.00  0.00     0.005 C 
ENDBRANCH  17  18
ENDBRANCH  16  17
ENDBRANCH  15  16
ENDBRANCH  14  15
ENDBRANCH  13  14
ENDBRANCH  12  13
ENDBRANCH  11  12
ENDBRANCH   1  11
TORSDOF 14
ENDMDL
MODEL 5
REMARK VINA RESULT:      -4.5     19.199     22.732
REMARK  14 active torsions:
REMARK  status: ('A' for Active; 'I' for Inactive)
REMARK    1  A    between atoms: C_1  and  C_2 
REMARK    2  A    between atoms: C_1  and  O_17 
REMARK    3  A    between atoms: C_2  and  C_3 
REMARK    4  A    between atoms: C_3  and  C_4 
REMARK    5  A    between atoms: C_3  and  O_16 
REMARK    6  A    between atoms: C_4  and  C_5 
REMARK    7  A    between atoms: C_5  and  C_6 
REMARK    8  A    between atoms: C_6  and  C_7 
REMARK    9  A    between atoms: C_7  and  C_8 
REMARK   10  A    between atoms: C_8  and  C_9 
REMARK   11  A    between atoms: C_9  and  C_10 
REMARK   12  A    between atoms: C_10  and  C_11 
REMARK   13  A    between atoms: C_11  and  C_12 
REMARK   14  A    between atoms: C_12  and  C_13 
ROOT
HETATM    1  C   UNK N   1      36.900  13.158  13.839  0.00  0.00     0.002 C 
ENDROOT
BRANCH   1   2
HETATM    2  C   UNK N   1      35.628  13.804  13.297  0.00  0.00     0.032 C 
BRANCH   2   3
HETATM    3  C   UNK N   1      35.674  14.071  11.793  0.00  0.00     0.128 C 
BRANCH   3   4
HETATM    4  C   UNK N   1      34.862  15.337  11.520  0.00  0.00     0.141 C 
BRANCH   4   5
HETATM    5  C   UNK N   1      35.342  16.107  10.325  0.00  0.00     0.141 C 
HETATM    6  O   UNK N   1      35.684  17.270  10.450  0.00  0.00    -0.650 OA
BRANCH   5   7
HETATM    7  O   UNK N   1      35.446  15.503   9.126  0.00  0.00    -0.776 OA
HETATM    8  H   UNK N   1      34.877  14.791   8.908  0.00  0.00     0.167 HD
ENDBRANCH   5   7
ENDBRANCH   4   5
ENDBRANCH   3   4
BRANCH   3   9
HETATM    9  O   UNK N   1      36.998  14.259  11.389  0.00  0.00    -0.395 OA
HETATM   10  H   UNK N   1      37.673  13.599  11.611  0.00  0.00     0.210 HD
ENDBRANCH   3   9
ENDBRANCH   2   3
ENDBRANCH   1   2
BRANCH   1  11
HETATM   11  C   UNK N   1      36.885  13.042  15.351  0.00  0.00     0.000 C 
BRANCH  11  12
HETATM   12  C   UNK N   1      35.534  13.501  15.872  0.00  0.00     0.000 C 
BRANCH  12  13
HETATM   13  C   UNK N   1      35.064  12.620  17.015  0.00  0.00     0.000 C 
BRANCH  13  14
HETATM   14  C   UNK N   1      35.759  11.273  16.921  0.00  0.00     0.000 C 
BRANCH  14  15
HETATM   15  C   UNK N   1      34.759  10.189  16.570  0.00  0.00     0.000 C 
BRANCH  15  16
HETATM   16  C   UNK N   1      34.850   9.882  15.088  0.00  0.00     0.000 C 
BRANCH  16  17
HETATM   17  C   UNK N   1      33.765  10.631  14.340  0.00  0.00    -0.000 C 
BRANCH  17  18
HETATM   18  C   UNK N   1      33.931  10.407  12.851  0.00  0.00    -0.005 C 
HETATM   19  C   UNK N   1      35.373  10.055  12.548  0.00  0.00     0.005 C 
ENDBRANCH  17  18
ENDBRANCH  16  17
ENDBRANCH  15  16
ENDBRANCH  14  15
ENDBRANCH  13  14
ENDBRANCH  12  13
ENDBRANCH  11  12
ENDBRANCH   1  11
TORSDOF 14
ENDMDL
MODEL 6
REMARK VINA RESULT:      -4.4      1.304      2.866
REMARK  14 active torsions:
REMARK  status: ('A' for Active; 'I' for Inactive)
REMARK    1  A    between atoms: C_1  and  C_2 
REMARK    2  A    between atoms: C_1  and  O_17 
REMARK    3  A    between atoms: C_2  and  C_3 
REMARK    4  A    between atoms: C_3  and  C_4 
REMARK    5  A    between atoms: C_3  and  O_16 
REMARK    6  A    between atoms: C_4  and  C_5 
REMARK    7  A    between atoms: C_5  and  C_6 
REMARK    8  A    between atoms: C_6  and  C_7 
REMARK    9  A    between atoms: C_7  and  C_8 
REMARK   10  A    between atoms: C_8  and  C_9 
REMARK   11  A    between atoms: C_9  and  C_10 
REMARK   12  A    between atoms: C_10  and  C_11 
REMARK   13  A    between atoms: C_11  and  C_12 
REMARK   14  A    between atoms: C_12  and  C_13 
ROOT
HETATM    1  C   UNK N   1      28.279  23.926  -4.334  0.00  0.00     0.002 C 
ENDROOT
BRANCH   1   2
HETATM    2  C   UNK N   1      29.424  24.029  -3.331  0.00  0.00     0.032 C 
BRANCH   2   3
HETATM    3  C   UNK N   1      29.608  22.769  -2.486  0.00  0.00     0.128 C 
BRANCH   3   4
HETATM    4  C   UNK N   1      30.416  21.768  -3.311  0.00  0.00     0.141 C 
BRANCH   4   5
HETATM    5  C   UNK N   1      31.900  21.937  -3.168  0.00  0.00     0.141 C 
HETATM    6  O   UNK N   1      32.469  21.503  -2.181  0.00  0.00    -0.650 OA
BRANCH   5   7
HETATM    7  O   UNK N   1      32.614  22.521  -4.149  0.00  0.00    -0.776 OA
HETATM    8  H   UNK N   1      32.503  23.434  -4.329  0.00  0.00     0.167 HD
ENDBRANCH   5   7
ENDBRANCH   4   5
ENDBRANCH   3   4
BRANCH   3   9
HETATM    9  O   UNK N   1      30.298  23.085  -1.313  0.00  0.00    -0.395 OA
HETATM   10  H   UNK N   1      30.266  22.483  -0.553  0.00  0.00     0.210 HD
ENDBRANCH   3   9
ENDBRANCH   2   3
ENDBRANCH   1   2
BRANCH   1  11
HETATM   11  C   UNK N   1      27.045  24.678  -3.875  0.00  0.00     0.000 C 
BRANCH  11  12
HETATM   12  C   UNK N   1      27.351  26.166  -3.846  0.00  0.00     0.000 C 
BRANCH  12  13
HETATM   13  C   UNK N   1      26.072  26.982  -3.808  0.00  0.00     0.000 C 
BRANCH  13  14
HETATM   14  C   UNK N   1      25.667  27.337  -5.227  0.00  0.00     0.000 C 
BRANCH  14  15
HETATM   15  C   UNK N   1      26.868  27.832  -6.008  0.00  0.00     0.000 C 
BRANCH  15  16
HETATM   16  C   UNK N   1      26.963  27.075  -7.319  0.00  0.00     0.000 C 
BRANCH  16  17
HETATM   17  C   UNK N   1      25.661  26.347  -7.587  0.00  0.00    -0.000 C 
BRANCH  17  18
HETATM   18  C   UNK N   1      25.940  25.093  -8.389  0.00  0.00    -0.005 C 
HETATM   19  C   UNK N   1      26.372  23.979  -7.457  0.00  0.00     0.005 C 
ENDBRANCH  17  18
ENDBRANCH  16  17
ENDBRANCH  15  16
ENDBRANCH  14  15
ENDBRANCH  13  14
ENDBRANCH  12  13
ENDBRANCH  11  12
ENDBRANCH   1  11
TORSDOF 14
ENDMDL
MODEL 7
REMARK VINA RESULT:      -4.4      1.385      2.021
REMARK  14 active torsions:
REMARK  status: ('A' for Active; 'I' for Inactive)
REMARK    1  A    between atoms: C_1  and  C_2 
REMARK    2  A    between atoms: C_1  and  O_17 
REMARK    3  A    between atoms: C_2  and  C_3 
REMARK    4  A    between atoms: C_3  and  C_4 
REMARK    5  A    between atoms: C_3  and  O_16 
REMARK    6  A    between atoms: C_4  and  C_5 
REMARK    7  A    between atoms: C_5  and  C_6 
REMARK    8  A    between atoms: C_6  and  C_7 
REMARK    9  A    between atoms: C_7  and  C_8 
REMARK   10  A    between atoms: C_8  and  C_9 
REMARK   11  A    between atoms: C_9  and  C_10 
REMARK   12  A    between atoms: C_10  and  C_11 
REMARK   13  A    between atoms: C_11  and  C_12 
REMARK   14  A    between atoms: C_12  and  C_13 
ROOT
HETATM    1  C   UNK N   1      30.086  24.669  -3.468  0.00  0.00     0.002 C 
ENDROOT
BRANCH   1   2
HETATM    2  C   UNK N   1      30.466  23.258  -3.907  0.00  0.00     0.032 C 
BRANCH   2   3
HETATM    3  C   UNK N   1      30.700  22.300  -2.740  0.00  0.00     0.128 C 
BRANCH   3   4
HETATM    4  C   UNK N   1      32.120  21.749  -2.867  0.00  0.00     0.141 C 
BRANCH   4   5
HETATM    5  C   UNK N   1      32.311  20.862  -4.062  0.00  0.00     0.141 C 
HETATM    6  O   UNK N   1      33.141  21.151  -4.906  0.00  0.00    -0.650 OA
BRANCH   5   7
HETATM    7  O   UNK N   1      31.606  19.721  -4.179  0.00  0.00    -0.776 OA
HETATM    8  H   UNK N   1      31.810  18.985  -3.636  0.00  0.00     0.167 HD
ENDBRANCH   5   7
ENDBRANCH   4   5
ENDBRANCH   3   4
BRANCH   3   9
HETATM    9  O   UNK N   1      30.563  22.987  -1.531  0.00  0.00    -0.395 OA
HETATM   10  H   UNK N   1      30.204  22.534  -0.752  0.00  0.00     0.210 HD
ENDBRANCH   3   9
ENDBRANCH   2   3
ENDBRANCH   1   2
BRANCH   1  11
HETATM   11  C   UNK N   1      28.873  25.194  -4.211  0.00  0.00     0.000 C 
BRANCH  11  12
HETATM   12  C   UNK N   1      27.684  24.293  -3.922  0.00  0.00     0.000 C 
BRANCH  12  13
HETATM   13  C   UNK N   1      26.964  23.915  -5.204  0.00  0.00     0.000 C 
BRANCH  13  14
HETATM   14  C   UNK N   1      25.604  24.588  -5.227  0.00  0.00     0.000 C 
BRANCH  14  15
HETATM   15  C   UNK N   1      25.546  25.619  -6.337  0.00  0.00     0.000 C 
BRANCH  15  16
HETATM   16  C   UNK N   1      24.972  26.912  -5.792  0.00  0.00     0.000 C 
BRANCH  16  17
HETATM   17  C   UNK N   1      26.097  27.847  -5.393  0.00  0.00    -0.000 C 
BRANCH  17  18
HETATM   18  C   UNK N   1      25.795  28.449  -4.036  0.00  0.00    -0.005 C 
HETATM   19  C   UNK N   1      26.130  27.449  -2.950  0.00  0.00     0.005 C 
ENDBRANCH  17  18
ENDBRANCH  16  17
ENDBRANCH  15  16
ENDBRANCH  14  15
ENDBRANCH  13  14
ENDBRANCH  12  13
ENDBRANCH  11  12
ENDBRANCH   1  11
TORSDOF 14
ENDMDL
MODEL 8
REMARK VINA RESULT:      -4.4      9.868     11.949
REMARK  14 active torsions:
REMARK  status: ('A' for Active; 'I' for Inactive)
REMARK    1  A    between atoms: C_1  and  C_2 
REMARK    2  A    between atoms: C_1  and  O_17 
REMARK    3  A    between atoms: C_2  and  C_3 
REMARK    4  A    between atoms: C_3  and  C_4 
REMARK    5  A    between atoms: C_3  and  O_16 
REMARK    6  A    between atoms: C_4  and  C_5 
REMARK    7  A    between atoms: C_5  and  C_6 
REMARK    8  A    between atoms: C_6  and  C_7 
REMARK    9  A    between atoms: C_7  and  C_8 
REMARK   10  A    between atoms: C_8  and  C_9 
REMARK   11  A    between atoms: C_9  and  C_10 
REMARK   12  A    between atoms: C_10  and  C_11 
REMARK   13  A    between atoms: C_11  and  C_12 
REMARK   14  A    between atoms: C_12  and  C_13 
ROOT
HETATM    1  C   UNK N   1      20.624  18.112   4.010  0.00  0.00     0.002 C 
ENDROOT
BRANCH   1   2
HETATM    2  C   UNK N   1      21.216  19.512   4.145  0.00  0.00     0.032 C 
BRANCH   2   3
HETATM    3  C   UNK N   1      21.736  20.083   2.827  0.00  0.00     0.128 C 
BRANCH   3   4
HETATM    4  C   UNK N   1      20.572  20.106   1.836  0.00  0.00     0.141 C 
BRANCH   4   5
HETATM    5  C   UNK N   1      20.711  21.159   0.777  0.00  0.00     0.141 C 
HETATM    6  O   UNK N   1      21.145  20.862  -0.322  0.00  0.00    -0.650 OA
BRANCH   5   7
HETATM    7  O   UNK N   1      20.310  22.422   1.020  0.00  0.00    -0.776 OA
HETATM    8  H   UNK N   1      19.777  22.609   1.767  0.00  0.00     0.167 HD
ENDBRANCH   5   7
ENDBRANCH   4   5
ENDBRANCH   3   4
BRANCH   3   9
HETATM    9  O   UNK N   1      22.213  21.380   3.030  0.00  0.00    -0.395 OA
HETATM   10  H   UNK N   1      22.873  21.552   3.720  0.00  0.00     0.210 HD
ENDBRANCH   3   9
ENDBRANCH   2   3
ENDBRANCH   1   2
BRANCH   1  11
HETATM   11  C   UNK N   1      21.446  17.069   4.741  0.00  0.00     0.000 C 
BRANCH  11  12
HETATM   12  C   UNK N   1      22.599  17.754   5.455  0.00  0.00     0.000 C 
BRANCH  12  13
HETATM   13  C   UNK N   1      23.928  17.147   5.046  0.00  0.00     0.000 C 
BRANCH  13  14
HETATM   14  C   UNK N   1      24.513  17.956   3.903  0.00  0.00     0.000 C 
BRANCH  14  15
HETATM   15  C   UNK N   1      24.985  19.307   4.403  0.00  0.00     0.000 C 
BRANCH  15  16
HETATM   16  C   UNK N   1      26.072  19.832   3.485  0.00  0.00     0.000 C 
BRANCH  16  17
HETATM   17  C   UNK N   1      27.333  20.101   4.281  0.00  0.00    -0.000 C 
BRANCH  17  18
HETATM   18  C   UNK N   1      26.997  20.159   5.756  0.00  0.00    -0.005 C 
HETATM   19  C   UNK N   1      27.259  21.555   6.283  0.00  0.00     0.005 C 
ENDBRANCH  17  18
ENDBRANCH  16  17
ENDBRANCH  15  16
ENDBRANCH  14  15
ENDBRANCH  13  14
ENDBRANCH  12  13
ENDBRANCH  11  12
ENDBRANCH   1  11
TORSDOF 14
ENDMDL
MODEL 9
REMARK VINA RESULT:      -4.3     20.279     23.669
REMARK  14 active torsions:
REMARK  status: ('A' for Active; 'I' for Inactive)
REMARK    1  A    between atoms: C_1  and  C_2 
REMARK    2  A    between atoms: C_1  and  O_17 
REMARK    3  A    between atoms: C_2  and  C_3 
REMARK    4  A    between atoms: C_3  and  C_4 
REMARK    5  A    between atoms: C_3  and  O_16 
REMARK    6  A    between atoms: C_4  and  C_5 
REMARK    7  A    between atoms: C_5  and  C_6 
REMARK    8  A    between atoms: C_6  and  C_7 
REMARK    9  A    between atoms: C_7  and  C_8 
REMARK   10  A    between atoms: C_8  and  C_9 
REMARK   11  A    between atoms: C_9  and  C_10 
REMARK   12  A    between atoms: C_10  and  C_11 
REMARK   13  A    between atoms: C_11  and  C_12 
REMARK   14  A    between atoms: C_12  and  C_13 
ROOT
HETATM    1  C   UNK N   1      36.797  11.133  13.070  0.00  0.00     0.002 C 
ENDROOT
BRANCH   1   2
HETATM    2  C   UNK N   1      36.459  12.156  11.989  0.00  0.00     0.032 C 
BRANCH   2   3
HETATM    3  C   UNK N   1      35.037  12.704  12.094  0.00  0.00     0.128 C 
BRANCH   3   4
HETATM    4  C   UNK N   1      35.123  14.231  12.080  0.00  0.00     0.141 C 
BRANCH   4   5
HETATM    5  C   UNK N   1      34.353  14.862  10.959  0.00  0.00     0.141 C 
HETATM    6  O   UNK N   1      34.923  15.164   9.925  0.00  0.00    -0.650 OA
BRANCH   5   7
HETATM    7  O   UNK N   1      33.023  15.049  11.070  0.00  0.00    -0.776 OA
HETATM    8  H   UNK N   1      32.489  15.080  10.301  0.00  0.00     0.167 HD
ENDBRANCH   5   7
ENDBRANCH   4   5
ENDBRANCH   3   4
BRANCH   3   9
HETATM    9  O   UNK N   1      34.280  12.262  11.006  0.00  0.00    -0.395 OA
HETATM   10  H   UNK N   1      34.705  11.768  10.287  0.00  0.00     0.210 HD
ENDBRANCH   3   9
ENDBRANCH   2   3
ENDBRANCH   1   2
BRANCH   1  11
HETATM   11  C   UNK N   1      36.084  11.422  14.376  0.00  0.00     0.000 C 
BRANCH  11  12
HETATM   12  C   UNK N   1      36.918  12.394  15.194  0.00  0.00     0.000 C 
BRANCH  12  13
HETATM   13  C   UNK N   1      36.076  13.562  15.673  0.00  0.00     0.000 C 
BRANCH  13  14
HETATM   14  C   UNK N   1      35.000  13.047  16.611  0.00  0.00     0.000 C 
BRANCH  14  15
HETATM   15  C   UNK N   1      35.186  13.633  17.997  0.00  0.00     0.000 C 
BRANCH  15  16
HETATM   16  C   UNK N   1      35.332  12.508  19.003  0.00  0.00     0.000 C 
BRANCH  16  17
HETATM   17  C   UNK N   1      35.149  11.172  18.312  0.00  0.00    -0.000 C 
BRANCH  17  18
HETATM   18  C   UNK N   1      36.276  10.240  18.706  0.00  0.00    -0.005 C 
HETATM   19  C   UNK N   1      36.725   9.445  17.498  0.00  0.00     0.005 C 
ENDBRANCH  17  18
ENDBRANCH  16  17
ENDBRANCH  15  16
ENDBRANCH  14  15
ENDBRANCH  13  14
ENDBRANCH  12  13
ENDBRANCH  11  12
ENDBRANCH   1  11
TORSDOF 14
ENDMDL
