REMARK  14 active torsions:
REMARK  status: ('A' for Active; 'I' for Inactive)
REMARK    1  A    between atoms: C_1  and  C_2 
REMARK    2  A    between atoms: C_1  and  O_17 
REMARK    3  A    between atoms: C_2  and  C_3 
REMARK    4  A    between atoms: C_3  and  C_4 
REMARK    5  A    between atoms: C_3  and  O_16 
REMARK    6  A    between atoms: C_4  and  C_5 
REMARK    7  A    between atoms: C_5  and  C_6 
REMARK    8  A    between atoms: C_6  and  C_7 
REMARK    9  A    between atoms: C_7  and  C_8 
REMARK   10  A    between atoms: C_8  and  C_9 
REMARK   11  A    between atoms: C_9  and  C_10 
REMARK   12  A    between atoms: C_10  and  C_11 
REMARK   13  A    between atoms: C_11  and  C_12 
REMARK   14  A    between atoms: C_12  and  C_13 
ROOT
HETATM    1  C   UNK N   1      -2.065   0.102   0.816  0.00  0.00     0.002 C 
ENDROOT
BRANCH   1   2
HETATM    2  C   UNK N   1      -3.438  -0.508   1.084  0.00  0.00     0.032 C 
BRANCH   2   3
HETATM    3  C   UNK N   1      -4.526   0.004   0.141  0.00  0.00     0.128 C 
BRANCH   3   4
HETATM    4  C   UNK N   1      -5.876  -0.449   0.697  0.00  0.00     0.141 C 
BRANCH   4   5
HETATM    5  C   UNK N   1      -7.048   0.100  -0.062  0.00  0.00     0.141 C 
HETATM    6  O   UNK N   1      -7.817  -0.660  -0.625  0.00  0.00    -0.650 OA
BRANCH   5   7
HETATM    7  O   UNK N   1      -7.283   1.426  -0.081  0.00  0.00    -0.776 OA
HETATM    8  H   UNK N   1      -6.566   2.029  -0.094  0.00  0.00     0.167 HD
ENDBRANCH   5   7
ENDBRANCH   4   5
ENDBRANCH   3   4
BRANCH   3   9
HETATM    9  O   UNK N   1      -4.480   1.399   0.082  0.00  0.00    -0.395 OA
HETATM   10  H   UNK N   1      -3.625   1.856   0.042  0.00  0.00     0.210 HD
ENDBRANCH   3   9
ENDBRANCH   2   3
ENDBRANCH   1   2
BRANCH   1  11
HETATM   11  C   UNK N   1      -1.366  -0.553  -0.359  0.00  0.00     0.000 C 
BRANCH  11  12
HETATM   12  C   UNK N   1      -0.069   0.186  -0.642  0.00  0.00     0.000 C 
BRANCH  12  13
HETATM   13  C   UNK N   1       1.121  -0.570  -0.080  0.00  0.00     0.000 C 
BRANCH  13  14
HETATM   14  C   UNK N   1       2.369   0.279  -0.239  0.00  0.00     0.000 C 
BRANCH  14  15
HETATM   15  C   UNK N   1       3.605  -0.538   0.081  0.00  0.00     0.000 C 
BRANCH  15  16
HETATM   16  C   UNK N   1       4.834   0.342  -0.037  0.00  0.00     0.000 C 
BRANCH  16  17
HETATM   17  C   UNK N   1       6.086  -0.501   0.102  0.00  0.00    -0.000 C 
BRANCH  17  18
HETATM   18  C   UNK N   1       7.308   0.385  -0.024  0.00  0.00    -0.005 C 
HETATM   19  C   UNK N   1       8.560  -0.466   0.024  0.00  0.00     0.005 C 
ENDBRANCH  17  18
ENDBRANCH  16  17
ENDBRANCH  15  16
ENDBRANCH  14  15
ENDBRANCH  13  14
ENDBRANCH  12  13
ENDBRANCH  11  12
ENDBRANCH   1  11
TORSDOF 14
