MODEL 1
REMARK VINA RESULT:      -7.1      0.000      0.000
REMARK  10 active torsions:
REMARK  status: ('A' for Active; 'I' for Inactive)
REMARK    1  A    between atoms: O_1  and  N_2 
REMARK       I    between atoms: N_2  and  C_3 
REMARK    2  A    between atoms: C_3  and  C_5 
REMARK    3  A    between atoms: C_5  and  C_6 
REMARK    4  A    between atoms: C_6  and  C_7 
REMARK    5  A    between atoms: C_6  and  C_25 
REMARK       I    between atoms: C_7  and  N_9 
REMARK    6  A    between atoms: C_10  and  N_9 
REMARK    7  A    between atoms: C_10  and  C_11 
REMARK    8  A    between atoms: C_10  and  C_15 
REMARK       I    between atoms: C_11  and  N_13 
REMARK    9  A    between atoms: C_15  and  C_16 
REMARK   10  A    between atoms: C_25  and  C_26 
ROOT
HETATM    1  C   UNK N   1      26.829  24.392  -6.201  0.00  0.00     0.180 C 
ENDROOT
BRANCH   1   2
HETATM    2  N   UNK N   1      26.774  24.280  -4.748  0.00  0.00    -0.347 N 
HETATM    3  C   UNK N   1      27.542  24.101  -3.630  0.00  0.00     0.223 C 
HETATM    4  O   UNK N   1      26.959  24.161  -2.558  0.00  0.00    -0.273 OA
HETATM    5  H   UNK N   1      25.834  24.366  -4.467  0.00  0.00     0.163 HD
BRANCH   3   6
HETATM    6  C   UNK N   1      29.050  23.867  -3.553  0.00  0.00     0.087 C 
BRANCH   6   7
HETATM    7  C   UNK N   1      29.371  22.848  -2.445  0.00  0.00     0.119 C 
BRANCH   7   8
HETATM    8  C   UNK N   1      30.556  21.981  -2.763  0.00  0.00     0.241 C 
HETATM    9  N   UNK N   1      30.437  20.998  -3.682  0.00  0.00    -0.237 N 
HETATM   10  H   UNK N   1      29.570  20.847  -4.123  0.00  0.00     0.197 HD
HETATM   11  O   UNK N   1      31.623  22.175  -2.199  0.00  0.00    -0.271 OA
BRANCH   9  12
HETATM   12  O   UNK N   1      31.485  20.226  -4.003  0.00  0.00    -0.287 OA
HETATM   13  H   UNK N   1      31.785  19.509  -3.423  0.00  0.00     0.244 HD
ENDBRANCH   9  12
ENDBRANCH   7   8
ENDBRANCH   6   7
BRANCH   6  14
HETATM   14  C   UNK N   1      29.941  25.092  -3.418  0.00  0.00     0.018 C 
BRANCH  14  15
HETATM   15  C   UNK N   1      29.611  26.205  -4.416  0.00  0.00    -0.022 C 
HETATM   16  C   UNK N   1      30.260  25.886  -5.745  0.00  0.00     0.009 C 
HETATM   17  C   UNK N   1      30.126  27.549  -3.933  0.00  0.00     0.009 C 
ENDBRANCH  14  15
ENDBRANCH   6  14
ENDBRANCH   3   6
ENDBRANCH   1   2
BRANCH   1  18
HETATM   18  C   UNK N   1      26.422  23.048  -6.747  0.00  0.00     0.240 C 
HETATM   19  O   UNK N   1      27.281  22.244  -7.085  0.00  0.00    -0.271 OA
HETATM   20  N   UNK N   1      25.108  22.722  -6.821  0.00  0.00    -0.364 N 
HETATM   21  C   UNK N   1      24.669  21.430  -7.284  0.00  0.00     0.149 C 
HETATM   22  H   UNK N   1      24.435  23.388  -6.551  0.00  0.00     0.161 HD
ENDBRANCH   1  18
BRANCH   1  23
HETATM   23  C   UNK N   1      26.025  25.506  -6.885  0.00  0.00     0.075 C 
BRANCH  23  24
HETATM   24  C   UNK N   1      26.724  26.851  -6.831  0.00  0.00    -0.028 A 
HETATM   25  C   UNK N   1      27.622  27.368  -7.768  0.00  0.00     0.096 A 
HETATM   26  N   UNK N   1      28.077  28.576  -7.356  0.00  0.00    -0.365 N 
HETATM   27  C   UNK N   1      27.481  28.815  -6.175  0.00  0.00     0.042 A 
HETATM   28  H   UNK N   1      28.715  29.160  -7.826  0.00  0.00     0.165 HD
HETATM   29  C   UNK N   1      27.662  29.932  -5.365  0.00  0.00     0.030 A 
HETATM   30  C   UNK N   1      26.648  27.787  -5.825  0.00  0.00    -0.002 A 
HETATM   31  C   UNK N   1      26.950  29.982  -4.153  0.00  0.00     0.002 A 
HETATM   32  C   UNK N   1      26.087  28.924  -3.788  0.00  0.00     0.001 A 
HETATM   33  C   UNK N   1      25.930  27.805  -4.631  0.00  0.00     0.014 A 
ENDBRANCH  23  24
ENDBRANCH   1  23
TORSDOF 10
ENDMDL
MODEL 2
REMARK VINA RESULT:      -7.1      0.981      1.586
REMARK  10 active torsions:
REMARK  status: ('A' for Active; 'I' for Inactive)
REMARK    1  A    between atoms: O_1  and  N_2 
REMARK       I    between atoms: N_2  and  C_3 
REMARK    2  A    between atoms: C_3  and  C_5 
REMARK    3  A    between atoms: C_5  and  C_6 
REMARK    4  A    between atoms: C_6  and  C_7 
REMARK    5  A    between atoms: C_6  and  C_25 
REMARK       I    between atoms: C_7  and  N_9 
REMARK    6  A    between atoms: C_10  and  N_9 
REMARK    7  A    between atoms: C_10  and  C_11 
REMARK    8  A    between atoms: C_10  and  C_15 
REMARK       I    between atoms: C_11  and  N_13 
REMARK    9  A    between atoms: C_15  and  C_16 
REMARK   10  A    between atoms: C_25  and  C_26 
ROOT
HETATM    1  C   UNK N   1      26.803  24.654  -5.840  0.00  0.00     0.180 C 
ENDROOT
BRANCH   1   2
HETATM    2  N   UNK N   1      26.853  24.355  -4.413  0.00  0.00    -0.347 N 
HETATM    3  C   UNK N   1      27.696  24.011  -3.392  0.00  0.00     0.223 C 
HETATM    4  O   UNK N   1      27.200  23.946  -2.278  0.00  0.00    -0.273 OA
HETATM    5  H   UNK N   1      25.942  24.429  -4.049  0.00  0.00     0.163 HD
BRANCH   3   6
HETATM    6  C   UNK N   1      29.196  23.727  -3.467  0.00  0.00     0.087 C 
BRANCH   6   7
HETATM    7  C   UNK N   1      29.597  22.710  -2.383  0.00  0.00     0.119 C 
BRANCH   7   8
HETATM    8  C   UNK N   1      30.762  21.849  -2.781  0.00  0.00     0.241 C 
HETATM    9  N   UNK N   1      30.595  20.889  -3.716  0.00  0.00    -0.237 N 
HETATM   10  H   UNK N   1      29.706  20.750  -4.117  0.00  0.00     0.197 HD
HETATM   11  O   UNK N   1      31.856  22.028  -2.267  0.00  0.00    -0.271 OA
BRANCH   9  12
HETATM   12  O   UNK N   1      31.623  20.123  -4.107  0.00  0.00    -0.287 OA
HETATM   13  H   UNK N   1      32.519  20.483  -4.197  0.00  0.00     0.244 HD
ENDBRANCH   9  12
ENDBRANCH   7   8
ENDBRANCH   6   7
BRANCH   6  14
HETATM   14  C   UNK N   1      30.135  24.923  -3.441  0.00  0.00     0.018 C 
BRANCH  14  15
HETATM   15  C   UNK N   1      29.705  26.062  -4.368  0.00  0.00    -0.022 C 
HETATM   16  C   UNK N   1      30.554  26.031  -5.619  0.00  0.00     0.009 C 
HETATM   17  C   UNK N   1      29.877  27.414  -3.697  0.00  0.00     0.009 C 
ENDBRANCH  14  15
ENDBRANCH   6  14
ENDBRANCH   3   6
ENDBRANCH   1   2
BRANCH   1  18
HETATM   18  C   UNK N   1      26.465  23.360  -6.534  0.00  0.00     0.240 C 
HETATM   19  O   UNK N   1      27.364  22.634  -6.936  0.00  0.00    -0.271 OA
HETATM   20  N   UNK N   1      25.168  22.988  -6.670  0.00  0.00    -0.364 N 
HETATM   21  C   UNK N   1      24.795  21.736  -7.277  0.00  0.00     0.149 C 
HETATM   22  H   UNK N   1      24.462  23.592  -6.346  0.00  0.00     0.161 HD
ENDBRANCH   1  18
BRANCH   1  23
HETATM   23  C   UNK N   1      25.870  25.773  -6.325  0.00  0.00     0.075 C 
BRANCH  23  24
HETATM   24  C   UNK N   1      26.056  27.065  -5.553  0.00  0.00    -0.028 A 
HETATM   25  C   UNK N   1      25.320  27.494  -4.446  0.00  0.00     0.096 A 
HETATM   26  N   UNK N   1      25.741  28.722  -4.057  0.00  0.00    -0.365 N 
HETATM   27  C   UNK N   1      26.723  29.066  -4.908  0.00  0.00     0.042 A 
HETATM   28  H   UNK N   1      25.398  29.254  -3.304  0.00  0.00     0.165 HD
HETATM   29  C   UNK N   1      27.441  30.257  -4.909  0.00  0.00     0.030 A 
HETATM   30  C   UNK N   1      26.942  28.079  -5.832  0.00  0.00    -0.002 A 
HETATM   31  C   UNK N   1      28.423  30.427  -5.901  0.00  0.00     0.002 A 
HETATM   32  C   UNK N   1      28.656  29.411  -6.856  0.00  0.00     0.001 A 
HETATM   33  C   UNK N   1      27.907  28.218  -6.829  0.00  0.00     0.014 A 
ENDBRANCH  23  24
ENDBRANCH   1  23
TORSDOF 10
ENDMDL
MODEL 3
REMARK VINA RESULT:      -6.8      1.410      2.161
REMARK  10 active torsions:
REMARK  status: ('A' for Active; 'I' for Inactive)
REMARK    1  A    between atoms: O_1  and  N_2 
REMARK       I    between atoms: N_2  and  C_3 
REMARK    2  A    between atoms: C_3  and  C_5 
REMARK    3  A    between atoms: C_5  and  C_6 
REMARK    4  A    between atoms: C_6  and  C_7 
REMARK    5  A    between atoms: C_6  and  C_25 
REMARK       I    between atoms: C_7  and  N_9 
REMARK    6  A    between atoms: C_10  and  N_9 
REMARK    7  A    between atoms: C_10  and  C_11 
REMARK    8  A    between atoms: C_10  and  C_15 
REMARK       I    between atoms: C_11  and  N_13 
REMARK    9  A    between atoms: C_15  and  C_16 
REMARK   10  A    between atoms: C_25  and  C_26 
ROOT
HETATM    1  C   UNK N   1      26.596  24.490  -6.772  0.00  0.00     0.180 C 
ENDROOT
BRANCH   1   2
HETATM    2  N   UNK N   1      26.660  24.351  -5.321  0.00  0.00    -0.347 N 
HETATM    3  C   UNK N   1      27.462  23.941  -4.291  0.00  0.00     0.223 C 
HETATM    4  O   UNK N   1      27.028  24.118  -3.164  0.00  0.00    -0.273 OA
HETATM    5  H   UNK N   1      25.810  24.671  -4.942  0.00  0.00     0.163 HD
BRANCH   3   6
HETATM    6  C   UNK N   1      28.855  23.317  -4.376  0.00  0.00     0.087 C 
BRANCH   6   7
HETATM    7  C   UNK N   1      29.816  24.036  -3.413  0.00  0.00     0.119 C 
BRANCH   7   8
HETATM    8  C   UNK N   1      30.521  23.101  -2.472  0.00  0.00     0.241 C 
HETATM    9  N   UNK N   1      31.541  22.339  -2.926  0.00  0.00    -0.237 N 
HETATM   10  H   UNK N   1      31.801  22.391  -3.875  0.00  0.00     0.197 HD
HETATM   11  O   UNK N   1      30.179  23.041  -1.300  0.00  0.00    -0.271 OA
BRANCH   9  12
HETATM   12  O   UNK N   1      32.203  21.514  -2.103  0.00  0.00    -0.287 OA
HETATM   13  H   UNK N   1      32.708  21.849  -1.346  0.00  0.00     0.244 HD
ENDBRANCH   9  12
ENDBRANCH   7   8
ENDBRANCH   6   7
BRANCH   6  14
HETATM   14  C   UNK N   1      29.482  23.196  -5.757  0.00  0.00     0.018 C 
BRANCH  14  15
HETATM   15  C   UNK N   1      29.265  21.831  -6.413  0.00  0.00    -0.022 C 
HETATM   16  C   UNK N   1      30.303  20.861  -5.894  0.00  0.00     0.009 C 
HETATM   17  C   UNK N   1      29.394  21.919  -7.924  0.00  0.00     0.009 C 
ENDBRANCH  14  15
ENDBRANCH   6  14
ENDBRANCH   3   6
ENDBRANCH   1   2
BRANCH   1  18
HETATM   18  C   UNK N   1      25.915  23.248  -7.288  0.00  0.00     0.240 C 
HETATM   19  O   UNK N   1      26.116  22.879  -8.437  0.00  0.00    -0.271 OA
HETATM   20  N   UNK N   1      25.119  22.525  -6.463  0.00  0.00    -0.364 N 
HETATM   21  C   UNK N   1      24.489  21.302  -6.892  0.00  0.00     0.149 C 
HETATM   22  H   UNK N   1      24.966  22.846  -5.545  0.00  0.00     0.161 HD
ENDBRANCH   1  18
BRANCH   1  23
HETATM   23  C   UNK N   1      25.932  25.741  -7.363  0.00  0.00     0.075 C 
BRANCH  23  24
HETATM   24  C   UNK N   1      26.715  27.008  -7.079  0.00  0.00    -0.028 A 
HETATM   25  C   UNK N   1      27.743  27.550  -7.855  0.00  0.00     0.096 A 
HETATM   26  N   UNK N   1      28.237  28.663  -7.258  0.00  0.00    -0.365 N 
HETATM   27  C   UNK N   1      27.536  28.817  -6.121  0.00  0.00     0.042 A 
HETATM   28  H   UNK N   1      28.961  29.240  -7.589  0.00  0.00     0.165 HD
HETATM   29  C   UNK N   1      27.708  29.817  -5.169  0.00  0.00     0.030 A 
HETATM   30  C   UNK N   1      26.599  27.829  -5.981  0.00  0.00    -0.002 A 
HETATM   31  C   UNK N   1      26.876  29.791  -4.036  0.00  0.00     0.002 A 
HETATM   32  C   UNK N   1      25.906  28.773  -3.887  0.00  0.00     0.001 A 
HETATM   33  C   UNK N   1      25.760  27.773  -4.869  0.00  0.00     0.014 A 
ENDBRANCH  23  24
ENDBRANCH   1  23
TORSDOF 10
ENDMDL
MODEL 4
REMARK VINA RESULT:      -6.7     12.935     15.402
REMARK  10 active torsions:
REMARK  status: ('A' for Active; 'I' for Inactive)
REMARK    1  A    between atoms: O_1  and  N_2 
REMARK       I    between atoms: N_2  and  C_3 
REMARK    2  A    between atoms: C_3  and  C_5 
REMARK    3  A    between atoms: C_5  and  C_6 
REMARK    4  A    between atoms: C_6  and  C_7 
REMARK    5  A    between atoms: C_6  and  C_25 
REMARK       I    between atoms: C_7  and  N_9 
REMARK    6  A    between atoms: C_10  and  N_9 
REMARK    7  A    between atoms: C_10  and  C_11 
REMARK    8  A    between atoms: C_10  and  C_15 
REMARK       I    between atoms: C_11  and  N_13 
REMARK    9  A    between atoms: C_15  and  C_16 
REMARK   10  A    between atoms: C_25  and  C_26 
ROOT
HETATM    1  C   UNK N   1      20.531  17.156   3.686  0.00  0.00     0.180 C 
ENDROOT
BRANCH   1   2
HETATM    2  N   UNK N   1      19.361  16.588   4.347  0.00  0.00    -0.347 N 
HETATM    3  C   UNK N   1      18.938  15.974   5.495  0.00  0.00     0.223 C 
HETATM    4  O   UNK N   1      17.741  15.750   5.578  0.00  0.00    -0.273 OA
HETATM    5  H   UNK N   1      18.589  16.682   3.744  0.00  0.00     0.163 HD
BRANCH   3   6
HETATM    6  C   UNK N   1      19.777  15.562   6.704  0.00  0.00     0.087 C 
BRANCH   6   7
HETATM    7  C   UNK N   1      20.152  16.803   7.534  0.00  0.00     0.119 C 
BRANCH   7   8
HETATM    8  C   UNK N   1      19.175  17.095   8.636  0.00  0.00     0.241 C 
HETATM    9  N   UNK N   1      19.137  18.329   9.186  0.00  0.00    -0.237 N 
HETATM   10  H   UNK N   1      19.762  19.021   8.871  0.00  0.00     0.197 HD
HETATM   11  O   UNK N   1      18.412  16.222   9.023  0.00  0.00    -0.271 OA
BRANCH   9  12
HETATM   12  O   UNK N   1      18.257  18.624  10.154  0.00  0.00    -0.287 OA
HETATM   13  H   UNK N   1      17.784  19.470  10.171  0.00  0.00     0.244 HD
ENDBRANCH   9  12
ENDBRANCH   7   8
ENDBRANCH   6   7
BRANCH   6  14
HETATM   14  C   UNK N   1      21.009  14.710   6.440  0.00  0.00     0.018 C 
BRANCH  14  15
HETATM   15  C   UNK N   1      20.903  13.288   6.994  0.00  0.00    -0.022 C 
HETATM   16  C   UNK N   1      22.230  12.893   7.604  0.00  0.00     0.009 C 
HETATM   17  C   UNK N   1      20.556  12.294   5.900  0.00  0.00     0.009 C 
ENDBRANCH  14  15
ENDBRANCH   6  14
ENDBRANCH   3   6
ENDBRANCH   1   2
BRANCH   1  18
HETATM   18  C   UNK N   1      20.140  17.377   2.247  0.00  0.00     0.240 C 
HETATM   19  O   UNK N   1      20.278  18.483   1.743  0.00  0.00    -0.271 OA
HETATM   20  N   UNK N   1      19.677  16.338   1.509  0.00  0.00    -0.364 N 
HETATM   21  C   UNK N   1      19.341  16.485   0.115  0.00  0.00     0.149 C 
HETATM   22  H   UNK N   1      19.566  15.459   1.938  0.00  0.00     0.161 HD
ENDBRANCH   1  18
BRANCH   1  23
HETATM   23  C   UNK N   1      21.158  18.432   4.265  0.00  0.00     0.075 C 
BRANCH  23  24
HETATM   24  C   UNK N   1      22.649  18.294   4.505  0.00  0.00    -0.028 A 
HETATM   25  C   UNK N   1      23.280  17.394   5.367  0.00  0.00     0.096 A 
HETATM   26  N   UNK N   1      24.619  17.600   5.352  0.00  0.00    -0.365 N 
HETATM   27  C   UNK N   1      24.831  18.617   4.499  0.00  0.00     0.042 A 
HETATM   28  H   UNK N   1      25.300  17.105   5.863  0.00  0.00     0.165 HD
HETATM   29  C   UNK N   1      26.056  19.192   4.179  0.00  0.00     0.030 A 
HETATM   30  C   UNK N   1      23.652  19.063   3.963  0.00  0.00    -0.002 A 
HETATM   31  C   UNK N   1      26.058  20.263   3.268  0.00  0.00     0.002 A 
HETATM   32  C   UNK N   1      24.845  20.727   2.710  0.00  0.00     0.001 A 
HETATM   33  C   UNK N   1      23.620  20.124   3.058  0.00  0.00     0.014 A 
ENDBRANCH  23  24
ENDBRANCH   1  23
TORSDOF 10
ENDMDL
MODEL 5
REMARK VINA RESULT:      -6.6     13.490     17.246
REMARK  10 active torsions:
REMARK  status: ('A' for Active; 'I' for Inactive)
REMARK    1  A    between atoms: O_1  and  N_2 
REMARK       I    between atoms: N_2  and  C_3 
REMARK    2  A    between atoms: C_3  and  C_5 
REMARK    3  A    between atoms: C_5  and  C_6 
REMARK    4  A    between atoms: C_6  and  C_7 
REMARK    5  A    between atoms: C_6  and  C_25 
REMARK       I    between atoms: C_7  and  N_9 
REMARK    6  A    between atoms: C_10  and  N_9 
REMARK    7  A    between atoms: C_10  and  C_11 
REMARK    8  A    between atoms: C_10  and  C_15 
REMARK       I    between atoms: C_11  and  N_13 
REMARK    9  A    between atoms: C_15  and  C_16 
REMARK   10  A    between atoms: C_25  and  C_26 
ROOT
HETATM    1  C   UNK N   1      32.832  17.664   8.220  0.00  0.00     0.180 C 
ENDROOT
BRANCH   1   2
HETATM    2  N   UNK N   1      33.903  17.605   9.208  0.00  0.00    -0.347 N 
HETATM    3  C   UNK N   1      34.794  16.760   9.813  0.00  0.00     0.223 C 
HETATM    4  O   UNK N   1      35.587  17.275  10.587  0.00  0.00    -0.273 OA
HETATM    5  H   UNK N   1      34.033  18.508   9.578  0.00  0.00     0.163 HD
BRANCH   3   6
HETATM    6  C   UNK N   1      34.942  15.252   9.615  0.00  0.00     0.087 C 
BRANCH   6   7
HETATM    7  C   UNK N   1      33.597  14.550   9.877  0.00  0.00     0.119 C 
BRANCH   7   8
HETATM    8  C   UNK N   1      33.300  13.456   8.893  0.00  0.00     0.241 C 
HETATM    9  N   UNK N   1      32.874  12.253   9.339  0.00  0.00    -0.237 N 
HETATM   10  H   UNK N   1      32.779  12.100  10.307  0.00  0.00     0.197 HD
HETATM   11  O   UNK N   1      33.432  13.659   7.695  0.00  0.00    -0.271 OA
BRANCH   9  12
HETATM   12  O   UNK N   1      32.578  11.267   8.481  0.00  0.00    -0.287 OA
HETATM   13  H   UNK N   1      31.794  11.306   7.911  0.00  0.00     0.244 HD
ENDBRANCH   9  12
ENDBRANCH   7   8
ENDBRANCH   6   7
BRANCH   6  14
HETATM   14  C   UNK N   1      36.059  14.555  10.378  0.00  0.00     0.018 C 
BRANCH  14  15
HETATM   15  C   UNK N   1      35.584  13.839  11.644  0.00  0.00    -0.022 C 
HETATM   16  C   UNK N   1      36.106  14.579  12.856  0.00  0.00     0.009 C 
HETATM   17  C   UNK N   1      36.092  12.409  11.692  0.00  0.00     0.009 C 
ENDBRANCH  14  15
ENDBRANCH   6  14
ENDBRANCH   3   6
ENDBRANCH   1   2
BRANCH   1  18
HETATM   18  C   UNK N   1      33.460  17.328   6.892  0.00  0.00     0.240 C 
HETATM   19  O   UNK N   1      34.371  18.020   6.458  0.00  0.00    -0.271 OA
HETATM   20  N   UNK N   1      33.040  16.236   6.206  0.00  0.00    -0.364 N 
HETATM   21  C   UNK N   1      33.645  15.842   4.959  0.00  0.00     0.149 C 
HETATM   22  H   UNK N   1      32.300  15.699   6.570  0.00  0.00     0.161 HD
ENDBRANCH   1  18
BRANCH   1  23
HETATM   23  C   UNK N   1      31.576  16.810   8.441  0.00  0.00     0.075 C 
BRANCH  23  24
HETATM   24  C   UNK N   1      30.297  17.620   8.367  0.00  0.00    -0.028 A 
HETATM   25  C   UNK N   1      29.600  18.188   9.436  0.00  0.00     0.096 A 
HETATM   26  N   UNK N   1      28.475  18.796   8.986  0.00  0.00    -0.365 N 
HETATM   27  C   UNK N   1      28.459  18.610   7.655  0.00  0.00     0.042 A 
HETATM   28  H   UNK N   1      27.806  19.277   9.525  0.00  0.00     0.165 HD
HETATM   29  C   UNK N   1      27.478  19.044   6.768  0.00  0.00     0.030 A 
HETATM   30  C   UNK N   1      29.554  17.900   7.243  0.00  0.00    -0.002 A 
HETATM   31  C   UNK N   1      27.644  18.731   5.407  0.00  0.00     0.002 A 
HETATM   32  C   UNK N   1      28.774  17.999   4.976  0.00  0.00     0.001 A 
HETATM   33  C   UNK N   1      29.747  17.572   5.901  0.00  0.00     0.014 A 
ENDBRANCH  23  24
ENDBRANCH   1  23
TORSDOF 10
ENDMDL
MODEL 6
REMARK VINA RESULT:      -6.6     18.017     22.180
REMARK  10 active torsions:
REMARK  status: ('A' for Active; 'I' for Inactive)
REMARK    1  A    between atoms: O_1  and  N_2 
REMARK       I    between atoms: N_2  and  C_3 
REMARK    2  A    between atoms: C_3  and  C_5 
REMARK    3  A    between atoms: C_5  and  C_6 
REMARK    4  A    between atoms: C_6  and  C_7 
REMARK    5  A    between atoms: C_6  and  C_25 
REMARK       I    between atoms: C_7  and  N_9 
REMARK    6  A    between atoms: C_10  and  N_9 
REMARK    7  A    between atoms: C_10  and  C_11 
REMARK    8  A    between atoms: C_10  and  C_15 
REMARK       I    between atoms: C_11  and  N_13 
REMARK    9  A    between atoms: C_15  and  C_16 
REMARK   10  A    between atoms: C_25  and  C_26 
ROOT
HETATM    1  C   UNK N   1      35.408  13.277  11.443  0.00  0.00     0.180 C 
ENDROOT
BRANCH   1   2
HETATM    2  N   UNK N   1      34.809  12.265  12.305  0.00  0.00    -0.347 N 
HETATM    3  C   UNK N   1      34.544  11.951  13.610  0.00  0.00     0.223 C 
HETATM    4  O   UNK N   1      33.901  10.931  13.801  0.00  0.00    -0.273 OA
HETATM    5  H   UNK N   1      34.468  11.537  11.737  0.00  0.00     0.163 HD
BRANCH   3   6
HETATM    6  C   UNK N   1      34.925  12.740  14.863  0.00  0.00     0.087 C 
BRANCH   6   7
HETATM    7  C   UNK N   1      36.439  13.021  14.869  0.00  0.00     0.119 C 
BRANCH   7   8
HETATM    8  C   UNK N   1      36.769  14.484  14.794  0.00  0.00     0.241 C 
HETATM    9  N   UNK N   1      37.390  15.084  15.834  0.00  0.00    -0.237 N 
HETATM   10  H   UNK N   1      37.605  14.559  16.639  0.00  0.00     0.197 HD
HETATM   11  O   UNK N   1      36.486  15.124  13.791  0.00  0.00    -0.271 OA
BRANCH   9  12
HETATM   12  O   UNK N   1      37.717  16.383  15.784  0.00  0.00    -0.287 OA
HETATM   13  H   UNK N   1      37.509  16.930  15.011  0.00  0.00     0.244 HD
ENDBRANCH   9  12
ENDBRANCH   7   8
ENDBRANCH   6   7
BRANCH   6  14
HETATM   14  C   UNK N   1      34.488  12.172  16.205  0.00  0.00     0.018 C 
BRANCH  14  15
HETATM   15  C   UNK N   1      35.518  12.369  17.320  0.00  0.00    -0.022 C 
HETATM   16  C   UNK N   1      35.590  11.110  18.155  0.00  0.00     0.009 C 
HETATM   17  C   UNK N   1      35.139  13.530  18.221  0.00  0.00     0.009 C 
ENDBRANCH  14  15
ENDBRANCH   6  14
ENDBRANCH   3   6
ENDBRANCH   1   2
BRANCH   1  18
HETATM   18  C   UNK N   1      36.788  12.779  11.098  0.00  0.00     0.240 C 
HETATM   19  O   UNK N   1      37.039  11.584  11.171  0.00  0.00    -0.271 OA
HETATM   20  N   UNK N   1      37.731  13.654  10.669  0.00  0.00    -0.364 N 
HETATM   21  C   UNK N   1      39.048  13.222  10.276  0.00  0.00     0.149 C 
HETATM   22  H   UNK N   1      37.509  14.613  10.625  0.00  0.00     0.161 HD
ENDBRANCH   1  18
BRANCH   1  23
HETATM   23  C   UNK N   1      34.663  13.693  10.167  0.00  0.00     0.075 C 
BRANCH  23  24
HETATM   24  C   UNK N   1      34.721  15.187   9.916  0.00  0.00    -0.028 A 
HETATM   25  C   UNK N   1      35.093  16.177  10.830  0.00  0.00     0.096 A 
HETATM   26  N   UNK N   1      34.974  17.401  10.260  0.00  0.00    -0.365 N 
HETATM   27  C   UNK N   1      34.529  17.189   9.009  0.00  0.00     0.042 A 
HETATM   28  H   UNK N   1      35.174  18.270  10.677  0.00  0.00     0.165 HD
HETATM   29  C   UNK N   1      34.240  18.158   8.055  0.00  0.00     0.030 A 
HETATM   30  C   UNK N   1      34.366  15.852   8.765  0.00  0.00    -0.002 A 
HETATM   31  C   UNK N   1      33.769  17.723   6.803  0.00  0.00     0.002 A 
HETATM   32  C   UNK N   1      33.599  16.344   6.545  0.00  0.00     0.001 A 
HETATM   33  C   UNK N   1      33.899  15.388   7.536  0.00  0.00     0.014 A 
ENDBRANCH  23  24
ENDBRANCH   1  23
TORSDOF 10
ENDMDL
MODEL 7
REMARK VINA RESULT:      -6.6     22.142     26.528
REMARK  10 active torsions:
REMARK  status: ('A' for Active; 'I' for Inactive)
REMARK    1  A    between atoms: O_1  and  N_2 
REMARK       I    between atoms: N_2  and  C_3 
REMARK    2  A    between atoms: C_3  and  C_5 
REMARK    3  A    between atoms: C_5  and  C_6 
REMARK    4  A    between atoms: C_6  and  C_7 
REMARK    5  A    between atoms: C_6  and  C_25 
REMARK       I    between atoms: C_7  and  N_9 
REMARK    6  A    between atoms: C_10  and  N_9 
REMARK    7  A    between atoms: C_10  and  C_11 
REMARK    8  A    between atoms: C_10  and  C_15 
REMARK       I    between atoms: C_11  and  N_13 
REMARK    9  A    between atoms: C_15  and  C_16 
REMARK   10  A    between atoms: C_25  and  C_26 
ROOT
HETATM    1  C   UNK N   1      36.085  13.621  14.911  0.00  0.00     0.180 C 
ENDROOT
BRANCH   1   2
HETATM    2  N   UNK N   1      37.222  12.718  14.777  0.00  0.00    -0.347 N 
HETATM    3  C   UNK N   1      37.573  11.430  14.478  0.00  0.00     0.223 C 
HETATM    4  O   UNK N   1      38.770  11.191  14.435  0.00  0.00    -0.273 OA
HETATM    5  H   UNK N   1      38.043  13.224  14.974  0.00  0.00     0.163 HD
BRANCH   3   6
HETATM    6  C   UNK N   1      36.649  10.255  14.158  0.00  0.00     0.087 C 
BRANCH   6   7
HETATM    7  C   UNK N   1      37.431   8.931  14.240  0.00  0.00     0.119 C 
BRANCH   7   8
HETATM    8  C   UNK N   1      37.029   8.079  15.410  0.00  0.00     0.241 C 
HETATM    9  N   UNK N   1      35.850   7.418  15.382  0.00  0.00    -0.237 N 
HETATM   10  H   UNK N   1      35.257   7.515  14.602  0.00  0.00     0.197 HD
HETATM   11  O   UNK N   1      37.772   7.977  16.375  0.00  0.00    -0.271 OA
BRANCH   9  12
HETATM   12  O   UNK N   1      35.478   6.632  16.402  0.00  0.00    -0.287 OA
HETATM   13  H   UNK N   1      35.096   6.999  17.214  0.00  0.00     0.244 HD
ENDBRANCH   9  12
ENDBRANCH   7   8
ENDBRANCH   6   7
BRANCH   6  14
HETATM   14  C   UNK N   1      35.860  10.322  12.859  0.00  0.00     0.018 C 
BRANCH  14  15
HETATM   15  C   UNK N   1      34.430   9.791  12.982  0.00  0.00    -0.022 C 
HETATM   16  C   UNK N   1      33.690  10.055  11.689  0.00  0.00     0.009 C 
HETATM   17  C   UNK N   1      33.684  10.471  14.117  0.00  0.00     0.009 C 
ENDBRANCH  14  15
ENDBRANCH   6  14
ENDBRANCH   3   6
ENDBRANCH   1   2
BRANCH   1  18
HETATM   18  C   UNK N   1      35.717  14.053  13.514  0.00  0.00     0.240 C 
HETATM   19  O   UNK N   1      34.742  13.561  12.963  0.00  0.00    -0.271 OA
HETATM   20  N   UNK N   1      36.445  15.014  12.894  0.00  0.00    -0.364 N 
HETATM   21  C   UNK N   1      36.102  15.500  11.581  0.00  0.00     0.149 C 
HETATM   22  H   UNK N   1      37.230  15.390  13.354  0.00  0.00     0.161 HD
ENDBRANCH   1  18
BRANCH   1  23
HETATM   23  C   UNK N   1      34.837  13.129  15.657  0.00  0.00     0.075 C 
BRANCH  23  24
HETATM   24  C   UNK N   1      35.062  13.001  17.151  0.00  0.00    -0.028 A 
HETATM   25  C   UNK N   1      35.220  14.044  18.068  0.00  0.00     0.096 A 
HETATM   26  N   UNK N   1      35.450  13.542  19.306  0.00  0.00    -0.365 N 
HETATM   27  C   UNK N   1      35.443  12.204  19.173  0.00  0.00     0.042 A 
HETATM   28  H   UNK N   1      35.593  14.053  20.135  0.00  0.00     0.165 HD
HETATM   29  C   UNK N   1      35.657  11.269  20.179  0.00  0.00     0.030 A 
HETATM   30  C   UNK N   1      35.207  11.840  17.874  0.00  0.00    -0.002 A 
HETATM   31  C   UNK N   1      35.622   9.908  19.825  0.00  0.00     0.002 A 
HETATM   32  C   UNK N   1      35.378   9.526  18.486  0.00  0.00     0.001 A 
HETATM   33  C   UNK N   1      35.168  10.500  17.490  0.00  0.00     0.014 A 
ENDBRANCH  23  24
ENDBRANCH   1  23
TORSDOF 10
ENDMDL
MODEL 8
REMARK VINA RESULT:      -6.5     13.602     17.387
REMARK  10 active torsions:
REMARK  status: ('A' for Active; 'I' for Inactive)
REMARK    1  A    between atoms: O_1  and  N_2 
REMARK       I    between atoms: N_2  and  C_3 
REMARK    2  A    between atoms: C_3  and  C_5 
REMARK    3  A    between atoms: C_5  and  C_6 
REMARK    4  A    between atoms: C_6  and  C_7 
REMARK    5  A    between atoms: C_6  and  C_25 
REMARK       I    between atoms: C_7  and  N_9 
REMARK    6  A    between atoms: C_10  and  N_9 
REMARK    7  A    between atoms: C_10  and  C_11 
REMARK    8  A    between atoms: C_10  and  C_15 
REMARK       I    between atoms: C_11  and  N_13 
REMARK    9  A    between atoms: C_15  and  C_16 
REMARK   10  A    between atoms: C_25  and  C_26 
ROOT
HETATM    1  C   UNK N   1      32.868  17.693   8.185  0.00  0.00     0.180 C 
ENDROOT
BRANCH   1   2
HETATM    2  N   UNK N   1      33.984  17.701   9.124  0.00  0.00    -0.347 N 
HETATM    3  C   UNK N   1      34.826  16.892   9.837  0.00  0.00     0.223 C 
HETATM    4  O   UNK N   1      35.706  17.452  10.471  0.00  0.00    -0.273 OA
HETATM    5  H   UNK N   1      34.219  18.637   9.317  0.00  0.00     0.163 HD
BRANCH   3   6
HETATM    6  C   UNK N   1      34.822  15.365   9.912  0.00  0.00     0.087 C 
BRANCH   6   7
HETATM    7  C   UNK N   1      36.056  14.871  10.690  0.00  0.00     0.119 C 
BRANCH   7   8
HETATM    8  C   UNK N   1      35.723  14.363  12.063  0.00  0.00     0.241 C 
HETATM    9  N   UNK N   1      36.711  14.194  12.970  0.00  0.00    -0.237 N 
HETATM   10  H   UNK N   1      37.642  14.388  12.717  0.00  0.00     0.197 HD
HETATM   11  O   UNK N   1      34.563  14.117  12.360  0.00  0.00    -0.271 OA
BRANCH   9  12
HETATM   12  O   UNK N   1      36.439  13.765  14.211  0.00  0.00    -0.287 OA
HETATM   13  H   UNK N   1      35.576  13.921  14.625  0.00  0.00     0.244 HD
ENDBRANCH   9  12
ENDBRANCH   7   8
ENDBRANCH   6   7
BRANCH   6  14
HETATM   14  C   UNK N   1      34.684  14.603   8.602  0.00  0.00     0.018 C 
BRANCH  14  15
HETATM   15  C   UNK N   1      33.531  13.597   8.596  0.00  0.00    -0.022 C 
HETATM   16  C   UNK N   1      33.968  12.337   9.310  0.00  0.00     0.009 C 
HETATM   17  C   UNK N   1      33.122  13.235   7.179  0.00  0.00     0.009 C 
ENDBRANCH  14  15
ENDBRANCH   6  14
ENDBRANCH   3   6
ENDBRANCH   1   2
BRANCH   1  18
HETATM   18  C   UNK N   1      33.453  17.374   6.833  0.00  0.00     0.240 C 
HETATM   19  O   UNK N   1      34.492  17.914   6.477  0.00  0.00    -0.271 OA
HETATM   20  N   UNK N   1      32.847  16.458   6.037  0.00  0.00    -0.364 N 
HETATM   21  C   UNK N   1      33.396  16.078   4.759  0.00  0.00     0.149 C 
HETATM   22  H   UNK N   1      32.008  16.042   6.340  0.00  0.00     0.161 HD
ENDBRANCH   1  18
BRANCH   1  23
HETATM   23  C   UNK N   1      31.671  16.777   8.471  0.00  0.00     0.075 C 
BRANCH  23  24
HETATM   24  C   UNK N   1      30.351  17.524   8.477  0.00  0.00    -0.028 A 
HETATM   25  C   UNK N   1      29.662  18.002   9.595  0.00  0.00     0.096 A 
HETATM   26  N   UNK N   1      28.495  18.574   9.210  0.00  0.00    -0.365 N 
HETATM   27  C   UNK N   1      28.445  18.454   7.872  0.00  0.00     0.042 A 
HETATM   28  H   UNK N   1      27.821  18.992   9.792  0.00  0.00     0.165 HD
HETATM   29  C   UNK N   1      27.416  18.881   7.038  0.00  0.00     0.030 A 
HETATM   30  C   UNK N   1      29.560  17.822   7.391  0.00  0.00    -0.002 A 
HETATM   31  C   UNK N   1      27.553  18.646   5.659  0.00  0.00     0.002 A 
HETATM   32  C   UNK N   1      28.703  17.994   5.157  0.00  0.00     0.001 A 
HETATM   33  C   UNK N   1      29.725  17.572   6.030  0.00  0.00     0.014 A 
ENDBRANCH  23  24
ENDBRANCH   1  23
TORSDOF 10
ENDMDL
MODEL 9
REMARK VINA RESULT:      -6.4     11.325     14.701
REMARK  10 active torsions:
REMARK  status: ('A' for Active; 'I' for Inactive)
REMARK    1  A    between atoms: O_1  and  N_2 
REMARK       I    between atoms: N_2  and  C_3 
REMARK    2  A    between atoms: C_3  and  C_5 
REMARK    3  A    between atoms: C_5  and  C_6 
REMARK    4  A    between atoms: C_6  and  C_7 
REMARK    5  A    between atoms: C_6  and  C_25 
REMARK       I    between atoms: C_7  and  N_9 
REMARK    6  A    between atoms: C_10  and  N_9 
REMARK    7  A    between atoms: C_10  and  C_11 
REMARK    8  A    between atoms: C_10  and  C_15 
REMARK       I    between atoms: C_11  and  N_13 
REMARK    9  A    between atoms: C_15  and  C_16 
REMARK   10  A    between atoms: C_25  and  C_26 
ROOT
HETATM    1  C   UNK N   1      24.516  17.379   4.492  0.00  0.00     0.180 C 
ENDROOT
BRANCH   1   2
HETATM    2  N   UNK N   1      23.381  17.938   5.217  0.00  0.00    -0.347 N 
HETATM    3  C   UNK N   1      22.078  18.334   5.081  0.00  0.00     0.223 C 
HETATM    4  O   UNK N   1      21.513  18.694   6.102  0.00  0.00    -0.273 OA
HETATM    5  H   UNK N   1      23.653  18.086   6.151  0.00  0.00     0.163 HD
BRANCH   3   6
HETATM    6  C   UNK N   1      21.228  18.351   3.811  0.00  0.00     0.087 C 
BRANCH   6   7
HETATM    7  C   UNK N   1      20.674  19.766   3.565  0.00  0.00     0.119 C 
BRANCH   7   8
HETATM    8  C   UNK N   1      21.089  20.341   2.241  0.00  0.00     0.241 C 
HETATM    9  N   UNK N   1      20.329  20.115   1.146  0.00  0.00    -0.237 N 
HETATM   10  H   UNK N   1      19.519  19.560   1.223  0.00  0.00     0.197 HD
HETATM   11  O   UNK N   1      22.102  21.020   2.160  0.00  0.00    -0.271 OA
BRANCH   9  12
HETATM   12  O   UNK N   1      20.663  20.636  -0.043  0.00  0.00    -0.287 OA
HETATM   13  H   UNK N   1      20.099  20.524  -0.823  0.00  0.00     0.244 HD
ENDBRANCH   9  12
ENDBRANCH   7   8
ENDBRANCH   6   7
BRANCH   6  14
HETATM   14  C   UNK N   1      20.114  17.321   3.704  0.00  0.00     0.018 C 
BRANCH  14  15
HETATM   15  C   UNK N   1      20.560  15.994   3.088  0.00  0.00    -0.022 C 
HETATM   16  C   UNK N   1      20.644  16.147   1.586  0.00  0.00     0.009 C 
HETATM   17  C   UNK N   1      19.580  14.879   3.410  0.00  0.00     0.009 C 
ENDBRANCH  14  15
ENDBRANCH   6  14
ENDBRANCH   3   6
ENDBRANCH   1   2
BRANCH   1  18
HETATM   18  C   UNK N   1      25.631  18.387   4.604  0.00  0.00     0.240 C 
HETATM   19  O   UNK N   1      26.314  18.650   3.623  0.00  0.00    -0.271 OA
HETATM   20  N   UNK N   1      25.843  19.027   5.781  0.00  0.00    -0.364 N 
HETATM   21  C   UNK N   1      26.860  20.038   5.925  0.00  0.00     0.149 C 
HETATM   22  H   UNK N   1      25.286  18.793   6.558  0.00  0.00     0.161 HD
ENDBRANCH   1  18
BRANCH   1  23
HETATM   23  C   UNK N   1      25.024  15.984   4.882  0.00  0.00     0.075 C 
BRANCH  23  24
HETATM   24  C   UNK N   1      24.091  14.875   4.434  0.00  0.00    -0.028 A 
HETATM   25  C   UNK N   1      23.316  14.049   5.252  0.00  0.00     0.096 A 
HETATM   26  N   UNK N   1      22.648  13.144   4.497  0.00  0.00    -0.365 N 
HETATM   27  C   UNK N   1      23.000  13.390   3.222  0.00  0.00     0.042 A 
HETATM   28  H   UNK N   1      22.030  12.447   4.816  0.00  0.00     0.165 HD
HETATM   29  C   UNK N   1      22.576  12.694   2.095  0.00  0.00     0.030 A 
HETATM   30  C   UNK N   1      23.876  14.439   3.147  0.00  0.00    -0.002 A 
HETATM   31  C   UNK N   1      23.077  13.105   0.847  0.00  0.00     0.002 A 
HETATM   32  C   UNK N   1      23.981  14.189   0.763  0.00  0.00     0.001 A 
HETATM   33  C   UNK N   1      24.392  14.870   1.925  0.00  0.00     0.014 A 
ENDBRANCH  23  24
ENDBRANCH   1  23
TORSDOF 10
ENDMDL
