MODEL 1
REMARK VINA RESULT:      -6.6      0.000      0.000
REMARK  3 active torsions:
REMARK  status: ('A' for Active; 'I' for Inactive)
REMARK    1  A    between atoms: C_11  and  C_12 
REMARK    2  A    between atoms: C_12  and  C_13 
REMARK       I    between atoms: C_13  and  N_15 
REMARK    3  A    between atoms: N_15  and  O_16 
ROOT
HETATM    1  O   UNK N   1      18.922  14.351   9.751  0.00  0.00    -0.272 OA
HETATM    2  C   UNK N   1      20.142  14.269   9.727  0.00  0.00     0.236 C 
HETATM    3  N   UNK N   1      20.746  13.280  10.431  0.00  0.00    -0.325 N 
HETATM    4  C   UNK N   1      22.133  12.997  10.332  0.00  0.00     0.051 A 
HETATM    5  C   UNK N   1      22.740  12.218  11.324  0.00  0.00     0.031 A 
HETATM    6  C   UNK N   1      24.101  11.913  11.245  0.00  0.00     0.002 A 
HETATM    7  C   UNK N   1      24.863  12.383  10.172  0.00  0.00     0.002 A 
HETATM    8  C   UNK N   1      24.260  13.143   9.167  0.00  0.00     0.021 A 
HETATM    9  C   UNK N   1      22.897  13.452   9.237  0.00  0.00     0.028 A 
HETATM   10  S   UNK N   1      22.130  14.353   7.877  0.00  0.00    -0.113 SA
HETATM   11  C   UNK N   1      20.963  15.267   8.937  0.00  0.00     0.153 C 
HETATM   12  H   UNK N   1      20.197  12.733  11.038  0.00  0.00     0.169 HD
ENDROOT
BRANCH  11  13
HETATM   13  C   UNK N   1      20.039  16.157   8.086  0.00  0.00     0.130 C 
BRANCH  13  14
HETATM   14  C   UNK N   1      19.526  17.420   8.724  0.00  0.00     0.242 C 
HETATM   15  O   UNK N   1      20.176  18.455   8.683  0.00  0.00    -0.271 OA
HETATM   16  N   UNK N   1      18.321  17.400   9.334  0.00  0.00    -0.237 N 
HETATM   17  H   UNK N   1      17.808  16.560   9.365  0.00  0.00     0.197 HD
BRANCH  16  18
HETATM   18  O   UNK N   1      17.814  18.502   9.900  0.00  0.00    -0.287 OA
HETATM   19  H   UNK N   1      18.324  19.004  10.554  0.00  0.00     0.244 HD
ENDBRANCH  16  18
ENDBRANCH  13  14
ENDBRANCH  11  13
TORSDOF 3
ENDMDL
MODEL 2
REMARK VINA RESULT:      -6.1     12.420     14.347
REMARK  3 active torsions:
REMARK  status: ('A' for Active; 'I' for Inactive)
REMARK    1  A    between atoms: C_11  and  C_12 
REMARK    2  A    between atoms: C_12  and  C_13 
REMARK       I    between atoms: C_13  and  N_15 
REMARK    3  A    between atoms: N_15  and  O_16 
ROOT
HETATM    1  O   UNK N   1      36.383  16.486  10.882  0.00  0.00    -0.272 OA
HETATM    2  C   UNK N   1      35.288  16.215  10.409  0.00  0.00     0.236 C 
HETATM    3  N   UNK N   1      34.647  17.148   9.663  0.00  0.00    -0.325 N 
HETATM    4  C   UNK N   1      33.461  16.873   8.934  0.00  0.00     0.051 A 
HETATM    5  C   UNK N   1      32.676  17.942   8.485  0.00  0.00     0.031 A 
HETATM    6  C   UNK N   1      31.510  17.702   7.754  0.00  0.00     0.002 A 
HETATM    7  C   UNK N   1      31.123  16.391   7.466  0.00  0.00     0.002 A 
HETATM    8  C   UNK N   1      31.911  15.319   7.893  0.00  0.00     0.021 A 
HETATM    9  C   UNK N   1      33.081  15.551   8.623  0.00  0.00     0.028 A 
HETATM   10  S   UNK N   1      34.125  14.153   9.076  0.00  0.00    -0.113 SA
HETATM   11  C   UNK N   1      34.653  14.864  10.668  0.00  0.00     0.153 C 
HETATM   12  H   UNK N   1      35.022  18.057   9.625  0.00  0.00     0.169 HD
ENDROOT
BRANCH  11  13
HETATM   13  C   UNK N   1      35.658  13.934  11.373  0.00  0.00     0.130 C 
BRANCH  13  14
HETATM   14  C   UNK N   1      35.728  14.012  12.874  0.00  0.00     0.242 C 
HETATM   15  O   UNK N   1      34.849  13.523  13.572  0.00  0.00    -0.271 OA
HETATM   16  N   UNK N   1      36.789  14.619  13.447  0.00  0.00    -0.237 N 
HETATM   17  H   UNK N   1      37.489  15.012  12.877  0.00  0.00     0.197 HD
BRANCH  16  18
HETATM   18  O   UNK N   1      36.905  14.697  14.779  0.00  0.00    -0.287 OA
HETATM   19  H   UNK N   1      36.119  14.722  15.346  0.00  0.00     0.244 HD
ENDBRANCH  16  18
ENDBRANCH  13  14
ENDBRANCH  11  13
TORSDOF 3
ENDMDL
MODEL 3
REMARK VINA RESULT:      -5.9     17.641     19.543
REMARK  3 active torsions:
REMARK  status: ('A' for Active; 'I' for Inactive)
REMARK    1  A    between atoms: C_11  and  C_12 
REMARK    2  A    between atoms: C_12  and  C_13 
REMARK       I    between atoms: C_13  and  N_15 
REMARK    3  A    between atoms: N_15  and  O_16 
ROOT
HETATM    1  O   UNK N   1      29.943  24.028  -5.972  0.00  0.00    -0.272 OA
HETATM    2  C   UNK N   1      29.265  24.722  -5.227  0.00  0.00     0.236 C 
HETATM    3  N   UNK N   1      28.808  25.916  -5.680  0.00  0.00    -0.325 N 
HETATM    4  C   UNK N   1      27.878  26.711  -4.960  0.00  0.00     0.051 A 
HETATM    5  C   UNK N   1      27.725  28.058  -5.307  0.00  0.00     0.031 A 
HETATM    6  C   UNK N   1      26.808  28.861  -4.623  0.00  0.00     0.002 A 
HETATM    7  C   UNK N   1      26.038  28.321  -3.591  0.00  0.00     0.002 A 
HETATM    8  C   UNK N   1      26.170  26.971  -3.253  0.00  0.00     0.021 A 
HETATM    9  C   UNK N   1      27.084  26.160  -3.933  0.00  0.00     0.028 A 
HETATM   10  S   UNK N   1      27.162  24.403  -3.538  0.00  0.00    -0.113 SA
HETATM   11  C   UNK N   1      28.956  24.261  -3.818  0.00  0.00     0.153 C 
HETATM   12  H   UNK N   1      29.135  26.245  -6.547  0.00  0.00     0.169 HD
ENDROOT
BRANCH  11  13
HETATM   13  C   UNK N   1      29.424  22.807  -3.622  0.00  0.00     0.130 C 
BRANCH  13  14
HETATM   14  C   UNK N   1      30.504  22.565  -2.603  0.00  0.00     0.242 C 
HETATM   15  O   UNK N   1      30.482  23.126  -1.516  0.00  0.00    -0.271 OA
HETATM   16  N   UNK N   1      31.500  21.703  -2.900  0.00  0.00    -0.237 N 
HETATM   17  H   UNK N   1      31.511  21.259  -3.779  0.00  0.00     0.197 HD
BRANCH  16  18
HETATM   18  O   UNK N   1      32.474  21.441  -2.018  0.00  0.00    -0.287 OA
HETATM   19  H   UNK N   1      33.142  20.762  -2.203  0.00  0.00     0.244 HD
ENDBRANCH  16  18
ENDBRANCH  13  14
ENDBRANCH  11  13
TORSDOF 3
ENDMDL
MODEL 4
REMARK VINA RESULT:      -5.8     13.519     14.252
REMARK  3 active torsions:
REMARK  status: ('A' for Active; 'I' for Inactive)
REMARK    1  A    between atoms: C_11  and  C_12 
REMARK    2  A    between atoms: C_12  and  C_13 
REMARK       I    between atoms: C_13  and  N_15 
REMARK    3  A    between atoms: N_15  and  O_16 
ROOT
HETATM    1  O   UNK N   1      35.133  12.978   9.883  0.00  0.00    -0.272 OA
HETATM    2  C   UNK N   1      35.035  13.007  11.102  0.00  0.00     0.236 C 
HETATM    3  N   UNK N   1      34.601  11.899  11.752  0.00  0.00    -0.325 N 
HETATM    4  C   UNK N   1      34.616  11.776  13.165  0.00  0.00     0.051 A 
HETATM    5  C   UNK N   1      33.845  10.775  13.768  0.00  0.00     0.031 A 
HETATM    6  C   UNK N   1      33.850  10.623  15.157  0.00  0.00     0.002 A 
HETATM    7  C   UNK N   1      34.628  11.469  15.951  0.00  0.00     0.002 A 
HETATM    8  C   UNK N   1      35.417  12.458  15.355  0.00  0.00     0.021 A 
HETATM    9  C   UNK N   1      35.419  12.616  13.965  0.00  0.00     0.028 A 
HETATM   10  S   UNK N   1      36.518  13.835  13.222  0.00  0.00    -0.113 SA
HETATM   11  C   UNK N   1      35.377  14.268  11.869  0.00  0.00     0.153 C 
HETATM   12  H   UNK N   1      34.261  11.145  11.218  0.00  0.00     0.169 HD
ENDROOT
BRANCH  11  13
HETATM   13  C   UNK N   1      36.017  15.303  10.927  0.00  0.00     0.130 C 
BRANCH  13  14
HETATM   14  C   UNK N   1      35.122  16.385  10.386  0.00  0.00     0.242 C 
HETATM   15  O   UNK N   1      35.491  17.551  10.355  0.00  0.00    -0.271 OA
HETATM   16  N   UNK N   1      33.901  16.048   9.917  0.00  0.00    -0.237 N 
HETATM   17  H   UNK N   1      33.612  15.107   9.951  0.00  0.00     0.197 HD
BRANCH  16  18
HETATM   18  O   UNK N   1      33.075  16.972   9.410  0.00  0.00    -0.287 OA
HETATM   19  H   UNK N   1      32.127  16.793   9.317  0.00  0.00     0.244 HD
ENDBRANCH  16  18
ENDBRANCH  13  14
ENDBRANCH  11  13
TORSDOF 3
ENDMDL
MODEL 5
REMARK VINA RESULT:      -5.8      2.521      3.243
REMARK  3 active torsions:
REMARK  status: ('A' for Active; 'I' for Inactive)
REMARK    1  A    between atoms: C_11  and  C_12 
REMARK    2  A    between atoms: C_12  and  C_13 
REMARK       I    between atoms: C_13  and  N_15 
REMARK    3  A    between atoms: N_15  and  O_16 
ROOT
HETATM    1  O   UNK N   1      19.573  14.425   9.257  0.00  0.00    -0.272 OA
HETATM    2  C   UNK N   1      20.462  15.004   8.648  0.00  0.00     0.236 C 
HETATM    3  N   UNK N   1      21.526  14.289   8.204  0.00  0.00    -0.325 N 
HETATM    4  C   UNK N   1      22.518  14.831   7.347  0.00  0.00     0.051 A 
HETATM    5  C   UNK N   1      23.743  14.165   7.218  0.00  0.00     0.031 A 
HETATM    6  C   UNK N   1      24.733  14.669   6.372  0.00  0.00     0.002 A 
HETATM    7  C   UNK N   1      24.505  15.841   5.648  0.00  0.00     0.002 A 
HETATM    8  C   UNK N   1      23.278  16.501   5.755  0.00  0.00     0.021 A 
HETATM    9  C   UNK N   1      22.280  16.002   6.598  0.00  0.00     0.028 A 
HETATM   10  S   UNK N   1      20.675  16.823   6.641  0.00  0.00    -0.113 SA
HETATM   11  C   UNK N   1      20.383  16.498   8.410  0.00  0.00     0.153 C 
HETATM   12  H   UNK N   1      21.613  13.351   8.490  0.00  0.00     0.169 HD
ENDROOT
BRANCH  11  13
HETATM   13  C   UNK N   1      19.004  17.029   8.840  0.00  0.00     0.130 C 
BRANCH  13  14
HETATM   14  C   UNK N   1      18.978  18.300   9.645  0.00  0.00     0.242 C 
HETATM   15  O   UNK N   1      19.961  19.026   9.708  0.00  0.00    -0.271 OA
HETATM   16  N   UNK N   1      17.843  18.640  10.292  0.00  0.00    -0.237 N 
HETATM   17  H   UNK N   1      17.059  18.047  10.239  0.00  0.00     0.197 HD
BRANCH  16  18
HETATM   18  O   UNK N   1      17.765  19.770  11.007  0.00  0.00    -0.287 OA
HETATM   19  H   UNK N   1      17.638  19.742  11.968  0.00  0.00     0.244 HD
ENDBRANCH  16  18
ENDBRANCH  13  14
ENDBRANCH  11  13
TORSDOF 3
ENDMDL
MODEL 6
REMARK VINA RESULT:      -5.7     17.676     19.558
REMARK  3 active torsions:
REMARK  status: ('A' for Active; 'I' for Inactive)
REMARK    1  A    between atoms: C_11  and  C_12 
REMARK    2  A    between atoms: C_12  and  C_13 
REMARK       I    between atoms: C_13  and  N_15 
REMARK    3  A    between atoms: N_15  and  O_16 
ROOT
HETATM    1  O   UNK N   1      26.520  24.167  -2.914  0.00  0.00    -0.272 OA
HETATM    2  C   UNK N   1      26.915  25.157  -3.514  0.00  0.00     0.236 C 
HETATM    3  N   UNK N   1      26.347  26.358  -3.242  0.00  0.00    -0.325 N 
HETATM    4  C   UNK N   1      26.846  27.583  -3.755  0.00  0.00     0.051 A 
HETATM    5  C   UNK N   1      26.025  28.717  -3.726  0.00  0.00     0.031 A 
HETATM    6  C   UNK N   1      26.495  29.939  -4.214  0.00  0.00     0.002 A 
HETATM    7  C   UNK N   1      27.789  30.036  -4.731  0.00  0.00     0.002 A 
HETATM    8  C   UNK N   1      28.622  28.914  -4.744  0.00  0.00     0.021 A 
HETATM    9  C   UNK N   1      28.160  27.686  -4.257  0.00  0.00     0.028 A 
HETATM   10  S   UNK N   1      29.290  26.283  -4.200  0.00  0.00    -0.113 SA
HETATM   11  C   UNK N   1      28.008  25.038  -4.556  0.00  0.00     0.153 C 
HETATM   12  H   UNK N   1      25.552  26.381  -2.662  0.00  0.00     0.169 HD
ENDROOT
BRANCH  11  13
HETATM   13  C   UNK N   1      28.606  23.620  -4.535  0.00  0.00     0.130 C 
BRANCH  13  14
HETATM   14  C   UNK N   1      29.753  23.373  -3.594  0.00  0.00     0.242 C 
HETATM   15  O   UNK N   1      30.908  23.355  -3.999  0.00  0.00    -0.271 OA
HETATM   16  N   UNK N   1      29.492  23.183  -2.283  0.00  0.00    -0.237 N 
HETATM   17  H   UNK N   1      28.559  23.194  -1.968  0.00  0.00     0.197 HD
BRANCH  16  18
HETATM   18  O   UNK N   1      30.481  22.977  -1.403  0.00  0.00    -0.287 OA
HETATM   19  H   UNK N   1      31.078  23.697  -1.149  0.00  0.00     0.244 HD
ENDBRANCH  16  18
ENDBRANCH  13  14
ENDBRANCH  11  13
TORSDOF 3
ENDMDL
MODEL 7
REMARK VINA RESULT:      -5.7     10.466     12.160
REMARK  3 active torsions:
REMARK  status: ('A' for Active; 'I' for Inactive)
REMARK    1  A    between atoms: C_11  and  C_12 
REMARK    2  A    between atoms: C_12  and  C_13 
REMARK       I    between atoms: C_13  and  N_15 
REMARK    3  A    between atoms: N_15  and  O_16 
ROOT
HETATM    1  O   UNK N   1      32.514  15.186   6.426  0.00  0.00    -0.272 OA
HETATM    2  C   UNK N   1      31.782  16.140   6.652  0.00  0.00     0.236 C 
HETATM    3  N   UNK N   1      30.730  16.368   5.828  0.00  0.00    -0.325 N 
HETATM    4  C   UNK N   1      29.731  17.339   6.100  0.00  0.00     0.051 A 
HETATM    5  C   UNK N   1      28.891  17.759   5.062  0.00  0.00     0.031 A 
HETATM    6  C   UNK N   1      27.891  18.705   5.304  0.00  0.00     0.002 A 
HETATM    7  C   UNK N   1      27.724  19.234   6.586  0.00  0.00     0.002 A 
HETATM    8  C   UNK N   1      28.546  18.805   7.632  0.00  0.00     0.021 A 
HETATM    9  C   UNK N   1      29.548  17.857   7.399  0.00  0.00     0.028 A 
HETATM   10  S   UNK N   1      30.527  17.255   8.787  0.00  0.00    -0.113 SA
HETATM   11  C   UNK N   1      32.060  17.061   7.823  0.00  0.00     0.153 C 
HETATM   12  H   UNK N   1      30.655  15.835   5.004  0.00  0.00     0.169 HD
ENDROOT
BRANCH  11  13
HETATM   13  C   UNK N   1      33.184  16.477   8.698  0.00  0.00     0.130 C 
BRANCH  13  14
HETATM   14  C   UNK N   1      34.340  17.383   9.024  0.00  0.00     0.242 C 
HETATM   15  O   UNK N   1      35.190  17.052   9.839  0.00  0.00    -0.271 OA
HETATM   16  N   UNK N   1      34.436  18.572   8.390  0.00  0.00    -0.237 N 
HETATM   17  H   UNK N   1      33.744  18.832   7.740  0.00  0.00     0.197 HD
BRANCH  16  18
HETATM   18  O   UNK N   1      35.457  19.405   8.633  0.00  0.00    -0.287 OA
HETATM   19  H   UNK N   1      36.124  19.191   9.303  0.00  0.00     0.244 HD
ENDBRANCH  16  18
ENDBRANCH  13  14
ENDBRANCH  11  13
TORSDOF 3
ENDMDL
MODEL 8
REMARK VINA RESULT:      -5.6     14.939     15.972
REMARK  3 active torsions:
REMARK  status: ('A' for Active; 'I' for Inactive)
REMARK    1  A    between atoms: C_11  and  C_12 
REMARK    2  A    between atoms: C_12  and  C_13 
REMARK       I    between atoms: C_13  and  N_15 
REMARK    3  A    between atoms: N_15  and  O_16 
ROOT
HETATM    1  O   UNK N   1      36.809  10.497  12.912  0.00  0.00    -0.272 OA
HETATM    2  C   UNK N   1      36.297  11.161  13.802  0.00  0.00     0.236 C 
HETATM    3  N   UNK N   1      36.357  10.705  15.078  0.00  0.00    -0.325 N 
HETATM    4  C   UNK N   1      35.947  11.478  16.195  0.00  0.00     0.051 A 
HETATM    5  C   UNK N   1      35.709  10.835  17.416  0.00  0.00     0.031 A 
HETATM    6  C   UNK N   1      35.316  11.572  18.535  0.00  0.00     0.002 A 
HETATM    7  C   UNK N   1      35.161  12.957  18.442  0.00  0.00     0.002 A 
HETATM    8  C   UNK N   1      35.416  13.609  17.233  0.00  0.00     0.021 A 
HETATM    9  C   UNK N   1      35.812  12.879  16.107  0.00  0.00     0.028 A 
HETATM   10  S   UNK N   1      36.226  13.760  14.590  0.00  0.00    -0.113 SA
HETATM   11  C   UNK N   1      35.591  12.462  13.480  0.00  0.00     0.153 C 
HETATM   12  H   UNK N   1      36.703   9.797  15.236  0.00  0.00     0.169 HD
ENDROOT
BRANCH  11  13
HETATM   13  C   UNK N   1      35.828  12.842  12.007  0.00  0.00     0.130 C 
BRANCH  13  14
HETATM   14  C   UNK N   1      35.688  14.294  11.642  0.00  0.00     0.242 C 
HETATM   15  O   UNK N   1      34.616  14.873  11.760  0.00  0.00    -0.271 OA
HETATM   16  N   UNK N   1      36.772  14.962  11.191  0.00  0.00    -0.237 N 
HETATM   17  H   UNK N   1      37.628  14.486  11.095  0.00  0.00     0.197 HD
BRANCH  16  18
HETATM   18  O   UNK N   1      36.701  16.261  10.870  0.00  0.00    -0.287 OA
HETATM   19  H   UNK N   1      37.503  16.767  10.672  0.00  0.00     0.244 HD
ENDBRANCH  16  18
ENDBRANCH  13  14
ENDBRANCH  11  13
TORSDOF 3
ENDMDL
MODEL 9
REMARK VINA RESULT:      -5.6      9.702     11.304
REMARK  3 active torsions:
REMARK  status: ('A' for Active; 'I' for Inactive)
REMARK    1  A    between atoms: C_11  and  C_12 
REMARK    2  A    between atoms: C_12  and  C_13 
REMARK       I    between atoms: C_13  and  N_15 
REMARK    3  A    between atoms: N_15  and  O_16 
ROOT
HETATM    1  O   UNK N   1      30.199  15.533   5.913  0.00  0.00    -0.272 OA
HETATM    2  C   UNK N   1      29.793  16.681   6.032  0.00  0.00     0.236 C 
HETATM    3  N   UNK N   1      28.894  17.155   5.134  0.00  0.00    -0.325 N 
HETATM    4  C   UNK N   1      28.237  18.404   5.283  0.00  0.00     0.051 A 
HETATM    5  C   UNK N   1      27.607  18.977   4.172  0.00  0.00     0.031 A 
HETATM    6  C   UNK N   1      26.943  20.200   4.293  0.00  0.00     0.002 A 
HETATM    7  C   UNK N   1      26.902  20.856   5.526  0.00  0.00     0.002 A 
HETATM    8  C   UNK N   1      27.510  20.280   6.644  0.00  0.00     0.021 A 
HETATM    9  C   UNK N   1      28.176  19.055   6.533  0.00  0.00     0.028 A 
HETATM   10  S   UNK N   1      28.868  18.294   8.013  0.00  0.00    -0.113 SA
HETATM   11  C   UNK N   1      30.299  17.562   7.156  0.00  0.00     0.153 C 
HETATM   12  H   UNK N   1      28.687  16.607   4.343  0.00  0.00     0.169 HD
ENDROOT
BRANCH  11  13
HETATM   13  C   UNK N   1      31.153  16.734   8.133  0.00  0.00     0.130 C 
BRANCH  13  14
HETATM   14  C   UNK N   1      32.486  17.305   8.533  0.00  0.00     0.242 C 
HETATM   15  O   UNK N   1      32.921  18.319   8.004  0.00  0.00    -0.271 OA
HETATM   16  N   UNK N   1      33.197  16.688   9.501  0.00  0.00    -0.237 N 
HETATM   17  H   UNK N   1      32.840  15.869   9.917  0.00  0.00     0.197 HD
BRANCH  16  18
HETATM   18  O   UNK N   1      34.381  17.168   9.904  0.00  0.00    -0.287 OA
HETATM   19  H   UNK N   1      34.433  17.971  10.443  0.00  0.00     0.244 HD
ENDBRANCH  16  18
ENDBRANCH  13  14
ENDBRANCH  11  13
TORSDOF 3
ENDMDL
