REMARK  6 active torsions:
REMARK  status: ('A' for Active; 'I' for Inactive)
REMARK    1  A    between atoms: N_1  and  C_4 
REMARK    2  A    between atoms: C_4  and  C_5 
REMARK    3  A    between atoms: C_8  and  N_11 
REMARK       I    between atoms: N_11  and  C_12 
REMARK       I    between atoms: C_12  and  N_14 
REMARK    4  A    between atoms: N_14  and  C_15 
REMARK    5  A    between atoms: C_18  and  O_21 
REMARK    6  A    between atoms: O_21  and  C_22 
ROOT
HETATM    1  N   UNK N   1       3.179   1.093   0.423  0.00  0.00    -0.309 N 
HETATM    2  C   UNK N   1       2.279   0.070   0.407  0.00  0.00     0.325 C 
HETATM    3  O   UNK N   1       2.610  -1.025   0.838  0.00  0.00    -0.247 OA
HETATM    4  N   UNK N   1       1.028   0.274  -0.080  0.00  0.00    -0.309 N 
HETATM    5  H   UNK N   1       4.096   0.889   0.719  0.00  0.00     0.170 HD
HETATM    6  H   UNK N   1       0.864   1.158  -0.483  0.00  0.00     0.170 HD
ENDROOT
BRANCH   1   7
HETATM    7  C   UNK N   1       2.890   2.442   0.042  0.00  0.00     0.036 A 
HETATM    8  C   UNK N   1       3.899   3.408   0.109  0.00  0.00     0.030 A 
HETATM    9  C   UNK N   1       3.615   4.747  -0.198  0.00  0.00     0.017 A 
HETATM   10  C   UNK N   1       2.315   5.131  -0.572  0.00  0.00     0.007 A 
HETATM   11  C   UNK N   1       1.313   4.163  -0.648  0.00  0.00     0.017 A 
HETATM   12  C   UNK N   1       1.598   2.840  -0.343  0.00  0.00     0.030 A 
BRANCH  10  13
HETATM   13  C   UNK N   1       1.984   6.539  -0.866  0.00  0.00     0.102 C 
HETATM   14  N   UNK N   1       2.882   7.450  -0.778  0.00  0.00    -0.385 N 
HETATM   15  H   UNK N   1       3.833   7.202  -0.711  0.00  0.00     0.157 HD
ATOM     16  HN  UNK N   1       2.611   8.433  -0.778  1.00  0.00     0.157 HD
BRANCH  13  17
HETATM   17  N   UNK N   1       0.660   6.900  -1.209  0.00  0.00    -0.385 N 
HETATM   18  H   UNK N   1       0.417   7.824  -1.447  0.00  0.00     0.157 HD
HETATM   19  H   UNK N   1      -0.039   6.207  -1.209  0.00  0.00     0.157 HD
ENDBRANCH  13  17
ENDBRANCH  10  13
ENDBRANCH   1   7
BRANCH   4  20
HETATM   20  C   UNK N   1      -0.071  -0.615  -0.085  0.00  0.00     0.036 A 
HETATM   21  C   UNK N   1      -0.058  -1.820   0.627  0.00  0.00     0.032 A 
HETATM   22  C   UNK N   1      -1.185  -2.641   0.618  0.00  0.00     0.039 A 
HETATM   23  C   UNK N   1      -2.337  -2.261  -0.095  0.00  0.00     0.076 A 
HETATM   24  C   UNK N   1      -2.354  -1.046  -0.778  0.00  0.00     0.039 A 
HETATM   25  C   UNK N   1      -1.224  -0.230  -0.775  0.00  0.00     0.032 A 
BRANCH  23  26
HETATM   26  O   UNK N   1      -3.435  -3.054  -0.135  0.00  0.00    -0.311 OA
BRANCH  26  27
HETATM   27  C   UNK N   1      -3.409  -4.411  -0.138  0.00  0.00     0.076 A 
HETATM   28  C   UNK N   1      -2.240  -5.119  -0.475  0.00  0.00     0.037 A 
HETATM   29  C   UNK N   1      -2.243  -6.513  -0.515  0.00  0.00     0.003 A 
HETATM   30  C   UNK N   1      -3.415  -7.212  -0.221  0.00  0.00     0.000 A 
HETATM   31  C   UNK N   1      -4.582  -6.516   0.110  0.00  0.00     0.003 A 
HETATM   32  C   UNK N   1      -4.580  -5.118   0.145  0.00  0.00     0.037 A 
ENDBRANCH  26  27
ENDBRANCH  23  26
ENDBRANCH   4  20
TORSDOF 6
