MODEL 1
REMARK VINA RESULT:      -7.9      0.000      0.000
REMARK  6 active torsions:
REMARK  status: ('A' for Active; 'I' for Inactive)
REMARK    1  A    between atoms: N_1  and  C_4 
REMARK    2  A    between atoms: C_4  and  C_5 
REMARK    3  A    between atoms: C_8  and  N_11 
REMARK       I    between atoms: N_11  and  C_12 
REMARK       I    between atoms: C_12  and  N_14 
REMARK    4  A    between atoms: N_14  and  C_15 
REMARK    5  A    between atoms: C_18  and  O_21 
REMARK    6  A    between atoms: O_21  and  C_22 
ROOT
HETATM    1  N   UNK N   1      33.506  16.132   7.330  0.00  0.00    -0.309 N 
HETATM    2  C   UNK N   1      34.303  15.530   8.257  0.00  0.00     0.325 C 
HETATM    3  O   UNK N   1      35.430  15.179   7.940  0.00  0.00    -0.247 OA
HETATM    4  N   UNK N   1      33.843  15.329   9.519  0.00  0.00    -0.309 N 
HETATM    5  H   UNK N   1      33.848  16.198   6.408  0.00  0.00     0.170 HD
HETATM    6  H   UNK N   1      32.899  15.564   9.673  0.00  0.00     0.170 HD
ENDROOT
BRANCH   1   7
HETATM    7  C   UNK N   1      32.210  16.677   7.596  0.00  0.00     0.036 A 
HETATM    8  C   UNK N   1      31.098  16.178   6.910  0.00  0.00     0.030 A 
HETATM    9  C   UNK N   1      29.831  16.745   7.112  0.00  0.00     0.017 A 
HETATM   10  C   UNK N   1      29.667  17.822   8.001  0.00  0.00     0.007 A 
HETATM   11  C   UNK N   1      30.776  18.311   8.692  0.00  0.00     0.017 A 
HETATM   12  C   UNK N   1      32.027  17.747   8.489  0.00  0.00     0.030 A 
BRANCH  10  13
HETATM   13  C   UNK N   1      28.351  18.458   8.204  0.00  0.00     0.102 C 
HETATM   14  N   UNK N   1      27.690  18.255   9.284  0.00  0.00    -0.385 N 
HETATM   15  H   UNK N   1      28.130  17.844  10.063  0.00  0.00     0.157 HD
ATOM     16  HN  UNK N   1      26.707  18.521   9.336  1.00  0.00     0.157 HD
BRANCH  13  17
HETATM   17  N   UNK N   1      27.789  19.266   7.187  0.00  0.00    -0.385 N 
HETATM   18  H   UNK N   1      27.732  20.245   7.272  0.00  0.00     0.157 HD
HETATM   19  H   UNK N   1      27.445  18.836   6.372  0.00  0.00     0.157 HD
ENDBRANCH  13  17
ENDBRANCH  10  13
ENDBRANCH   1   7
BRANCH   4  20
HETATM   20  C   UNK N   1      34.541  14.827  10.641  0.00  0.00     0.036 A 
HETATM   21  C   UNK N   1      34.596  13.459  10.933  0.00  0.00     0.032 A 
HETATM   22  C   UNK N   1      35.332  13.015  12.031  0.00  0.00     0.039 A 
HETATM   23  C   UNK N   1      36.026  13.933  12.841  0.00  0.00     0.076 A 
HETATM   24  C   UNK N   1      35.991  15.291  12.528  0.00  0.00     0.039 A 
HETATM   25  C   UNK N   1      35.248  15.734  11.434  0.00  0.00     0.032 A 
BRANCH  23  26
HETATM   26  O   UNK N   1      36.729  13.526  13.926  0.00  0.00    -0.311 OA
BRANCH  26  27
HETATM   27  C   UNK N   1      36.388  13.791  15.212  0.00  0.00     0.076 A 
HETATM   28  C   UNK N   1      35.357  13.082  15.857  0.00  0.00     0.037 A 
HETATM   29  C   UNK N   1      34.990  13.397  17.165  0.00  0.00     0.003 A 
HETATM   30  C   UNK N   1      35.650  14.426  17.840  0.00  0.00     0.000 A 
HETATM   31  C   UNK N   1      36.672  15.139  17.205  0.00  0.00     0.003 A 
HETATM   32  C   UNK N   1      37.035  14.826  15.892  0.00  0.00     0.037 A 
ENDBRANCH  26  27
ENDBRANCH  23  26
ENDBRANCH   4  20
TORSDOF 6
ENDMDL
MODEL 2
REMARK VINA RESULT:      -7.8      3.215      9.187
REMARK  6 active torsions:
REMARK  status: ('A' for Active; 'I' for Inactive)
REMARK    1  A    between atoms: N_1  and  C_4 
REMARK    2  A    between atoms: C_4  and  C_5 
REMARK    3  A    between atoms: C_8  and  N_11 
REMARK       I    between atoms: N_11  and  C_12 
REMARK       I    between atoms: C_12  and  N_14 
REMARK    4  A    between atoms: N_14  and  C_15 
REMARK    5  A    between atoms: C_18  and  O_21 
REMARK    6  A    between atoms: O_21  and  C_22 
ROOT
HETATM    1  N   UNK N   1      37.121  13.340  13.000  0.00  0.00    -0.309 N 
HETATM    2  C   UNK N   1      36.587  13.856  11.858  0.00  0.00     0.325 C 
HETATM    3  O   UNK N   1      37.044  13.515  10.776  0.00  0.00    -0.247 OA
HETATM    4  N   UNK N   1      35.555  14.736  11.928  0.00  0.00    -0.309 N 
HETATM    5  H   UNK N   1      37.912  12.759  12.912  0.00  0.00     0.170 HD
HETATM    6  H   UNK N   1      35.298  15.023  12.835  0.00  0.00     0.170 HD
ENDROOT
BRANCH   1   7
HETATM    7  C   UNK N   1      36.618  13.578  14.318  0.00  0.00     0.036 A 
HETATM    8  C   UNK N   1      37.168  14.606  15.091  0.00  0.00     0.030 A 
HETATM    9  C   UNK N   1      36.731  14.810  16.408  0.00  0.00     0.017 A 
HETATM   10  C   UNK N   1      35.740  13.983  16.965  0.00  0.00     0.007 A 
HETATM   11  C   UNK N   1      35.185  12.965  16.188  0.00  0.00     0.017 A 
HETATM   12  C   UNK N   1      35.621  12.766  14.886  0.00  0.00     0.030 A 
BRANCH  10  13
HETATM   13  C   UNK N   1      35.288  14.156  18.359  0.00  0.00     0.102 C 
HETATM   14  N   UNK N   1      35.017  15.324  18.815  0.00  0.00    -0.385 N 
HETATM   15  H   UNK N   1      34.913  16.084  18.196  0.00  0.00     0.157 HD
ATOM     16  HN  UNK N   1      34.908  15.465  19.818  1.00  0.00     0.157 HD
BRANCH  13  17
HETATM   17  N   UNK N   1      35.190  13.036  19.218  0.00  0.00    -0.385 N 
HETATM   18  H   UNK N   1      35.983  12.526  19.501  0.00  0.00     0.157 HD
HETATM   19  H   UNK N   1      34.303  12.758  19.540  0.00  0.00     0.157 HD
ENDBRANCH  13  17
ENDBRANCH  10  13
ENDBRANCH   1   7
BRANCH   4  20
HETATM   20  C   UNK N   1      34.801  15.295  10.871  0.00  0.00     0.036 A 
HETATM   21  C   UNK N   1      33.661  14.668  10.357  0.00  0.00     0.032 A 
HETATM   22  C   UNK N   1      32.932  15.284   9.340  0.00  0.00     0.039 A 
HETATM   23  C   UNK N   1      33.332  16.535   8.835  0.00  0.00     0.076 A 
HETATM   24  C   UNK N   1      34.452  17.168   9.372  0.00  0.00     0.039 A 
HETATM   25  C   UNK N   1      35.184  16.548  10.383  0.00  0.00     0.032 A 
BRANCH  23  26
HETATM   26  O   UNK N   1      32.651  17.140   7.832  0.00  0.00    -0.311 OA
BRANCH  26  27
HETATM   27  C   UNK N   1      31.334  17.465   7.877  0.00  0.00     0.076 A 
HETATM   28  C   UNK N   1      30.819  18.289   8.896  0.00  0.00     0.037 A 
HETATM   29  C   UNK N   1      29.456  18.578   8.952  0.00  0.00     0.003 A 
HETATM   30  C   UNK N   1      28.594  18.043   7.993  0.00  0.00     0.000 A 
HETATM   31  C   UNK N   1      29.097  17.220   6.980  0.00  0.00     0.003 A 
HETATM   32  C   UNK N   1      30.463  16.927   6.927  0.00  0.00     0.037 A 
ENDBRANCH  26  27
ENDBRANCH  23  26
ENDBRANCH   4  20
TORSDOF 6
ENDMDL
MODEL 3
REMARK VINA RESULT:      -7.5      3.337      9.463
REMARK  6 active torsions:
REMARK  status: ('A' for Active; 'I' for Inactive)
REMARK    1  A    between atoms: N_1  and  C_4 
REMARK    2  A    between atoms: C_4  and  C_5 
REMARK    3  A    between atoms: C_8  and  N_11 
REMARK       I    between atoms: N_11  and  C_12 
REMARK       I    between atoms: C_12  and  N_14 
REMARK    4  A    between atoms: N_14  and  C_15 
REMARK    5  A    between atoms: C_18  and  O_21 
REMARK    6  A    between atoms: O_21  and  C_22 
ROOT
HETATM    1  N   UNK N   1      36.059  12.397  12.434  0.00  0.00    -0.309 N 
HETATM    2  C   UNK N   1      35.630  13.107  11.353  0.00  0.00     0.325 C 
HETATM    3  O   UNK N   1      35.794  12.648  10.232  0.00  0.00    -0.247 OA
HETATM    4  N   UNK N   1      35.022  14.309  11.528  0.00  0.00    -0.309 N 
HETATM    5  H   UNK N   1      36.556  11.564  12.264  0.00  0.00     0.170 HD
HETATM    6  H   UNK N   1      35.000  14.648  12.453  0.00  0.00     0.170 HD
ENDROOT
BRANCH   1   7
HETATM    7  C   UNK N   1      35.841  12.773  13.798  0.00  0.00     0.036 A 
HETATM    8  C   UNK N   1      36.777  13.583  14.448  0.00  0.00     0.030 A 
HETATM    9  C   UNK N   1      36.611  13.905  15.803  0.00  0.00     0.017 A 
HETATM   10  C   UNK N   1      35.506  13.416  16.521  0.00  0.00     0.007 A 
HETATM   11  C   UNK N   1      34.567  12.617  15.867  0.00  0.00     0.017 A 
HETATM   12  C   UNK N   1      34.736  12.299  14.527  0.00  0.00     0.030 A 
BRANCH  10  13
HETATM   13  C   UNK N   1      35.328  13.713  17.955  0.00  0.00     0.102 C 
HETATM   14  N   UNK N   1      35.126  12.766  18.795  0.00  0.00    -0.385 N 
HETATM   15  H   UNK N   1      35.284  11.829  18.532  0.00  0.00     0.157 HD
ATOM     16  HN  UNK N   1      34.801  12.982  19.738  1.00  0.00     0.157 HD
BRANCH  13  17
HETATM   17  N   UNK N   1      35.339  15.053  18.409  0.00  0.00    -0.385 N 
HETATM   18  H   UNK N   1      36.177  15.522  18.628  0.00  0.00     0.157 HD
HETATM   19  H   UNK N   1      34.484  15.530  18.510  0.00  0.00     0.157 HD
ENDBRANCH  13  17
ENDBRANCH  10  13
ENDBRANCH   1   7
BRANCH   4  20
HETATM   20  C   UNK N   1      34.417  15.139  10.558  0.00  0.00     0.036 A 
HETATM   21  C   UNK N   1      33.175  14.836   9.988  0.00  0.00     0.032 A 
HETATM   22  C   UNK N   1      32.606  15.711   9.063  0.00  0.00     0.039 A 
HETATM   23  C   UNK N   1      33.269  16.900   8.706  0.00  0.00     0.076 A 
HETATM   24  C   UNK N   1      34.492  17.210   9.299  0.00  0.00     0.039 A 
HETATM   25  C   UNK N   1      35.063  16.331  10.217  0.00  0.00     0.032 A 
BRANCH  23  26
HETATM   26  O   UNK N   1      32.745  17.753   7.793  0.00  0.00    -0.311 OA
BRANCH  26  27
HETATM   27  C   UNK N   1      32.451  17.427   6.509  0.00  0.00     0.076 A 
HETATM   28  C   UNK N   1      33.441  17.428   5.509  0.00  0.00     0.037 A 
HETATM   29  C   UNK N   1      33.113  17.132   4.187  0.00  0.00     0.003 A 
HETATM   30  C   UNK N   1      31.791  16.834   3.851  0.00  0.00     0.000 A 
HETATM   31  C   UNK N   1      30.800  16.836   4.838  0.00  0.00     0.003 A 
HETATM   32  C   UNK N   1      31.129  17.138   6.163  0.00  0.00     0.037 A 
ENDBRANCH  26  27
ENDBRANCH  23  26
ENDBRANCH   4  20
TORSDOF 6
ENDMDL
MODEL 4
REMARK VINA RESULT:      -7.5      3.218     10.193
REMARK  6 active torsions:
REMARK  status: ('A' for Active; 'I' for Inactive)
REMARK    1  A    between atoms: N_1  and  C_4 
REMARK    2  A    between atoms: C_4  and  C_5 
REMARK    3  A    between atoms: C_8  and  N_11 
REMARK       I    between atoms: N_11  and  C_12 
REMARK       I    between atoms: C_12  and  N_14 
REMARK    4  A    between atoms: N_14  and  C_15 
REMARK    5  A    between atoms: C_18  and  O_21 
REMARK    6  A    between atoms: O_21  and  C_22 
ROOT
HETATM    1  N   UNK N   1      34.982  17.190   8.961  0.00  0.00    -0.309 N 
HETATM    2  C   UNK N   1      33.796  17.633   8.457  0.00  0.00     0.325 C 
HETATM    3  O   UNK N   1      33.800  18.471   7.567  0.00  0.00    -0.247 OA
HETATM    4  N   UNK N   1      32.627  17.140   8.939  0.00  0.00    -0.309 N 
HETATM    5  H   UNK N   1      35.806  17.621   8.635  0.00  0.00     0.170 HD
HETATM    6  H   UNK N   1      32.704  16.531   9.710  0.00  0.00     0.170 HD
ENDROOT
BRANCH   1   7
HETATM    7  C   UNK N   1      35.119  16.146   9.930  0.00  0.00     0.036 A 
HETATM    8  C   UNK N   1      35.521  16.461  11.232  0.00  0.00     0.030 A 
HETATM    9  C   UNK N   1      35.723  15.442  12.174  0.00  0.00     0.017 A 
HETATM   10  C   UNK N   1      35.528  14.096  11.819  0.00  0.00     0.007 A 
HETATM   11  C   UNK N   1      35.117  13.785  10.523  0.00  0.00     0.017 A 
HETATM   12  C   UNK N   1      34.918  14.796   9.593  0.00  0.00     0.030 A 
BRANCH  10  13
HETATM   13  C   UNK N   1      35.768  13.004  12.783  0.00  0.00     0.102 C 
HETATM   14  N   UNK N   1      36.948  12.779  13.230  0.00  0.00    -0.385 N 
HETATM   15  H   UNK N   1      37.663  13.443  13.095  0.00  0.00     0.157 HD
ATOM     16  HN  UNK N   1      37.147  11.910  13.725  1.00  0.00     0.157 HD
BRANCH  13  17
HETATM   17  N   UNK N   1      34.700  12.171  13.191  0.00  0.00    -0.385 N 
HETATM   18  H   UNK N   1      34.479  12.035  14.141  0.00  0.00     0.157 HD
HETATM   19  H   UNK N   1      34.163  11.712  12.506  0.00  0.00     0.157 HD
ENDBRANCH  13  17
ENDBRANCH  10  13
ENDBRANCH   1   7
BRANCH   4  20
HETATM   20  C   UNK N   1      31.312  17.386   8.482  0.00  0.00     0.036 A 
HETATM   21  C   UNK N   1      30.510  18.395   9.028  0.00  0.00     0.032 A 
HETATM   22  C   UNK N   1      29.234  18.619   8.513  0.00  0.00     0.039 A 
HETATM   23  C   UNK N   1      28.752  17.844   7.442  0.00  0.00     0.076 A 
HETATM   24  C   UNK N   1      29.567  16.860   6.883  0.00  0.00     0.039 A 
HETATM   25  C   UNK N   1      30.839  16.632   7.405  0.00  0.00     0.032 A 
BRANCH  23  26
HETATM   26  O   UNK N   1      27.507  18.030   6.940  0.00  0.00    -0.311 OA
BRANCH  26  27
HETATM   27  C   UNK N   1      27.214  18.816   5.873  0.00  0.00     0.076 A 
HETATM   28  C   UNK N   1      27.151  20.217   5.992  0.00  0.00     0.037 A 
HETATM   29  C   UNK N   1      26.805  21.006   4.896  0.00  0.00     0.003 A 
HETATM   30  C   UNK N   1      26.517  20.402   3.671  0.00  0.00     0.000 A 
HETATM   31  C   UNK N   1      26.572  19.011   3.545  0.00  0.00     0.003 A 
HETATM   32  C   UNK N   1      26.914  18.219   4.646  0.00  0.00     0.037 A 
ENDBRANCH  26  27
ENDBRANCH  23  26
ENDBRANCH   4  20
TORSDOF 6
ENDMDL
MODEL 5
REMARK VINA RESULT:      -7.4      2.380      3.050
REMARK  6 active torsions:
REMARK  status: ('A' for Active; 'I' for Inactive)
REMARK    1  A    between atoms: N_1  and  C_4 
REMARK    2  A    between atoms: C_4  and  C_5 
REMARK    3  A    between atoms: C_8  and  N_11 
REMARK       I    between atoms: N_11  and  C_12 
REMARK       I    between atoms: C_12  and  N_14 
REMARK    4  A    between atoms: N_14  and  C_15 
REMARK    5  A    between atoms: C_18  and  O_21 
REMARK    6  A    between atoms: O_21  and  C_22 
ROOT
HETATM    1  N   UNK N   1      34.236  18.086   8.661  0.00  0.00    -0.309 N 
HETATM    2  C   UNK N   1      34.865  17.169   9.448  0.00  0.00     0.325 C 
HETATM    3  O   UNK N   1      35.656  17.551  10.298  0.00  0.00    -0.247 OA
HETATM    4  N   UNK N   1      34.607  15.845   9.286  0.00  0.00    -0.309 N 
HETATM    5  H   UNK N   1      34.500  19.030   8.761  0.00  0.00     0.170 HD
HETATM    6  H   UNK N   1      34.022  15.612   8.528  0.00  0.00     0.170 HD
ENDROOT
BRANCH   1   7
HETATM    7  C   UNK N   1      33.220  17.780   7.701  0.00  0.00     0.036 A 
HETATM    8  C   UNK N   1      31.896  17.626   8.124  0.00  0.00     0.030 A 
HETATM    9  C   UNK N   1      30.899  17.262   7.207  0.00  0.00     0.017 A 
HETATM   10  C   UNK N   1      31.222  17.044   5.855  0.00  0.00     0.007 A 
HETATM   11  C   UNK N   1      32.542  17.209   5.434  0.00  0.00     0.017 A 
HETATM   12  C   UNK N   1      33.524  17.569   6.345  0.00  0.00     0.030 A 
BRANCH  10  13
HETATM   13  C   UNK N   1      30.197  16.626   4.878  0.00  0.00     0.102 C 
HETATM   14  N   UNK N   1      29.315  15.752   5.196  0.00  0.00    -0.385 N 
HETATM   15  H   UNK N   1      29.185  15.500   6.139  0.00  0.00     0.157 HD
ATOM     16  HN  UNK N   1      28.745  15.317   4.470  1.00  0.00     0.157 HD
BRANCH  13  17
HETATM   17  N   UNK N   1      30.207  17.160   3.568  0.00  0.00    -0.385 N 
HETATM   18  H   UNK N   1      30.357  18.117   3.397  0.00  0.00     0.157 HD
HETATM   19  H   UNK N   1      30.058  16.555   2.806  0.00  0.00     0.157 HD
ENDBRANCH  13  17
ENDBRANCH  10  13
ENDBRANCH   1   7
BRANCH   4  20
HETATM   20  C   UNK N   1      35.068  14.757  10.062  0.00  0.00     0.036 A 
HETATM   21  C   UNK N   1      36.051  13.875   9.599  0.00  0.00     0.032 A 
HETATM   22  C   UNK N   1      36.496  12.841  10.422  0.00  0.00     0.039 A 
HETATM   23  C   UNK N   1      35.968  12.685  11.718  0.00  0.00     0.076 A 
HETATM   24  C   UNK N   1      35.011  13.585  12.184  0.00  0.00     0.039 A 
HETATM   25  C   UNK N   1      34.561  14.613  11.357  0.00  0.00     0.032 A 
BRANCH  23  26
HETATM   26  O   UNK N   1      36.371  11.675  12.526  0.00  0.00    -0.311 OA
BRANCH  26  27
HETATM   27  C   UNK N   1      35.873  11.431  13.765  0.00  0.00     0.076 A 
HETATM   28  C   UNK N   1      36.569  11.823  14.923  0.00  0.00     0.037 A 
HETATM   29  C   UNK N   1      36.064  11.526  16.188  0.00  0.00     0.003 A 
HETATM   30  C   UNK N   1      34.859  10.831  16.307  0.00  0.00     0.000 A 
HETATM   31  C   UNK N   1      34.163  10.433  15.161  0.00  0.00     0.003 A 
HETATM   32  C   UNK N   1      34.673  10.727  13.893  0.00  0.00     0.037 A 
ENDBRANCH  26  27
ENDBRANCH  23  26
ENDBRANCH   4  20
TORSDOF 6
ENDMDL
MODEL 6
REMARK VINA RESULT:      -7.4      4.147      7.089
REMARK  6 active torsions:
REMARK  status: ('A' for Active; 'I' for Inactive)
REMARK    1  A    between atoms: N_1  and  C_4 
REMARK    2  A    between atoms: C_4  and  C_5 
REMARK    3  A    between atoms: C_8  and  N_11 
REMARK       I    between atoms: N_11  and  C_12 
REMARK       I    between atoms: C_12  and  N_14 
REMARK    4  A    between atoms: N_14  and  C_15 
REMARK    5  A    between atoms: C_18  and  O_21 
REMARK    6  A    between atoms: O_21  and  C_22 
ROOT
HETATM    1  N   UNK N   1      36.818  14.948  13.543  0.00  0.00    -0.309 N 
HETATM    2  C   UNK N   1      36.817  14.352  14.768  0.00  0.00     0.325 C 
HETATM    3  O   UNK N   1      37.385  14.900  15.701  0.00  0.00    -0.247 OA
HETATM    4  N   UNK N   1      36.184  13.163  14.944  0.00  0.00    -0.309 N 
HETATM    5  H   UNK N   1      37.345  15.773  13.438  0.00  0.00     0.170 HD
HETATM    6  H   UNK N   1      35.821  12.746  14.129  0.00  0.00     0.170 HD
ENDROOT
BRANCH   1   7
HETATM    7  C   UNK N   1      36.110  14.463  12.398  0.00  0.00     0.036 A 
HETATM    8  C   UNK N   1      34.984  15.155  11.940  0.00  0.00     0.030 A 
HETATM    9  C   UNK N   1      34.241  14.657  10.859  0.00  0.00     0.017 A 
HETATM   10  C   UNK N   1      34.618  13.458  10.229  0.00  0.00     0.007 A 
HETATM   11  C   UNK N   1      35.748  12.776  10.681  0.00  0.00     0.017 A 
HETATM   12  C   UNK N   1      36.480  13.271  11.750  0.00  0.00     0.030 A 
BRANCH  10  13
HETATM   13  C   UNK N   1      33.832  12.896   9.113  0.00  0.00     0.102 C 
HETATM   14  N   UNK N   1      34.408  12.221   8.187  0.00  0.00    -0.385 N 
HETATM   15  H   UNK N   1      35.332  11.902   8.310  0.00  0.00     0.157 HD
ATOM     16  HN  UNK N   1      33.909  12.014   7.323  1.00  0.00     0.157 HD
BRANCH  13  17
HETATM   17  N   UNK N   1      32.440  13.134   9.035  0.00  0.00    -0.385 N 
HETATM   18  H   UNK N   1      32.043  13.997   9.295  0.00  0.00     0.157 HD
HETATM   19  H   UNK N   1      31.851  12.415   8.712  0.00  0.00     0.157 HD
ENDBRANCH  13  17
ENDBRANCH  10  13
ENDBRANCH   1   7
BRANCH   4  20
HETATM   20  C   UNK N   1      35.978  12.444  16.144  0.00  0.00     0.036 A 
HETATM   21  C   UNK N   1      35.312  13.002  17.242  0.00  0.00     0.032 A 
HETATM   22  C   UNK N   1      35.102  12.234  18.386  0.00  0.00     0.039 A 
HETATM   23  C   UNK N   1      35.548  10.900  18.441  0.00  0.00     0.076 A 
HETATM   24  C   UNK N   1      36.185  10.342  17.334  0.00  0.00     0.039 A 
HETATM   25  C   UNK N   1      36.401  11.113  16.193  0.00  0.00     0.032 A 
BRANCH  23  26
HETATM   26  O   UNK N   1      35.374  10.143  19.551  0.00  0.00    -0.311 OA
BRANCH  26  27
HETATM   27  C   UNK N   1      34.169   9.764  20.047  0.00  0.00     0.076 A 
HETATM   28  C   UNK N   1      33.704  10.246  21.285  0.00  0.00     0.037 A 
HETATM   29  C   UNK N   1      32.483   9.813  21.801  0.00  0.00     0.003 A 
HETATM   30  C   UNK N   1      31.717   8.891  21.085  0.00  0.00     0.000 A 
HETATM   31  C   UNK N   1      32.174   8.404  19.856  0.00  0.00     0.003 A 
HETATM   32  C   UNK N   1      33.401   8.835  19.342  0.00  0.00     0.037 A 
ENDBRANCH  26  27
ENDBRANCH  23  26
ENDBRANCH   4  20
TORSDOF 6
ENDMDL
MODEL 7
REMARK VINA RESULT:      -7.1      6.300     12.860
REMARK  6 active torsions:
REMARK  status: ('A' for Active; 'I' for Inactive)
REMARK    1  A    between atoms: N_1  and  C_4 
REMARK    2  A    between atoms: C_4  and  C_5 
REMARK    3  A    between atoms: C_8  and  N_11 
REMARK       I    between atoms: N_11  and  C_12 
REMARK       I    between atoms: C_12  and  N_14 
REMARK    4  A    between atoms: N_14  and  C_15 
REMARK    5  A    between atoms: C_18  and  O_21 
REMARK    6  A    between atoms: O_21  and  C_22 
ROOT
HETATM    1  N   UNK N   1      30.430  16.371   3.966  0.00  0.00    -0.309 N 
HETATM    2  C   UNK N   1      29.206  16.892   3.673  0.00  0.00     0.325 C 
HETATM    3  O   UNK N   1      28.554  16.410   2.758  0.00  0.00    -0.247 OA
HETATM    4  N   UNK N   1      28.720  17.932   4.397  0.00  0.00    -0.309 N 
HETATM    5  H   UNK N   1      30.778  15.663   3.376  0.00  0.00     0.170 HD
HETATM    6  H   UNK N   1      29.337  18.317   5.063  0.00  0.00     0.170 HD
ENDROOT
BRANCH   1   7
HETATM    7  C   UNK N   1      31.248  16.775   5.069  0.00  0.00     0.036 A 
HETATM    8  C   UNK N   1      32.544  17.242   4.831  0.00  0.00     0.030 A 
HETATM    9  C   UNK N   1      33.381  17.580   5.905  0.00  0.00     0.017 A 
HETATM   10  C   UNK N   1      32.926  17.449   7.230  0.00  0.00     0.007 A 
HETATM   11  C   UNK N   1      31.629  16.992   7.464  0.00  0.00     0.017 A 
HETATM   12  C   UNK N   1      30.805  16.659   6.398  0.00  0.00     0.030 A 
BRANCH  10  13
HETATM   13  C   UNK N   1      33.800  17.765   8.377  0.00  0.00     0.102 C 
HETATM   14  N   UNK N   1      34.649  18.723   8.303  0.00  0.00    -0.385 N 
HETATM   15  H   UNK N   1      34.593  19.378   7.569  0.00  0.00     0.157 HD
ATOM     16  HN  UNK N   1      35.383  18.807   9.006  1.00  0.00     0.157 HD
BRANCH  13  17
HETATM   17  N   UNK N   1      33.734  16.985   9.555  0.00  0.00    -0.385 N 
HETATM   18  H   UNK N   1      34.487  16.930  10.186  0.00  0.00     0.157 HD
HETATM   19  H   UNK N   1      32.910  16.481   9.749  0.00  0.00     0.157 HD
ENDBRANCH  13  17
ENDBRANCH  10  13
ENDBRANCH   1   7
BRANCH   4  20
HETATM   20  C   UNK N   1      27.445  18.538   4.323  0.00  0.00     0.036 A 
HETATM   21  C   UNK N   1      27.212  19.696   3.573  0.00  0.00     0.032 A 
HETATM   22  C   UNK N   1      25.925  20.228   3.504  0.00  0.00     0.039 A 
HETATM   23  C   UNK N   1      24.859  19.604   4.177  0.00  0.00     0.076 A 
HETATM   24  C   UNK N   1      25.092  18.434   4.898  0.00  0.00     0.039 A 
HETATM   25  C   UNK N   1      26.380  17.907   4.973  0.00  0.00     0.032 A 
BRANCH  23  26
HETATM   26  O   UNK N   1      23.605  20.117   4.141  0.00  0.00    -0.311 OA
BRANCH  26  27
HETATM   27  C   UNK N   1      22.583  19.608   3.407  0.00  0.00     0.076 A 
HETATM   28  C   UNK N   1      21.957  20.367   2.400  0.00  0.00     0.037 A 
HETATM   29  C   UNK N   1      20.880  19.845   1.686  0.00  0.00     0.003 A 
HETATM   30  C   UNK N   1      20.415  18.560   1.973  0.00  0.00     0.000 A 
HETATM   31  C   UNK N   1      21.028  17.801   2.976  0.00  0.00     0.003 A 
HETATM   32  C   UNK N   1      22.105  18.327   3.695  0.00  0.00     0.037 A 
ENDBRANCH  26  27
ENDBRANCH  23  26
ENDBRANCH   4  20
TORSDOF 6
ENDMDL
MODEL 8
REMARK VINA RESULT:      -6.8      7.162     10.503
REMARK  6 active torsions:
REMARK  status: ('A' for Active; 'I' for Inactive)
REMARK    1  A    between atoms: N_1  and  C_4 
REMARK    2  A    between atoms: C_4  and  C_5 
REMARK    3  A    between atoms: C_8  and  N_11 
REMARK       I    between atoms: N_11  and  C_12 
REMARK       I    between atoms: C_12  and  N_14 
REMARK    4  A    between atoms: N_14  and  C_15 
REMARK    5  A    between atoms: C_18  and  O_21 
REMARK    6  A    between atoms: O_21  and  C_22 
ROOT
HETATM    1  N   UNK N   1      23.355  13.048   5.899  0.00  0.00    -0.309 N 
HETATM    2  C   UNK N   1      24.385  13.728   5.322  0.00  0.00     0.325 C 
HETATM    3  O   UNK N   1      24.376  13.914   4.114  0.00  0.00    -0.247 OA
HETATM    4  N   UNK N   1      25.405  14.193   6.088  0.00  0.00    -0.309 N 
HETATM    5  H   UNK N   1      22.670  12.666   5.304  0.00  0.00     0.170 HD
HETATM    6  H   UNK N   1      25.382  13.933   7.037  0.00  0.00     0.170 HD
ENDROOT
BRANCH   1   7
HETATM    7  C   UNK N   1      23.195  12.848   7.308  0.00  0.00     0.036 A 
HETATM    8  C   UNK N   1      23.710  11.692   7.902  0.00  0.00     0.030 A 
HETATM    9  C   UNK N   1      23.505  11.450   9.269  0.00  0.00     0.017 A 
HETATM   10  C   UNK N   1      22.778  12.364  10.052  0.00  0.00     0.007 A 
HETATM   11  C   UNK N   1      22.274  13.522   9.458  0.00  0.00     0.017 A 
HETATM   12  C   UNK N   1      22.479  13.757   8.106  0.00  0.00     0.030 A 
BRANCH  10  13
HETATM   13  C   UNK N   1      22.519  12.114  11.483  0.00  0.00     0.102 C 
HETATM   14  N   UNK N   1      23.478  12.154  12.334  0.00  0.00    -0.385 N 
HETATM   15  H   UNK N   1      24.347  12.542  12.081  0.00  0.00     0.157 HD
ATOM     16  HN  UNK N   1      23.339  11.784  13.274  1.00  0.00     0.157 HD
BRANCH  13  17
HETATM   17  N   UNK N   1      21.214  11.789  11.922  0.00  0.00    -0.385 N 
HETATM   18  H   UNK N   1      20.574  12.479  12.209  0.00  0.00     0.157 HD
HETATM   19  H   UNK N   1      20.939  10.844  11.942  0.00  0.00     0.157 HD
ENDBRANCH  13  17
ENDBRANCH  10  13
ENDBRANCH   1   7
BRANCH   4  20
HETATM   20  C   UNK N   1      26.497  15.004   5.702  0.00  0.00     0.036 A 
HETATM   21  C   UNK N   1      26.504  16.389   5.901  0.00  0.00     0.032 A 
HETATM   22  C   UNK N   1      27.625  17.135   5.536  0.00  0.00     0.039 A 
HETATM   23  C   UNK N   1      28.750  16.502   4.978  0.00  0.00     0.076 A 
HETATM   24  C   UNK N   1      28.749  15.118   4.809  0.00  0.00     0.039 A 
HETATM   25  C   UNK N   1      27.625  14.375   5.166  0.00  0.00     0.032 A 
BRANCH  23  26
HETATM   26  O   UNK N   1      29.841  17.210   4.596  0.00  0.00    -0.311 OA
BRANCH  26  27
HETATM   27  C   UNK N   1      31.015  17.248   5.276  0.00  0.00     0.076 A 
HETATM   28  C   UNK N   1      31.050  17.154   6.680  0.00  0.00     0.037 A 
HETATM   29  C   UNK N   1      32.261  17.238   7.366  0.00  0.00     0.003 A 
HETATM   30  C   UNK N   1      33.449  17.420   6.654  0.00  0.00     0.000 A 
HETATM   31  C   UNK N   1      33.422  17.520   5.260  0.00  0.00     0.003 A 
HETATM   32  C   UNK N   1      32.206  17.441   4.573  0.00  0.00     0.037 A 
ENDBRANCH  26  27
ENDBRANCH  23  26
ENDBRANCH   4  20
TORSDOF 6
ENDMDL
MODEL 9
REMARK VINA RESULT:      -6.7      6.533     10.352
REMARK  6 active torsions:
REMARK  status: ('A' for Active; 'I' for Inactive)
REMARK    1  A    between atoms: N_1  and  C_4 
REMARK    2  A    between atoms: C_4  and  C_5 
REMARK    3  A    between atoms: C_8  and  N_11 
REMARK       I    between atoms: N_11  and  C_12 
REMARK       I    between atoms: C_12  and  N_14 
REMARK    4  A    between atoms: N_14  and  C_15 
REMARK    5  A    between atoms: C_18  and  O_21 
REMARK    6  A    between atoms: O_21  and  C_22 
ROOT
HETATM    1  N   UNK N   1      23.135  15.835   6.153  0.00  0.00    -0.309 N 
HETATM    2  C   UNK N   1      24.493  15.810   6.270  0.00  0.00     0.325 C 
HETATM    3  O   UNK N   1      25.009  15.049   7.076  0.00  0.00    -0.247 OA
HETATM    4  N   UNK N   1      25.256  16.621   5.494  0.00  0.00    -0.309 N 
HETATM    5  H   UNK N   1      22.613  15.284   6.780  0.00  0.00     0.170 HD
HETATM    6  H   UNK N   1      24.764  17.262   4.930  0.00  0.00     0.170 HD
ENDROOT
BRANCH   1   7
HETATM    7  C   UNK N   1      22.413  16.603   5.185  0.00  0.00     0.036 A 
HETATM    8  C   UNK N   1      22.065  17.926   5.475  0.00  0.00     0.030 A 
HETATM    9  C   UNK N   1      21.300  18.671   4.565  0.00  0.00     0.017 A 
HETATM   10  C   UNK N   1      20.874  18.094   3.355  0.00  0.00     0.007 A 
HETATM   11  C   UNK N   1      21.232  16.778   3.063  0.00  0.00     0.017 A 
HETATM   12  C   UNK N   1      21.988  16.045   3.967  0.00  0.00     0.030 A 
BRANCH  10  13
HETATM   13  C   UNK N   1      20.040  18.846   2.397  0.00  0.00     0.102 C 
HETATM   14  N   UNK N   1      20.562  19.747   1.649  0.00  0.00    -0.385 N 
HETATM   15  H   UNK N   1      21.541  19.810   1.559  0.00  0.00     0.157 HD
ATOM     16  HN  UNK N   1      19.961  20.400   1.145  1.00  0.00     0.157 HD
BRANCH  13  17
HETATM   17  N   UNK N   1      18.648  18.605   2.326  0.00  0.00    -0.385 N 
HETATM   18  H   UNK N   1      18.048  18.792   3.084  0.00  0.00     0.157 HD
HETATM   19  H   UNK N   1      18.269  18.238   1.495  0.00  0.00     0.157 HD
ENDBRANCH  13  17
ENDBRANCH  10  13
ENDBRANCH   1   7
BRANCH   4  20
HETATM   20  C   UNK N   1      26.665  16.668   5.389  0.00  0.00     0.036 A 
HETATM   21  C   UNK N   1      27.443  15.510   5.273  0.00  0.00     0.032 A 
HETATM   22  C   UNK N   1      28.826  15.616   5.133  0.00  0.00     0.039 A 
HETATM   23  C   UNK N   1      29.443  16.880   5.098  0.00  0.00     0.076 A 
HETATM   24  C   UNK N   1      28.660  18.031   5.184  0.00  0.00     0.039 A 
HETATM   25  C   UNK N   1      27.278  17.923   5.332  0.00  0.00     0.032 A 
BRANCH  23  26
HETATM   26  O   UNK N   1      30.787  17.006   4.985  0.00  0.00    -0.311 OA
BRANCH  26  27
HETATM   27  C   UNK N   1      31.631  17.249   6.020  0.00  0.00     0.076 A 
HETATM   28  C   UNK N   1      33.013  17.418   5.812  0.00  0.00     0.037 A 
HETATM   29  C   UNK N   1      33.872  17.624   6.891  0.00  0.00     0.003 A 
HETATM   30  C   UNK N   1      33.357  17.660   8.188  0.00  0.00     0.000 A 
HETATM   31  C   UNK N   1      31.986  17.489   8.404  0.00  0.00     0.003 A 
HETATM   32  C   UNK N   1      31.126  17.277   7.322  0.00  0.00     0.037 A 
ENDBRANCH  26  27
ENDBRANCH  23  26
ENDBRANCH   4  20
TORSDOF 6
ENDMDL
