REMARK  9 active torsions:
REMARK  status: ('A' for Active; 'I' for Inactive)
REMARK    1  A    between atoms: C_1  and  C_6 
REMARK       I    between atoms: N_2  and  C_19 
REMARK    2  A    between atoms: C_6  and  O_8 
REMARK    3  A    between atoms: O_8  and  C_9 
REMARK    4  A    between atoms: C_9  and  C_10 
REMARK    5  A    between atoms: C_10  and  C_11 
REMARK    6  A    between atoms: C_11  and  C_17 
REMARK    7  A    between atoms: C_19  and  C_21 
REMARK    8  A    between atoms: C_21  and  C_23 
REMARK    9  A    between atoms: C_23  and  C_26 
ROOT
HETATM    1  C   UNK N   1      -0.945   0.653   0.474  0.00  0.00     0.187 C 
HETATM    2  N   UNK N   1      -1.252   0.104  -0.828  0.00  0.00    -0.332 N 
HETATM    3  C   UNK N   1      -0.777   0.894  -1.929  0.00  0.00     0.127 C 
HETATM    4  C   UNK N   1      -0.419   2.055   0.190  0.00  0.00     0.037 C 
HETATM    5  C   UNK N   1      -0.369   2.223  -1.324  0.00  0.00     0.022 C 
HETATM    6  C   UNK N   1      -1.843  -1.115  -1.041  0.00  0.00     0.291 C 
HETATM    7  O   UNK N   1      -1.813  -1.620  -2.151  0.00  0.00    -0.264 OA
ENDROOT
BRANCH   1   8
HETATM    8  C   UNK N   1       0.142  -0.191   1.117  0.00  0.00     0.282 C 
HETATM    9  O   UNK N   1      -0.113  -1.326   1.493  0.00  0.00    -0.263 OA
BRANCH   8  10
HETATM   10  O   UNK N   1       1.413   0.285   1.205  0.00  0.00    -0.320 OA
BRANCH  10  11
HETATM   11  C   UNK N   1       2.490  -0.503   1.558  0.00  0.00     0.179 C 
BRANCH  11  12
HETATM   12  C   UNK N   1       2.835  -1.506   0.451  0.00  0.00     0.031 C 
BRANCH  12  13
HETATM   13  C   UNK N   1       3.237  -0.823  -0.856  0.00  0.00     0.042 C 
BRANCH  13  14
HETATM   14  C   UNK N   1       4.427   0.060  -0.674  0.00  0.00    -0.043 A 
HETATM   15  C   UNK N   1       5.657  -0.464  -0.267  0.00  0.00     0.010 A 
HETATM   16  C   UNK N   1       6.743   0.391  -0.074  0.00  0.00     0.018 A 
HETATM   17  C   UNK N   1       6.582   1.761  -0.294  0.00  0.00     0.087 A 
HETATM   18  N   UNK N   1       5.378   2.252  -0.698  0.00  0.00    -0.375 N 
HETATM   19  C   UNK N   1       4.307   1.435  -0.890  0.00  0.00     0.094 A 
ATOM     20  HN  UNK N   1       5.276   3.254  -0.860  1.00  0.00     0.164 HD
ENDBRANCH  13  14
ENDBRANCH  12  13
ENDBRANCH  11  12
ENDBRANCH  10  11
ENDBRANCH   8  10
ENDBRANCH   1   8
BRANCH   6  21
HETATM   21  C   UNK N   1      -2.589  -1.824   0.033  0.00  0.00     0.224 C 
HETATM   22  O   UNK N   1      -2.309  -2.989   0.280  0.00  0.00    -0.286 OA
BRANCH  21  23
HETATM   23  C   UNK N   1      -3.829  -1.201   0.667  0.00  0.00     0.022 C 
HETATM   24  C   UNK N   1      -3.627  -1.036   2.164  0.00  0.00     0.023 C 
HETATM   25  C   UNK N   1      -4.998  -2.153   0.437  0.00  0.00     0.023 C 
BRANCH  23  26
HETATM   26  C   UNK N   1      -4.178   0.154   0.017  0.00  0.00     0.012 C 
HETATM   27  C   UNK N   1      -5.485   0.766   0.503  0.00  0.00     0.006 C 
ENDBRANCH  23  26
ENDBRANCH  21  23
ENDBRANCH   6  21
TORSDOF 9
