MODEL 1
REMARK VINA RESULT:      -6.2      0.000      0.000
REMARK  9 active torsions:
REMARK  status: ('A' for Active; 'I' for Inactive)
REMARK    1  A    between atoms: C_1  and  C_6 
REMARK       I    between atoms: N_2  and  C_19 
REMARK    2  A    between atoms: C_6  and  O_8 
REMARK    3  A    between atoms: O_8  and  C_9 
REMARK    4  A    between atoms: C_9  and  C_10 
REMARK    5  A    between atoms: C_10  and  C_11 
REMARK    6  A    between atoms: C_11  and  C_17 
REMARK    7  A    between atoms: C_19  and  C_21 
REMARK    8  A    between atoms: C_21  and  C_23 
REMARK    9  A    between atoms: C_23  and  C_26 
ROOT
HETATM    1  C   UNK N   1      33.725  16.089   8.440  0.00  0.00     0.187 C 
HETATM    2  N   UNK N   1      34.667  15.484   7.525  0.00  0.00    -0.332 N 
HETATM    3  C   UNK N   1      35.617  14.608   8.149  0.00  0.00     0.127 C 
HETATM    4  C   UNK N   1      34.260  15.752   9.827  0.00  0.00     0.037 C 
HETATM    5  C   UNK N   1      35.485  14.865   9.638  0.00  0.00     0.022 C 
HETATM    6  C   UNK N   1      34.625  15.618   6.161  0.00  0.00     0.291 C 
HETATM    7  O   UNK N   1      35.273  14.864   5.455  0.00  0.00    -0.264 OA
ENDROOT
BRANCH   1   8
HETATM    8  C   UNK N   1      32.364  15.448   8.237  0.00  0.00     0.282 C 
HETATM    9  O   UNK N   1      32.265  14.230   8.203  0.00  0.00    -0.263 OA
BRANCH   8  10
HETATM   10  O   UNK N   1      31.248  16.222   8.169  0.00  0.00    -0.320 OA
BRANCH  10  11
HETATM   11  C   UNK N   1      31.278  17.598   8.273  0.00  0.00     0.179 C 
BRANCH  11  12
HETATM   12  C   UNK N   1      29.867  18.178   8.424  0.00  0.00     0.031 C 
BRANCH  12  13
HETATM   13  C   UNK N   1      28.877  17.585   7.421  0.00  0.00     0.042 C 
BRANCH  13  14
HETATM   14  C   UNK N   1      28.346  18.623   6.490  0.00  0.00    -0.043 A 
HETATM   15  C   UNK N   1      27.790  19.810   6.976  0.00  0.00     0.010 A 
HETATM   16  C   UNK N   1      27.272  20.748   6.082  0.00  0.00     0.018 A 
HETATM   17  C   UNK N   1      27.320  20.485   4.711  0.00  0.00     0.087 A 
HETATM   18  N   UNK N   1      27.873  19.327   4.256  0.00  0.00    -0.375 N 
HETATM   19  C   UNK N   1      28.382  18.399   5.111  0.00  0.00     0.094 A 
ATOM     20  HN  UNK N   1      27.906  19.150   3.252  1.00  0.00     0.164 HD
ENDBRANCH  13  14
ENDBRANCH  12  13
ENDBRANCH  11  12
ENDBRANCH  10  11
ENDBRANCH   8  10
ENDBRANCH   1   8
BRANCH   6  21
HETATM   21  C   UNK N   1      33.858  16.710   5.503  0.00  0.00     0.224 C 
HETATM   22  O   UNK N   1      34.008  17.859   5.893  0.00  0.00    -0.286 OA
BRANCH  21  23
HETATM   23  C   UNK N   1      32.738  16.394   4.516  0.00  0.00     0.022 C 
HETATM   24  C   UNK N   1      33.290  16.312   3.103  0.00  0.00     0.023 C 
HETATM   25  C   UNK N   1      31.729  17.536   4.576  0.00  0.00     0.023 C 
BRANCH  23  26
HETATM   26  C   UNK N   1      32.007  15.087   4.887  0.00  0.00     0.012 C 
HETATM   27  C   UNK N   1      30.492  15.216   4.970  0.00  0.00     0.006 C 
ENDBRANCH  23  26
ENDBRANCH  21  23
ENDBRANCH   6  21
TORSDOF 9
ENDMDL
MODEL 2
REMARK VINA RESULT:      -6.0     11.868     15.826
REMARK  9 active torsions:
REMARK  status: ('A' for Active; 'I' for Inactive)
REMARK    1  A    between atoms: C_1  and  C_6 
REMARK       I    between atoms: N_2  and  C_19 
REMARK    2  A    between atoms: C_6  and  O_8 
REMARK    3  A    between atoms: O_8  and  C_9 
REMARK    4  A    between atoms: C_9  and  C_10 
REMARK    5  A    between atoms: C_10  and  C_11 
REMARK    6  A    between atoms: C_11  and  C_17 
REMARK    7  A    between atoms: C_19  and  C_21 
REMARK    8  A    between atoms: C_21  and  C_23 
REMARK    9  A    between atoms: C_23  and  C_26 
ROOT
HETATM    1  C   UNK N   1      27.474  25.288  -5.025  0.00  0.00     0.187 C 
HETATM    2  N   UNK N   1      26.286  25.830  -5.647  0.00  0.00    -0.332 N 
HETATM    3  C   UNK N   1      25.876  25.140  -6.837  0.00  0.00     0.127 C 
HETATM    4  C   UNK N   1      28.021  24.289  -6.038  0.00  0.00     0.037 C 
HETATM    5  C   UNK N   1      27.041  24.242  -7.204  0.00  0.00     0.022 C 
HETATM    6  C   UNK N   1      25.522  26.840  -5.121  0.00  0.00     0.291 C 
HETATM    7  O   UNK N   1      24.402  27.046  -5.557  0.00  0.00    -0.264 OA
ENDROOT
BRANCH   1   8
HETATM    8  C   UNK N   1      27.073  24.568  -3.749  0.00  0.00     0.282 C 
HETATM    9  O   UNK N   1      25.964  24.060  -3.661  0.00  0.00    -0.263 OA
BRANCH   8  10
HETATM   10  O   UNK N   1      27.969  24.423  -2.736  0.00  0.00    -0.320 OA
BRANCH  10  11
HETATM   11  C   UNK N   1      28.224  23.213  -2.123  0.00  0.00     0.179 C 
BRANCH  11  12
HETATM   12  C   UNK N   1      29.729  22.923  -2.062  0.00  0.00     0.031 C 
BRANCH  12  13
HETATM   13  C   UNK N   1      30.509  23.636  -3.166  0.00  0.00     0.042 C 
BRANCH  13  14
HETATM   14  C   UNK N   1      31.049  22.673  -4.171  0.00  0.00    -0.043 A 
HETATM   15  C   UNK N   1      30.260  21.630  -4.665  0.00  0.00     0.010 A 
HETATM   16  C   UNK N   1      30.803  20.726  -5.579  0.00  0.00     0.018 A 
HETATM   17  C   UNK N   1      32.130  20.881  -5.988  0.00  0.00     0.087 A 
HETATM   18  N   UNK N   1      32.880  21.908  -5.502  0.00  0.00    -0.375 N 
HETATM   19  C   UNK N   1      32.370  22.799  -4.609  0.00  0.00     0.094 A 
ATOM     20  HN  UNK N   1      33.846  22.012  -5.814  1.00  0.00     0.164 HD
ENDBRANCH  13  14
ENDBRANCH  12  13
ENDBRANCH  11  12
ENDBRANCH  10  11
ENDBRANCH   8  10
ENDBRANCH   1   8
BRANCH   6  21
HETATM   21  C   UNK N   1      26.044  27.752  -4.069  0.00  0.00     0.224 C 
HETATM   22  O   UNK N   1      25.513  27.751  -2.966  0.00  0.00    -0.286 OA
BRANCH  21  23
HETATM   23  C   UNK N   1      27.069  28.831  -4.405  0.00  0.00     0.022 C 
HETATM   24  C   UNK N   1      28.379  28.554  -3.687  0.00  0.00     0.023 C 
HETATM   25  C   UNK N   1      26.519  30.166  -3.914  0.00  0.00     0.023 C 
BRANCH  23  26
HETATM   26  C   UNK N   1      27.300  28.938  -5.927  0.00  0.00     0.012 C 
HETATM   27  C   UNK N   1      28.695  28.527  -6.381  0.00  0.00     0.006 C 
ENDBRANCH  23  26
ENDBRANCH  21  23
ENDBRANCH   6  21
TORSDOF 9
ENDMDL
MODEL 3
REMARK VINA RESULT:      -6.0     11.589     14.438
REMARK  9 active torsions:
REMARK  status: ('A' for Active; 'I' for Inactive)
REMARK    1  A    between atoms: C_1  and  C_6 
REMARK       I    between atoms: N_2  and  C_19 
REMARK    2  A    between atoms: C_6  and  O_8 
REMARK    3  A    between atoms: O_8  and  C_9 
REMARK    4  A    between atoms: C_9  and  C_10 
REMARK    5  A    between atoms: C_10  and  C_11 
REMARK    6  A    between atoms: C_11  and  C_17 
REMARK    7  A    between atoms: C_19  and  C_21 
REMARK    8  A    between atoms: C_21  and  C_23 
REMARK    9  A    between atoms: C_23  and  C_26 
ROOT
HETATM    1  C   UNK N   1      29.799  24.376  -5.388  0.00  0.00     0.187 C 
HETATM    2  N   UNK N   1      30.282  24.460  -4.027  0.00  0.00    -0.332 N 
HETATM    3  C   UNK N   1      30.243  25.782  -3.468  0.00  0.00     0.127 C 
HETATM    4  C   UNK N   1      29.646  25.824  -5.836  0.00  0.00     0.037 C 
HETATM    5  C   UNK N   1      29.982  26.707  -4.640  0.00  0.00     0.022 C 
HETATM    6  C   UNK N   1      30.649  23.383  -3.262  0.00  0.00     0.291 C 
HETATM    7  O   UNK N   1      30.776  23.510  -2.055  0.00  0.00    -0.264 OA
ENDROOT
BRANCH   1   8
HETATM    8  C   UNK N   1      28.446  23.685  -5.385  0.00  0.00     0.282 C 
HETATM    9  O   UNK N   1      28.278  22.675  -6.053  0.00  0.00    -0.263 OA
BRANCH   8  10
HETATM   10  O   UNK N   1      27.448  24.144  -4.583  0.00  0.00    -0.320 OA
BRANCH  10  11
HETATM   11  C   UNK N   1      26.125  24.184  -4.975  0.00  0.00     0.179 C 
BRANCH  11  12
HETATM   12  C   UNK N   1      25.911  25.184  -6.117  0.00  0.00     0.031 C 
BRANCH  12  13
HETATM   13  C   UNK N   1      25.028  26.362  -5.708  0.00  0.00     0.042 C 
BRANCH  13  14
HETATM   14  C   UNK N   1      25.841  27.543  -5.292  0.00  0.00    -0.043 A 
HETATM   15  C   UNK N   1      25.647  28.149  -4.048  0.00  0.00     0.010 A 
HETATM   16  C   UNK N   1      26.400  29.271  -3.700  0.00  0.00     0.018 A 
HETATM   17  C   UNK N   1      27.341  29.770  -4.604  0.00  0.00     0.087 A 
HETATM   18  N   UNK N   1      27.522  29.161  -5.809  0.00  0.00    -0.375 N 
HETATM   19  C   UNK N   1      26.796  28.068  -6.167  0.00  0.00     0.094 A 
ATOM     20  HN  UNK N   1      28.216  29.533  -6.457  1.00  0.00     0.164 HD
ENDBRANCH  13  14
ENDBRANCH  12  13
ENDBRANCH  11  12
ENDBRANCH  10  11
ENDBRANCH   8  10
ENDBRANCH   1   8
BRANCH   6  21
HETATM   21  C   UNK N   1      30.968  22.062  -3.867  0.00  0.00     0.224 C 
HETATM   22  O   UNK N   1      30.137  21.166  -3.807  0.00  0.00    -0.286 OA
BRANCH  21  23
HETATM   23  C   UNK N   1      32.379  21.745  -4.353  0.00  0.00     0.022 C 
HETATM   24  C   UNK N   1      33.067  23.012  -4.833  0.00  0.00     0.023 C 
HETATM   25  C   UNK N   1      32.260  20.782  -5.530  0.00  0.00     0.023 C 
BRANCH  23  26
HETATM   26  C   UNK N   1      33.217  21.059  -3.254  0.00  0.00     0.012 C 
HETATM   27  C   UNK N   1      34.501  20.412  -3.754  0.00  0.00     0.006 C 
ENDBRANCH  23  26
ENDBRANCH  21  23
ENDBRANCH   6  21
TORSDOF 9
ENDMDL
MODEL 4
REMARK VINA RESULT:      -5.9      7.485     10.967
REMARK  9 active torsions:
REMARK  status: ('A' for Active; 'I' for Inactive)
REMARK    1  A    between atoms: C_1  and  C_6 
REMARK       I    between atoms: N_2  and  C_19 
REMARK    2  A    between atoms: C_6  and  O_8 
REMARK    3  A    between atoms: O_8  and  C_9 
REMARK    4  A    between atoms: C_9  and  C_10 
REMARK    5  A    between atoms: C_10  and  C_11 
REMARK    6  A    between atoms: C_11  and  C_17 
REMARK    7  A    between atoms: C_19  and  C_21 
REMARK    8  A    between atoms: C_21  and  C_23 
REMARK    9  A    between atoms: C_23  and  C_26 
ROOT
HETATM    1  C   UNK N   1      21.879  16.551   5.553  0.00  0.00     0.187 C 
HETATM    2  N   UNK N   1      20.547  15.996   5.646  0.00  0.00    -0.332 N 
HETATM    3  C   UNK N   1      20.307  15.233   6.839  0.00  0.00     0.127 C 
HETATM    4  C   UNK N   1      22.654  15.893   6.688  0.00  0.00     0.037 C 
HETATM    5  C   UNK N   1      21.673  15.018   7.460  0.00  0.00     0.022 C 
HETATM    6  C   UNK N   1      19.535  16.243   4.754  0.00  0.00     0.291 C 
HETATM    7  O   UNK N   1      18.383  15.969   5.050  0.00  0.00    -0.264 OA
ENDROOT
BRANCH   1   8
HETATM    8  C   UNK N   1      21.800  18.052   5.778  0.00  0.00     0.282 C 
HETATM    9  O   UNK N   1      21.406  18.485   6.851  0.00  0.00    -0.263 OA
BRANCH   8  10
HETATM   10  O   UNK N   1      22.238  18.909   4.818  0.00  0.00    -0.320 OA
BRANCH  10  11
HETATM   11  C   UNK N   1      23.211  18.576   3.896  0.00  0.00     0.179 C 
BRANCH  11  12
HETATM   12  C   UNK N   1      24.082  19.786   3.541  0.00  0.00     0.031 C 
BRANCH  12  13
HETATM   13  C   UNK N   1      25.558  19.422   3.384  0.00  0.00     0.042 C 
BRANCH  13  14
HETATM   14  C   UNK N   1      26.304  19.575   4.668  0.00  0.00    -0.043 A 
HETATM   15  C   UNK N   1      26.639  20.839   5.160  0.00  0.00     0.010 A 
HETATM   16  C   UNK N   1      27.364  20.950   6.347  0.00  0.00     0.018 A 
HETATM   17  C   UNK N   1      27.743  19.790   7.027  0.00  0.00     0.087 A 
HETATM   18  N   UNK N   1      27.401  18.567   6.536  0.00  0.00    -0.375 N 
HETATM   19  C   UNK N   1      26.695  18.438   5.380  0.00  0.00     0.094 A 
ATOM     20  HN  UNK N   1      27.680  17.728   7.046  1.00  0.00     0.164 HD
ENDBRANCH  13  14
ENDBRANCH  12  13
ENDBRANCH  11  12
ENDBRANCH  10  11
ENDBRANCH   8  10
ENDBRANCH   1   8
BRANCH   6  21
HETATM   21  C   UNK N   1      19.801  16.780   3.393  0.00  0.00     0.224 C 
HETATM   22  O   UNK N   1      19.470  17.928   3.133  0.00  0.00    -0.286 OA
BRANCH  21  23
HETATM   23  C   UNK N   1      20.270  15.862   2.268  0.00  0.00     0.022 C 
HETATM   24  C   UNK N   1      19.925  16.468   0.918  0.00  0.00     0.023 C 
HETATM   25  C   UNK N   1      19.528  14.537   2.409  0.00  0.00     0.023 C 
BRANCH  23  26
HETATM   26  C   UNK N   1      21.783  15.578   2.361  0.00  0.00     0.012 C 
HETATM   27  C   UNK N   1      22.132  14.140   2.722  0.00  0.00     0.006 C 
ENDBRANCH  23  26
ENDBRANCH  21  23
ENDBRANCH   6  21
TORSDOF 9
ENDMDL
MODEL 5
REMARK VINA RESULT:      -5.9     11.615     15.469
REMARK  9 active torsions:
REMARK  status: ('A' for Active; 'I' for Inactive)
REMARK    1  A    between atoms: C_1  and  C_6 
REMARK       I    between atoms: N_2  and  C_19 
REMARK    2  A    between atoms: C_6  and  O_8 
REMARK    3  A    between atoms: O_8  and  C_9 
REMARK    4  A    between atoms: C_9  and  C_10 
REMARK    5  A    between atoms: C_10  and  C_11 
REMARK    6  A    between atoms: C_11  and  C_17 
REMARK    7  A    between atoms: C_19  and  C_21 
REMARK    8  A    between atoms: C_21  and  C_23 
REMARK    9  A    between atoms: C_23  and  C_26 
ROOT
HETATM    1  C   UNK N   1      26.548  25.949  -4.087  0.00  0.00     0.187 C 
HETATM    2  N   UNK N   1      26.120  26.563  -5.325  0.00  0.00    -0.332 N 
HETATM    3  C   UNK N   1      25.784  27.954  -5.208  0.00  0.00     0.127 C 
HETATM    4  C   UNK N   1      26.241  26.985  -3.013  0.00  0.00     0.037 C 
HETATM    5  C   UNK N   1      25.706  28.226  -3.719  0.00  0.00     0.022 C 
HETATM    6  C   UNK N   1      26.125  25.941  -6.547  0.00  0.00     0.291 C 
HETATM    7  O   UNK N   1      26.018  26.602  -7.566  0.00  0.00    -0.264 OA
ENDROOT
BRANCH   1   8
HETATM    8  C   UNK N   1      28.044  25.698  -4.157  0.00  0.00     0.282 C 
HETATM    9  O   UNK N   1      28.807  26.632  -4.360  0.00  0.00    -0.263 OA
BRANCH   8  10
HETATM   10  O   UNK N   1      28.540  24.454  -3.920  0.00  0.00    -0.320 OA
BRANCH  10  11
HETATM   11  C   UNK N   1      28.080  23.641  -2.903  0.00  0.00     0.179 C 
BRANCH  11  12
HETATM   12  C   UNK N   1      29.239  22.983  -2.147  0.00  0.00     0.031 C 
BRANCH  12  13
HETATM   13  C   UNK N   1      30.601  23.303  -2.764  0.00  0.00     0.042 C 
BRANCH  13  14
HETATM   14  C   UNK N   1      31.192  22.112  -3.443  0.00  0.00    -0.043 A 
HETATM   15  C   UNK N   1      30.599  21.564  -4.584  0.00  0.00     0.010 A 
HETATM   16  C   UNK N   1      31.157  20.431  -5.177  0.00  0.00     0.018 A 
HETATM   17  C   UNK N   1      32.305  19.863  -4.620  0.00  0.00     0.087 A 
HETATM   18  N   UNK N   1      32.874  20.415  -3.513  0.00  0.00    -0.375 N 
HETATM   19  C   UNK N   1      32.344  21.519  -2.919  0.00  0.00     0.094 A 
ATOM     20  HN  UNK N   1      33.715  19.993  -3.120  1.00  0.00     0.164 HD
ENDBRANCH  13  14
ENDBRANCH  12  13
ENDBRANCH  11  12
ENDBRANCH  10  11
ENDBRANCH   8  10
ENDBRANCH   1   8
BRANCH   6  21
HETATM   21  C   UNK N   1      26.191  24.460  -6.674  0.00  0.00     0.224 C 
HETATM   22  O   UNK N   1      25.406  23.774  -6.033  0.00  0.00    -0.286 OA
BRANCH  21  23
HETATM   23  C   UNK N   1      27.350  23.788  -7.404  0.00  0.00     0.022 C 
HETATM   24  C   UNK N   1      28.533  24.737  -7.499  0.00  0.00     0.023 C 
HETATM   25  C   UNK N   1      26.880  23.456  -8.817  0.00  0.00     0.023 C 
BRANCH  23  26
HETATM   26  C   UNK N   1      27.767  22.472  -6.716  0.00  0.00     0.012 C 
HETATM   27  C   UNK N   1      28.252  21.389  -7.670  0.00  0.00     0.006 C 
ENDBRANCH  23  26
ENDBRANCH  21  23
ENDBRANCH   6  21
TORSDOF 9
ENDMDL
MODEL 6
REMARK VINA RESULT:      -5.8      1.464      3.387
REMARK  9 active torsions:
REMARK  status: ('A' for Active; 'I' for Inactive)
REMARK    1  A    between atoms: C_1  and  C_6 
REMARK       I    between atoms: N_2  and  C_19 
REMARK    2  A    between atoms: C_6  and  O_8 
REMARK    3  A    between atoms: O_8  and  C_9 
REMARK    4  A    between atoms: C_9  and  C_10 
REMARK    5  A    between atoms: C_10  and  C_11 
REMARK    6  A    between atoms: C_11  and  C_17 
REMARK    7  A    between atoms: C_19  and  C_21 
REMARK    8  A    between atoms: C_21  and  C_23 
REMARK    9  A    between atoms: C_23  and  C_26 
ROOT
HETATM    1  C   UNK N   1      31.735  15.819   7.166  0.00  0.00     0.187 C 
HETATM    2  N   UNK N   1      32.758  16.658   6.582  0.00  0.00    -0.332 N 
HETATM    3  C   UNK N   1      32.375  17.282   5.347  0.00  0.00     0.127 C 
HETATM    4  C   UNK N   1      30.665  15.703   6.087  0.00  0.00     0.037 C 
HETATM    5  C   UNK N   1      31.100  16.581   4.920  0.00  0.00     0.022 C 
HETATM    6  C   UNK N   1      33.959  16.951   7.175  0.00  0.00     0.291 C 
HETATM    7  O   UNK N   1      34.636  17.874   6.754  0.00  0.00    -0.264 OA
ENDROOT
BRANCH   1   8
HETATM    8  C   UNK N   1      31.168  16.518   8.389  0.00  0.00     0.282 C 
HETATM    9  O   UNK N   1      31.271  15.995   9.490  0.00  0.00    -0.263 OA
BRANCH   8  10
HETATM   10  O   UNK N   1      30.615  17.755   8.273  0.00  0.00    -0.320 OA
BRANCH  10  11
HETATM   11  C   UNK N   1      29.786  18.303   9.232  0.00  0.00     0.179 C 
BRANCH  11  12
HETATM   12  C   UNK N   1      28.427  18.693   8.638  0.00  0.00     0.031 C 
BRANCH  12  13
HETATM   13  C   UNK N   1      28.100  17.919   7.362  0.00  0.00     0.042 C 
BRANCH  13  14
HETATM   14  C   UNK N   1      27.794  18.835   6.224  0.00  0.00    -0.043 A 
HETATM   15  C   UNK N   1      27.353  20.142   6.450  0.00  0.00     0.010 A 
HETATM   16  C   UNK N   1      27.044  20.965   5.366  0.00  0.00     0.018 A 
HETATM   17  C   UNK N   1      27.183  20.467   4.068  0.00  0.00     0.087 A 
HETATM   18  N   UNK N   1      27.621  19.194   3.868  0.00  0.00    -0.375 N 
HETATM   19  C   UNK N   1      27.926  18.375   4.911  0.00  0.00     0.094 A 
ATOM     20  HN  UNK N   1      27.723  18.845   2.914  1.00  0.00     0.164 HD
ENDBRANCH  13  14
ENDBRANCH  12  13
ENDBRANCH  11  12
ENDBRANCH  10  11
ENDBRANCH   8  10
ENDBRANCH   1   8
BRANCH   6  21
HETATM   21  C   UNK N   1      34.505  16.130   8.289  0.00  0.00     0.224 C 
HETATM   22  O   UNK N   1      34.632  16.639   9.394  0.00  0.00    -0.286 OA
BRANCH  21  23
HETATM   23  C   UNK N   1      35.109  14.755   8.024  0.00  0.00     0.022 C 
HETATM   24  C   UNK N   1      36.269  14.498   8.972  0.00  0.00     0.023 C 
HETATM   25  C   UNK N   1      35.640  14.747   6.594  0.00  0.00     0.023 C 
BRANCH  23  26
HETATM   26  C   UNK N   1      34.052  13.638   8.149  0.00  0.00     0.012 C 
HETATM   27  C   UNK N   1      33.888  12.784   6.899  0.00  0.00     0.006 C 
ENDBRANCH  23  26
ENDBRANCH  21  23
ENDBRANCH   6  21
TORSDOF 9
ENDMDL
MODEL 7
REMARK VINA RESULT:      -5.8      9.521     11.674
REMARK  9 active torsions:
REMARK  status: ('A' for Active; 'I' for Inactive)
REMARK    1  A    between atoms: C_1  and  C_6 
REMARK       I    between atoms: N_2  and  C_19 
REMARK    2  A    between atoms: C_6  and  O_8 
REMARK    3  A    between atoms: O_8  and  C_9 
REMARK    4  A    between atoms: C_9  and  C_10 
REMARK    5  A    between atoms: C_10  and  C_11 
REMARK    6  A    between atoms: C_11  and  C_17 
REMARK    7  A    between atoms: C_19  and  C_21 
REMARK    8  A    between atoms: C_21  and  C_23 
REMARK    9  A    between atoms: C_23  and  C_26 
ROOT
HETATM    1  C   UNK N   1      21.173  15.567   6.951  0.00  0.00     0.187 C 
HETATM    2  N   UNK N   1      20.562  15.247   8.222  0.00  0.00    -0.332 N 
HETATM    3  C   UNK N   1      19.874  16.345   8.840  0.00  0.00     0.127 C 
HETATM    4  C   UNK N   1      21.068  17.083   6.841  0.00  0.00     0.037 C 
HETATM    5  C   UNK N   1      20.299  17.575   8.061  0.00  0.00     0.022 C 
HETATM    6  C   UNK N   1      20.521  13.992   8.774  0.00  0.00     0.291 C 
HETATM    7  O   UNK N   1      19.758  13.758   9.696  0.00  0.00    -0.264 OA
ENDROOT
BRANCH   1   8
HETATM    8  C   UNK N   1      20.372  14.907   5.843  0.00  0.00     0.282 C 
HETATM    9  O   UNK N   1      19.150  14.919   5.887  0.00  0.00    -0.263 OA
BRANCH   8  10
HETATM   10  O   UNK N   1      21.008  14.371   4.767  0.00  0.00    -0.320 OA
BRANCH  10  11
HETATM   11  C   UNK N   1      22.353  14.556   4.518  0.00  0.00     0.179 C 
BRANCH  11  12
HETATM   12  C   UNK N   1      22.577  15.493   3.325  0.00  0.00     0.031 C 
BRANCH  12  13
HETATM   13  C   UNK N   1      21.276  15.848   2.605  0.00  0.00     0.042 C 
BRANCH  13  14
HETATM   14  C   UNK N   1      20.939  17.295   2.755  0.00  0.00    -0.043 A 
HETATM   15  C   UNK N   1      21.750  18.148   3.509  0.00  0.00     0.010 A 
HETATM   16  C   UNK N   1      21.392  19.489   3.658  0.00  0.00     0.018 A 
HETATM   17  C   UNK N   1      20.226  19.957   3.048  0.00  0.00     0.087 A 
HETATM   18  N   UNK N   1      19.453  19.112   2.311  0.00  0.00    -0.375 N 
HETATM   19  C   UNK N   1      19.784  17.801   2.155  0.00  0.00     0.094 A 
ATOM     20  HN  UNK N   1      18.606  19.468   1.867  1.00  0.00     0.164 HD
ENDBRANCH  13  14
ENDBRANCH  12  13
ENDBRANCH  11  12
ENDBRANCH  10  11
ENDBRANCH   8  10
ENDBRANCH   1   8
BRANCH   6  21
HETATM   21  C   UNK N   1      21.436  12.908   8.327  0.00  0.00     0.224 C 
HETATM   22  O   UNK N   1      21.041  12.104   7.494  0.00  0.00    -0.286 OA
BRANCH  21  23
HETATM   23  C   UNK N   1      22.758  12.653   9.045  0.00  0.00     0.022 C 
HETATM   24  C   UNK N   1      23.306  11.287   8.667  0.00  0.00     0.023 C 
HETATM   25  C   UNK N   1      22.483  12.668  10.545  0.00  0.00     0.023 C 
BRANCH  23  26
HETATM   26  C   UNK N   1      23.793  13.755   8.735  0.00  0.00     0.012 C 
HETATM   27  C   UNK N   1      24.589  13.527   7.457  0.00  0.00     0.006 C 
ENDBRANCH  23  26
ENDBRANCH  21  23
ENDBRANCH   6  21
TORSDOF 9
ENDMDL
MODEL 8
REMARK VINA RESULT:      -5.8     12.458     16.126
REMARK  9 active torsions:
REMARK  status: ('A' for Active; 'I' for Inactive)
REMARK    1  A    between atoms: C_1  and  C_6 
REMARK       I    between atoms: N_2  and  C_19 
REMARK    2  A    between atoms: C_6  and  O_8 
REMARK    3  A    between atoms: O_8  and  C_9 
REMARK    4  A    between atoms: C_9  and  C_10 
REMARK    5  A    between atoms: C_10  and  C_11 
REMARK    6  A    between atoms: C_11  and  C_17 
REMARK    7  A    between atoms: C_19  and  C_21 
REMARK    8  A    between atoms: C_21  and  C_23 
REMARK    9  A    between atoms: C_23  and  C_26 
ROOT
HETATM    1  C   UNK N   1      25.745  25.860  -6.545  0.00  0.00     0.187 C 
HETATM    2  N   UNK N   1      26.740  25.725  -7.586  0.00  0.00    -0.332 N 
HETATM    3  C   UNK N   1      27.666  26.819  -7.664  0.00  0.00     0.127 C 
HETATM    4  C   UNK N   1      25.898  27.291  -6.046  0.00  0.00     0.037 C 
HETATM    5  C   UNK N   1      27.072  27.910  -6.794  0.00  0.00     0.022 C 
HETATM    6  C   UNK N   1      26.894  24.616  -8.379  0.00  0.00     0.291 C 
HETATM    7  O   UNK N   1      27.915  24.471  -9.030  0.00  0.00    -0.264 OA
ENDROOT
BRANCH   1   8
HETATM    8  C   UNK N   1      26.069  24.881  -5.429  0.00  0.00     0.282 C 
HETATM    9  O   UNK N   1      25.245  24.039  -5.102  0.00  0.00    -0.263 OA
BRANCH   8  10
HETATM   10  O   UNK N   1      27.299  24.892  -4.848  0.00  0.00    -0.320 OA
BRANCH  10  11
HETATM   11  C   UNK N   1      27.690  23.971  -3.896  0.00  0.00     0.179 C 
BRANCH  11  12
HETATM   12  C   UNK N   1      29.213  23.964  -3.720  0.00  0.00     0.031 C 
BRANCH  12  13
HETATM   13  C   UNK N   1      29.688  22.872  -2.762  0.00  0.00     0.042 C 
BRANCH  13  14
HETATM   14  C   UNK N   1      30.624  21.920  -3.431  0.00  0.00    -0.043 A 
HETATM   15  C   UNK N   1      30.263  21.266  -4.612  0.00  0.00     0.010 A 
HETATM   16  C   UNK N   1      31.146  20.357  -5.197  0.00  0.00     0.018 A 
HETATM   17  C   UNK N   1      32.381  20.117  -4.591  0.00  0.00     0.087 A 
HETATM   18  N   UNK N   1      32.718  20.770  -3.445  0.00  0.00    -0.375 N 
HETATM   19  C   UNK N   1      31.871  21.658  -2.858  0.00  0.00     0.094 A 
ATOM     20  HN  UNK N   1      33.626  20.589  -3.015  1.00  0.00     0.164 HD
ENDBRANCH  13  14
ENDBRANCH  12  13
ENDBRANCH  11  12
ENDBRANCH  10  11
ENDBRANCH   8  10
ENDBRANCH   1   8
BRANCH   6  21
HETATM   21  C   UNK N   1      25.816  23.602  -8.527  0.00  0.00     0.224 C 
HETATM   22  O   UNK N   1      24.673  23.978  -8.747  0.00  0.00    -0.286 OA
BRANCH  21  23
HETATM   23  C   UNK N   1      26.071  22.135  -8.193  0.00  0.00     0.022 C 
HETATM   24  C   UNK N   1      26.248  21.328  -9.468  0.00  0.00     0.023 C 
HETATM   25  C   UNK N   1      24.847  21.607  -7.451  0.00  0.00     0.023 C 
BRANCH  23  26
HETATM   26  C   UNK N   1      27.299  21.968  -7.274  0.00  0.00     0.012 C 
HETATM   27  C   UNK N   1      28.396  21.080  -7.846  0.00  0.00     0.006 C 
ENDBRANCH  23  26
ENDBRANCH  21  23
ENDBRANCH   6  21
TORSDOF 9
ENDMDL
MODEL 9
REMARK VINA RESULT:      -5.7      1.609      4.546
REMARK  9 active torsions:
REMARK  status: ('A' for Active; 'I' for Inactive)
REMARK    1  A    between atoms: C_1  and  C_6 
REMARK       I    between atoms: N_2  and  C_19 
REMARK    2  A    between atoms: C_6  and  O_8 
REMARK    3  A    between atoms: O_8  and  C_9 
REMARK    4  A    between atoms: C_9  and  C_10 
REMARK    5  A    between atoms: C_10  and  C_11 
REMARK    6  A    between atoms: C_11  and  C_17 
REMARK    7  A    between atoms: C_19  and  C_21 
REMARK    8  A    between atoms: C_21  and  C_23 
REMARK    9  A    between atoms: C_23  and  C_26 
ROOT
HETATM    1  C   UNK N   1      33.609  16.817   7.953  0.00  0.00     0.187 C 
HETATM    2  N   UNK N   1      32.670  15.886   8.539  0.00  0.00    -0.332 N 
HETATM    3  C   UNK N   1      31.363  16.434   8.773  0.00  0.00     0.127 C 
HETATM    4  C   UNK N   1      32.910  18.170   8.025  0.00  0.00     0.037 C 
HETATM    5  C   UNK N   1      31.517  17.932   8.595  0.00  0.00     0.022 C 
HETATM    6  C   UNK N   1      32.926  14.558   8.765  0.00  0.00     0.291 C 
HETATM    7  O   UNK N   1      32.006  13.792   8.998  0.00  0.00    -0.264 OA
ENDROOT
BRANCH   1   8
HETATM    8  C   UNK N   1      33.844  16.428   6.504  0.00  0.00     0.282 C 
HETATM    9  O   UNK N   1      34.984  16.366   6.069  0.00  0.00    -0.263 OA
BRANCH   8  10
HETATM   10  O   UNK N   1      32.794  16.075   5.713  0.00  0.00    -0.320 OA
BRANCH  10  11
HETATM   11  C   UNK N   1      32.548  16.656   4.486  0.00  0.00     0.179 C 
BRANCH  11  12
HETATM   12  C   UNK N   1      31.333  17.590   4.543  0.00  0.00     0.031 C 
BRANCH  12  13
HETATM   13  C   UNK N   1      30.146  16.965   5.276  0.00  0.00     0.042 C 
BRANCH  13  14
HETATM   14  C   UNK N   1      29.053  17.957   5.502  0.00  0.00    -0.043 A 
HETATM   15  C   UNK N   1      28.657  18.836   4.489  0.00  0.00     0.010 A 
HETATM   16  C   UNK N   1      27.655  19.773   4.741  0.00  0.00     0.018 A 
HETATM   17  C   UNK N   1      27.060  19.817   6.004  0.00  0.00     0.087 A 
HETATM   18  N   UNK N   1      27.454  18.947   6.975  0.00  0.00    -0.375 N 
HETATM   19  C   UNK N   1      28.430  18.027   6.750  0.00  0.00     0.094 A 
ATOM     20  HN  UNK N   1      27.007  18.987   7.892  1.00  0.00     0.164 HD
ENDBRANCH  13  14
ENDBRANCH  12  13
ENDBRANCH  11  12
ENDBRANCH  10  11
ENDBRANCH   8  10
ENDBRANCH   1   8
BRANCH   6  21
HETATM   21  C   UNK N   1      34.313  14.022   8.804  0.00  0.00     0.224 C 
HETATM   22  O   UNK N   1      34.716  13.351   7.864  0.00  0.00    -0.286 OA
BRANCH  21  23
HETATM   23  C   UNK N   1      35.150  14.107  10.077  0.00  0.00     0.022 C 
HETATM   24  C   UNK N   1      34.384  14.848  11.161  0.00  0.00     0.023 C 
HETATM   25  C   UNK N   1      36.414  14.895   9.752  0.00  0.00     0.023 C 
BRANCH  23  26
HETATM   26  C   UNK N   1      35.570  12.708  10.574  0.00  0.00     0.012 C 
HETATM   27  C   UNK N   1      35.230  12.430  12.032  0.00  0.00     0.006 C 
ENDBRANCH  23  26
ENDBRANCH  21  23
ENDBRANCH   6  21
TORSDOF 9
ENDMDL
