MODEL 1
REMARK VINA RESULT:      -6.3      0.000      0.000
REMARK  11 active torsions:
REMARK  status: ('A' for Active; 'I' for Inactive)
REMARK    1  A    between atoms: C_1  and  O_2 
REMARK    2  A    between atoms: C_1  and  C_3 
REMARK    3  A    between atoms: P_12  and  O_2 
REMARK    4  A    between atoms: C_4  and  C_6 
REMARK    5  A    between atoms: C_6  and  C_7 
REMARK    6  A    between atoms: C_7  and  C_8 
REMARK    7  A    between atoms: P_12  and  O_14 
REMARK    8  A    between atoms: P_12  and  O_15 
REMARK    9  A    between atoms: O_15  and  P_16 
REMARK   10  A    between atoms: P_16  and  O_18 
REMARK   11  A    between atoms: P_16  and  O_19 
ROOT
HETATM    1  O   UNK N   1      34.448  15.276  11.370  0.00  0.00    -0.293 OA
ENDROOT
BRANCH   1   2
HETATM    2  C   UNK N   1      34.996  14.026  11.675  0.00  0.00     0.208 C 
BRANCH   2   3
HETATM    3  C   UNK N   1      35.516  13.947  13.084  0.00  0.00     0.002 C 
HETATM    4  C   UNK N   1      36.513  13.149  13.491  0.00  0.00    -0.085 C 
HETATM    5  C   UNK N   1      37.244  12.250  12.544  0.00  0.00     0.043 C 
BRANCH   4   6
HETATM    6  C   UNK N   1      36.836  13.089  14.954  0.00  0.00     0.037 C 
BRANCH   6   7
HETATM    7  C   UNK N   1      35.608  13.080  15.857  0.00  0.00     0.031 C 
BRANCH   7   8
HETATM    8  C   UNK N   1      35.515  11.836  16.688  0.00  0.00    -0.024 C 
HETATM    9  C   UNK N   1      34.794  10.770  16.327  0.00  0.00    -0.091 C 
HETATM   10  C   UNK N   1      34.041  10.728  15.036  0.00  0.00     0.042 C 
HETATM   11  C   UNK N   1      34.745   9.590  17.233  0.00  0.00     0.042 C 
ENDBRANCH   7   8
ENDBRANCH   6   7
ENDBRANCH   4   6
ENDBRANCH   2   3
ENDBRANCH   1   2
BRANCH   1  12
HETATM   12  P   UNK N   1      35.563  15.977  10.223  0.00  0.00     0.402 P 
HETATM   13  O   UNK N   1      35.450  15.170   8.900  0.00  0.00    -0.631 OA
BRANCH  12  14
HETATM   14  O   UNK N   1      37.204  15.839  10.781  0.00  0.00    -0.307 OA
HETATM   15  H   UNK N   1      38.084  16.194  10.982  0.00  0.00     0.222 HD
ENDBRANCH  12  14
BRANCH  12  16
HETATM   16  O   UNK N   1      35.122  17.624   9.844  0.00  0.00    -0.195 OA
BRANCH  16  17
HETATM   17  P   UNK N   1      34.415  17.582   8.251  0.00  0.00     0.399 P 
HETATM   18  O   UNK N   1      33.273  18.628   8.144  0.00  0.00    -0.631 OA
BRANCH  17  19
HETATM   19  O   UNK N   1      33.248  17.012   9.404  0.00  0.00    -0.307 OA
HETATM   20  H   UNK N   1      32.898  17.485  10.175  0.00  0.00     0.222 HD
ENDBRANCH  17  19
BRANCH  17  21
HETATM   21  O   UNK N   1      35.231  19.096   8.504  0.00  0.00    -0.307 OA
HETATM   22  H   UNK N   1      35.241  19.667   9.288  0.00  0.00     0.222 HD
ENDBRANCH  17  21
ENDBRANCH  16  17
ENDBRANCH  12  16
ENDBRANCH   1  12
TORSDOF 11
ENDMDL
MODEL 2
REMARK VINA RESULT:      -5.8      1.026      1.451
REMARK  11 active torsions:
REMARK  status: ('A' for Active; 'I' for Inactive)
REMARK    1  A    between atoms: C_1  and  O_2 
REMARK    2  A    between atoms: C_1  and  C_3 
REMARK    3  A    between atoms: P_12  and  O_2 
REMARK    4  A    between atoms: C_4  and  C_6 
REMARK    5  A    between atoms: C_6  and  C_7 
REMARK    6  A    between atoms: C_7  and  C_8 
REMARK    7  A    between atoms: P_12  and  O_14 
REMARK    8  A    between atoms: P_12  and  O_15 
REMARK    9  A    between atoms: O_15  and  P_16 
REMARK   10  A    between atoms: P_16  and  O_18 
REMARK   11  A    between atoms: P_16  and  O_19 
ROOT
HETATM    1  O   UNK N   1      34.462  15.154  11.266  0.00  0.00    -0.293 OA
ENDROOT
BRANCH   1   2
HETATM    2  C   UNK N   1      34.758  13.792  11.150  0.00  0.00     0.208 C 
BRANCH   2   3
HETATM    3  C   UNK N   1      34.985  13.131  12.481  0.00  0.00     0.002 C 
HETATM    4  C   UNK N   1      36.035  12.354  12.783  0.00  0.00    -0.085 C 
HETATM    5  C   UNK N   1      37.128  12.082  11.799  0.00  0.00     0.043 C 
BRANCH   4   6
HETATM    6  C   UNK N   1      36.059  11.662  14.113  0.00  0.00     0.037 C 
BRANCH   6   7
HETATM    7  C   UNK N   1      35.816  12.592  15.297  0.00  0.00     0.031 C 
BRANCH   7   8
HETATM    8  C   UNK N   1      35.687  11.850  16.593  0.00  0.00    -0.024 C 
HETATM    9  C   UNK N   1      35.414  12.454  17.754  0.00  0.00    -0.091 C 
HETATM   10  C   UNK N   1      35.184  13.929  17.841  0.00  0.00     0.042 C 
HETATM   11  C   UNK N   1      35.329  11.633  18.993  0.00  0.00     0.042 C 
ENDBRANCH   7   8
ENDBRANCH   6   7
ENDBRANCH   4   6
ENDBRANCH   2   3
ENDBRANCH   1   2
BRANCH   1  12
HETATM   12  P   UNK N   1      35.577  15.941  10.177  0.00  0.00     0.402 P 
HETATM   13  O   UNK N   1      35.539  15.174   8.825  0.00  0.00    -0.631 OA
BRANCH  12  14
HETATM   14  O   UNK N   1      37.206  15.857  10.779  0.00  0.00    -0.307 OA
HETATM   15  H   UNK N   1      38.153  15.663  10.696  0.00  0.00     0.222 HD
ENDBRANCH  12  14
BRANCH  12  16
HETATM   16  O   UNK N   1      35.074  17.578   9.836  0.00  0.00    -0.195 OA
BRANCH  16  17
HETATM   17  P   UNK N   1      34.397  17.554   8.230  0.00  0.00     0.399 P 
HETATM   18  O   UNK N   1      33.266  18.610   8.108  0.00  0.00    -0.631 OA
BRANCH  17  19
HETATM   19  O   UNK N   1      33.202  16.987   9.356  0.00  0.00    -0.307 OA
HETATM   20  H   UNK N   1      33.295  16.275  10.009  0.00  0.00     0.222 HD
ENDBRANCH  17  19
BRANCH  17  21
HETATM   21  O   UNK N   1      35.221  19.058   8.508  0.00  0.00    -0.307 OA
HETATM   22  H   UNK N   1      34.991  19.785   9.108  0.00  0.00     0.222 HD
ENDBRANCH  17  21
ENDBRANCH  16  17
ENDBRANCH  12  16
ENDBRANCH   1  12
TORSDOF 11
ENDMDL
MODEL 3
REMARK VINA RESULT:      -5.6      1.830      3.241
REMARK  11 active torsions:
REMARK  status: ('A' for Active; 'I' for Inactive)
REMARK    1  A    between atoms: C_1  and  O_2 
REMARK    2  A    between atoms: C_1  and  C_3 
REMARK    3  A    between atoms: P_12  and  O_2 
REMARK    4  A    between atoms: C_4  and  C_6 
REMARK    5  A    between atoms: C_6  and  C_7 
REMARK    6  A    between atoms: C_7  and  C_8 
REMARK    7  A    between atoms: P_12  and  O_14 
REMARK    8  A    between atoms: P_12  and  O_15 
REMARK    9  A    between atoms: O_15  and  P_16 
REMARK   10  A    between atoms: P_16  and  O_18 
REMARK   11  A    between atoms: P_16  and  O_19 
ROOT
HETATM    1  O   UNK N   1      35.525  14.048  13.154  0.00  0.00    -0.293 OA
ENDROOT
BRANCH   1   2
HETATM    2  C   UNK N   1      36.592  13.969  14.054  0.00  0.00     0.208 C 
BRANCH   2   3
HETATM    3  C   UNK N   1      36.643  12.655  14.783  0.00  0.00     0.002 C 
HETATM    4  C   UNK N   1      35.961  12.369  15.901  0.00  0.00    -0.085 C 
HETATM    5  C   UNK N   1      35.036  13.357  16.538  0.00  0.00     0.043 C 
BRANCH   4   6
HETATM    6  C   UNK N   1      36.211  11.057  16.582  0.00  0.00     0.037 C 
BRANCH   6   7
HETATM    7  C   UNK N   1      35.159   9.995  16.281  0.00  0.00     0.031 C 
BRANCH   7   8
HETATM    8  C   UNK N   1      35.428   9.267  14.999  0.00  0.00    -0.024 C 
HETATM    9  C   UNK N   1      34.770   9.522  13.863  0.00  0.00    -0.091 C 
HETATM   10  C   UNK N   1      33.726  10.590  13.781  0.00  0.00     0.042 C 
HETATM   11  C   UNK N   1      35.092   8.728  12.647  0.00  0.00     0.042 C 
ENDBRANCH   7   8
ENDBRANCH   6   7
ENDBRANCH   4   6
ENDBRANCH   2   3
ENDBRANCH   1   2
BRANCH   1  12
HETATM   12  P   UNK N   1      36.201  13.546  11.625  0.00  0.00     0.402 P 
HETATM   13  O   UNK N   1      35.609  12.151  11.282  0.00  0.00    -0.631 OA
BRANCH  12  14
HETATM   14  O   UNK N   1      37.928  13.369  11.731  0.00  0.00    -0.307 OA
HETATM   15  H   UNK N   1      38.838  13.699  11.673  0.00  0.00     0.222 HD
ENDBRANCH  12  14
BRANCH  12  16
HETATM   16  O   UNK N   1      35.717  14.624  10.339  0.00  0.00    -0.195 OA
BRANCH  16  17
HETATM   17  P   UNK N   1      35.269  16.124  11.106  0.00  0.00     0.399 P 
HETATM   18  O   UNK N   1      35.672  17.326  10.211  0.00  0.00    -0.631 OA
BRANCH  17  19
HETATM   19  O   UNK N   1      37.001  16.012  11.051  0.00  0.00    -0.307 OA
HETATM   20  H   UNK N   1      37.612  15.918  11.799  0.00  0.00     0.222 HD
ENDBRANCH  17  19
BRANCH  17  21
HETATM   21  O   UNK N   1      34.328  15.885   9.665  0.00  0.00    -0.307 OA
HETATM   22  H   UNK N   1      33.424  16.173   9.464  0.00  0.00     0.222 HD
ENDBRANCH  17  21
ENDBRANCH  16  17
ENDBRANCH  12  16
ENDBRANCH   1  12
TORSDOF 11
ENDMDL
MODEL 4
REMARK VINA RESULT:      -5.6      2.409      4.005
REMARK  11 active torsions:
REMARK  status: ('A' for Active; 'I' for Inactive)
REMARK    1  A    between atoms: C_1  and  O_2 
REMARK    2  A    between atoms: C_1  and  C_3 
REMARK    3  A    between atoms: P_12  and  O_2 
REMARK    4  A    between atoms: C_4  and  C_6 
REMARK    5  A    between atoms: C_6  and  C_7 
REMARK    6  A    between atoms: C_7  and  C_8 
REMARK    7  A    between atoms: P_12  and  O_14 
REMARK    8  A    between atoms: P_12  and  O_15 
REMARK    9  A    between atoms: O_15  and  P_16 
REMARK   10  A    between atoms: P_16  and  O_18 
REMARK   11  A    between atoms: P_16  and  O_19 
ROOT
HETATM    1  O   UNK N   1      34.803  13.191  14.616  0.00  0.00    -0.293 OA
ENDROOT
BRANCH   1   2
HETATM    2  C   UNK N   1      35.786  13.351  15.598  0.00  0.00     0.208 C 
BRANCH   2   3
HETATM    3  C   UNK N   1      35.378  12.778  16.927  0.00  0.00     0.002 C 
HETATM    4  C   UNK N   1      35.312  13.469  18.074  0.00  0.00    -0.085 C 
HETATM    5  C   UNK N   1      35.624  14.931  18.136  0.00  0.00     0.043 C 
BRANCH   4   6
HETATM    6  C   UNK N   1      35.010  12.730  19.343  0.00  0.00     0.037 C 
BRANCH   6   7
HETATM    7  C   UNK N   1      35.663  11.355  19.427  0.00  0.00     0.031 C 
BRANCH   7   8
HETATM    8  C   UNK N   1      34.686  10.277  19.785  0.00  0.00    -0.024 C 
HETATM    9  C   UNK N   1      34.298   9.329  18.925  0.00  0.00    -0.091 C 
HETATM   10  C   UNK N   1      34.842   9.257  17.534  0.00  0.00     0.042 C 
HETATM   11  C   UNK N   1      33.304   8.314  19.369  0.00  0.00     0.042 C 
ENDBRANCH   7   8
ENDBRANCH   6   7
ENDBRANCH   4   6
ENDBRANCH   2   3
ENDBRANCH   1   2
BRANCH   1  12
HETATM   12  P   UNK N   1      35.659  13.372  13.104  0.00  0.00     0.402 P 
HETATM   13  O   UNK N   1      35.004  12.412  12.072  0.00  0.00    -0.631 OA
BRANCH  12  14
HETATM   14  O   UNK N   1      37.326  12.904  13.268  0.00  0.00    -0.307 OA
HETATM   15  H   UNK N   1      38.034  12.301  13.542  0.00  0.00     0.222 HD
ENDBRANCH  12  14
BRANCH  12  16
HETATM   16  O   UNK N   1      35.478  14.988  12.468  0.00  0.00    -0.195 OA
BRANCH  16  17
HETATM   17  P   UNK N   1      35.366  14.820  10.737  0.00  0.00     0.399 P 
HETATM   18  O   UNK N   1      34.825  16.129  10.104  0.00  0.00    -0.631 OA
BRANCH  17  19
HETATM   19  O   UNK N   1      33.765  14.946  11.398  0.00  0.00    -0.307 OA
HETATM   20  H   UNK N   1      32.970  14.464  11.121  0.00  0.00     0.222 HD
ENDBRANCH  17  19
BRANCH  17  21
HETATM   21  O   UNK N   1      36.579  15.994  11.146  0.00  0.00    -0.307 OA
HETATM   22  H   UNK N   1      37.414  15.877  11.626  0.00  0.00     0.222 HD
ENDBRANCH  17  21
ENDBRANCH  16  17
ENDBRANCH  12  16
ENDBRANCH   1  12
TORSDOF 11
ENDMDL
MODEL 5
REMARK VINA RESULT:      -5.6      6.801      9.612
REMARK  11 active torsions:
REMARK  status: ('A' for Active; 'I' for Inactive)
REMARK    1  A    between atoms: C_1  and  O_2 
REMARK    2  A    between atoms: C_1  and  C_3 
REMARK    3  A    between atoms: P_12  and  O_2 
REMARK    4  A    between atoms: C_4  and  C_6 
REMARK    5  A    between atoms: C_6  and  C_7 
REMARK    6  A    between atoms: C_7  and  C_8 
REMARK    7  A    between atoms: P_12  and  O_14 
REMARK    8  A    between atoms: P_12  and  O_15 
REMARK    9  A    between atoms: O_15  and  P_16 
REMARK   10  A    between atoms: P_16  and  O_18 
REMARK   11  A    between atoms: P_16  and  O_19 
ROOT
HETATM    1  O   UNK N   1      32.909  16.390   8.933  0.00  0.00    -0.293 OA
ENDROOT
BRANCH   1   2
HETATM    2  C   UNK N   1      32.310  17.566   8.471  0.00  0.00     0.208 C 
BRANCH   2   3
HETATM    3  C   UNK N   1      30.920  17.343   7.943  0.00  0.00     0.002 C 
HETATM    4  C   UNK N   1      29.798  17.808   8.511  0.00  0.00    -0.085 C 
HETATM    5  C   UNK N   1      29.828  18.643   9.753  0.00  0.00     0.043 C 
BRANCH   4   6
HETATM    6  C   UNK N   1      28.476  17.397   7.937  0.00  0.00     0.037 C 
BRANCH   6   7
HETATM    7  C   UNK N   1      28.128  18.095   6.627  0.00  0.00     0.031 C 
BRANCH   7   8
HETATM    8  C   UNK N   1      27.685  19.512   6.832  0.00  0.00    -0.024 C 
HETATM    9  C   UNK N   1      27.488  20.368   5.823  0.00  0.00    -0.091 C 
HETATM   10  C   UNK N   1      27.668  19.957   4.396  0.00  0.00     0.042 C 
HETATM   11  C   UNK N   1      27.071  21.763   6.129  0.00  0.00     0.042 C 
ENDBRANCH   7   8
ENDBRANCH   6   7
ENDBRANCH   4   6
ENDBRANCH   2   3
ENDBRANCH   1   2
BRANCH   1  12
HETATM   12  P   UNK N   1      34.611  16.608   8.611  0.00  0.00     0.402 P 
HETATM   13  O   UNK N   1      35.002  18.038   9.077  0.00  0.00    -0.631 OA
BRANCH  12  14
HETATM   14  O   UNK N   1      34.945  16.504   6.908  0.00  0.00    -0.307 OA
HETATM   15  H   UNK N   1      34.792  16.736   5.978  0.00  0.00     0.222 HD
ENDBRANCH  12  14
BRANCH  12  16
HETATM   16  O   UNK N   1      35.576  15.495   9.550  0.00  0.00    -0.195 OA
BRANCH  16  17
HETATM   17  P   UNK N   1      35.434  16.009  11.209  0.00  0.00     0.399 P 
HETATM   18  O   UNK N   1      36.067  14.954  12.154  0.00  0.00    -0.631 OA
BRANCH  17  19
HETATM   19  O   UNK N   1      34.436  14.609  10.963  0.00  0.00    -0.307 OA
HETATM   20  H   UNK N   1      34.648  13.687  11.175  0.00  0.00     0.222 HD
ENDBRANCH  17  19
BRANCH  17  21
HETATM   21  O   UNK N   1      37.104  15.992  10.730  0.00  0.00    -0.307 OA
HETATM   22  H   UNK N   1      37.884  16.323  11.203  0.00  0.00     0.222 HD
ENDBRANCH  17  21
ENDBRANCH  16  17
ENDBRANCH  12  16
ENDBRANCH   1  12
TORSDOF 11
ENDMDL
MODEL 6
REMARK VINA RESULT:      -5.5     19.474     21.489
REMARK  11 active torsions:
REMARK  status: ('A' for Active; 'I' for Inactive)
REMARK    1  A    between atoms: C_1  and  O_2 
REMARK    2  A    between atoms: C_1  and  C_3 
REMARK    3  A    between atoms: P_12  and  O_2 
REMARK    4  A    between atoms: C_4  and  C_6 
REMARK    5  A    between atoms: C_6  and  C_7 
REMARK    6  A    between atoms: C_7  and  C_8 
REMARK    7  A    between atoms: P_12  and  O_14 
REMARK    8  A    between atoms: P_12  and  O_15 
REMARK    9  A    between atoms: O_15  and  P_16 
REMARK   10  A    between atoms: P_16  and  O_18 
REMARK   11  A    between atoms: P_16  and  O_19 
ROOT
HETATM    1  O   UNK N   1      29.573  22.725  -4.197  0.00  0.00    -0.293 OA
ENDROOT
BRANCH   1   2
HETATM    2  C   UNK N   1      29.255  23.861  -4.947  0.00  0.00     0.208 C 
BRANCH   2   3
HETATM    3  C   UNK N   1      27.860  24.358  -4.688  0.00  0.00     0.002 C 
HETATM    4  C   UNK N   1      26.781  24.032  -5.413  0.00  0.00    -0.085 C 
HETATM    5  C   UNK N   1      26.862  23.091  -6.574  0.00  0.00     0.043 C 
BRANCH   4   6
HETATM    6  C   UNK N   1      25.478  24.707  -5.108  0.00  0.00     0.037 C 
BRANCH   6   7
HETATM    7  C   UNK N   1      25.264  26.010  -5.870  0.00  0.00     0.031 C 
BRANCH   7   8
HETATM    8  C   UNK N   1      25.409  27.218  -4.995  0.00  0.00    -0.024 C 
HETATM    9  C   UNK N   1      26.342  28.155  -5.194  0.00  0.00    -0.091 C 
HETATM   10  C   UNK N   1      27.303  28.080  -6.337  0.00  0.00     0.042 C 
HETATM   11  C   UNK N   1      26.420  29.307  -4.256  0.00  0.00     0.042 C 
ENDBRANCH   7   8
ENDBRANCH   6   7
ENDBRANCH   4   6
ENDBRANCH   2   3
ENDBRANCH   1   2
BRANCH   1  12
HETATM   12  P   UNK N   1      30.305  23.350  -2.741  0.00  0.00     0.402 P 
HETATM   13  O   UNK N   1      29.269  23.207  -1.591  0.00  0.00    -0.631 OA
BRANCH  12  14
HETATM   14  O   UNK N   1      30.677  25.041  -2.902  0.00  0.00    -0.307 OA
HETATM   15  H   UNK N   1      31.212  25.785  -3.220  0.00  0.00     0.222 HD
ENDBRANCH  12  14
BRANCH  12  16
HETATM   16  O   UNK N   1      31.697  22.401  -2.279  0.00  0.00    -0.195 OA
BRANCH  16  17
HETATM   17  P   UNK N   1      32.111  21.438  -3.671  0.00  0.00     0.399 P 
HETATM   18  O   UNK N   1      33.628  21.559  -3.976  0.00  0.00    -0.631 OA
BRANCH  17  19
HETATM   19  O   UNK N   1      32.301  23.118  -4.069  0.00  0.00    -0.307 OA
HETATM   20  H   UNK N   1      32.301  23.874  -3.461  0.00  0.00     0.222 HD
ENDBRANCH  17  19
BRANCH  17  21
HETATM   21  O   UNK N   1      32.861  20.783  -2.247  0.00  0.00    -0.307 OA
HETATM   22  H   UNK N   1      33.723  20.991  -1.854  0.00  0.00     0.222 HD
ENDBRANCH  17  21
ENDBRANCH  16  17
ENDBRANCH  12  16
ENDBRANCH   1  12
TORSDOF 11
ENDMDL
MODEL 7
REMARK VINA RESULT:      -5.4      5.902      8.589
REMARK  11 active torsions:
REMARK  status: ('A' for Active; 'I' for Inactive)
REMARK    1  A    between atoms: C_1  and  O_2 
REMARK    2  A    between atoms: C_1  and  C_3 
REMARK    3  A    between atoms: P_12  and  O_2 
REMARK    4  A    between atoms: C_4  and  C_6 
REMARK    5  A    between atoms: C_6  and  C_7 
REMARK    6  A    between atoms: C_7  and  C_8 
REMARK    7  A    between atoms: P_12  and  O_14 
REMARK    8  A    between atoms: P_12  and  O_15 
REMARK    9  A    between atoms: O_15  and  P_16 
REMARK   10  A    between atoms: P_16  and  O_18 
REMARK   11  A    between atoms: P_16  and  O_19 
ROOT
HETATM    1  O   UNK N   1      34.552  15.423   9.199  0.00  0.00    -0.293 OA
ENDROOT
BRANCH   1   2
HETATM    2  C   UNK N   1      33.958  16.641   8.855  0.00  0.00     0.208 C 
BRANCH   2   3
HETATM    3  C   UNK N   1      32.712  16.468   8.031  0.00  0.00     0.002 C 
HETATM    4  C   UNK N   1      32.572  16.861   6.757  0.00  0.00    -0.085 C 
HETATM    5  C   UNK N   1      33.690  17.508   6.001  0.00  0.00     0.043 C 
BRANCH   4   6
HETATM    6  C   UNK N   1      31.227  16.733   6.107  0.00  0.00     0.037 C 
BRANCH   6   7
HETATM    7  C   UNK N   1      30.060  16.821   7.083  0.00  0.00     0.031 C 
BRANCH   7   8
HETATM    8  C   UNK N   1      29.106  17.925   6.740  0.00  0.00    -0.024 C 
HETATM    9  C   UNK N   1      28.519  18.696   7.662  0.00  0.00    -0.091 C 
HETATM   10  C   UNK N   1      28.801  18.530   9.122  0.00  0.00     0.042 C 
HETATM   11  C   UNK N   1      27.568  19.752   7.223  0.00  0.00     0.042 C 
ENDBRANCH   7   8
ENDBRANCH   6   7
ENDBRANCH   4   6
ENDBRANCH   2   3
ENDBRANCH   1   2
BRANCH   1  12
HETATM   12  P   UNK N   1      35.444  15.766  10.660  0.00  0.00     0.402 P 
HETATM   13  O   UNK N   1      35.278  17.280  10.971  0.00  0.00    -0.631 OA
BRANCH  12  14
HETATM   14  O   UNK N   1      37.142  15.460  10.445  0.00  0.00    -0.307 OA
HETATM   15  H   UNK N   1      38.069  15.732  10.370  0.00  0.00     0.222 HD
ENDBRANCH  12  14
BRANCH  12  16
HETATM   16  O   UNK N   1      34.776  14.901  12.022  0.00  0.00    -0.195 OA
BRANCH  16  17
HETATM   17  P   UNK N   1      36.011  13.787  12.543  0.00  0.00     0.399 P 
HETATM   18  O   UNK N   1      35.969  13.621  14.086  0.00  0.00    -0.631 OA
BRANCH  17  19
HETATM   19  O   UNK N   1      36.402  15.377  13.122  0.00  0.00    -0.307 OA
HETATM   20  H   UNK N   1      35.788  16.090  13.355  0.00  0.00     0.222 HD
ENDBRANCH  17  19
BRANCH  17  21
HETATM   21  O   UNK N   1      34.437  13.111  12.832  0.00  0.00    -0.307 OA
HETATM   22  H   UNK N   1      33.561  13.499  12.676  0.00  0.00     0.222 HD
ENDBRANCH  17  21
ENDBRANCH  16  17
ENDBRANCH  12  16
ENDBRANCH   1  12
TORSDOF 11
ENDMDL
MODEL 8
REMARK VINA RESULT:      -5.3      1.408      2.285
REMARK  11 active torsions:
REMARK  status: ('A' for Active; 'I' for Inactive)
REMARK    1  A    between atoms: C_1  and  O_2 
REMARK    2  A    between atoms: C_1  and  C_3 
REMARK    3  A    between atoms: P_12  and  O_2 
REMARK    4  A    between atoms: C_4  and  C_6 
REMARK    5  A    between atoms: C_6  and  C_7 
REMARK    6  A    between atoms: C_7  and  C_8 
REMARK    7  A    between atoms: P_12  and  O_14 
REMARK    8  A    between atoms: P_12  and  O_15 
REMARK    9  A    between atoms: O_15  and  P_16 
REMARK   10  A    between atoms: P_16  and  O_18 
REMARK   11  A    between atoms: P_16  and  O_19 
ROOT
HETATM    1  O   UNK N   1      35.730  14.737   9.426  0.00  0.00    -0.293 OA
ENDROOT
BRANCH   1   2
HETATM    2  C   UNK N   1      36.737  14.841  10.391  0.00  0.00     0.208 C 
BRANCH   2   3
HETATM    3  C   UNK N   1      37.081  13.518  11.018  0.00  0.00     0.002 C 
HETATM    4  C   UNK N   1      36.853  13.193  12.298  0.00  0.00    -0.085 C 
HETATM    5  C   UNK N   1      36.190  14.139  13.250  0.00  0.00     0.043 C 
BRANCH   4   6
HETATM    6  C   UNK N   1      37.366  11.880  12.810  0.00  0.00     0.037 C 
BRANCH   6   7
HETATM    7  C   UNK N   1      36.267  10.891  13.183  0.00  0.00     0.031 C 
BRANCH   7   8
HETATM    8  C   UNK N   1      36.140  10.706  14.665  0.00  0.00    -0.024 C 
HETATM    9  C   UNK N   1      34.962  10.638  15.293  0.00  0.00    -0.091 C 
HETATM   10  C   UNK N   1      33.667  10.713  14.549  0.00  0.00     0.042 C 
HETATM   11  C   UNK N   1      34.940  10.477  16.772  0.00  0.00     0.042 C 
ENDBRANCH   7   8
ENDBRANCH   6   7
ENDBRANCH   4   6
ENDBRANCH   2   3
ENDBRANCH   1   2
BRANCH   1  12
HETATM   12  P   UNK N   1      34.467  15.801   9.992  0.00  0.00     0.402 P 
HETATM   13  O   UNK N   1      35.146  17.028  10.660  0.00  0.00    -0.631 OA
BRANCH  12  14
HETATM   14  O   UNK N   1      33.486  15.024  11.199  0.00  0.00    -0.307 OA
HETATM   15  H   UNK N   1      33.088  14.956  12.080  0.00  0.00     0.222 HD
ENDBRANCH  12  14
BRANCH  12  16
HETATM   16  O   UNK N   1      33.521  16.418   8.659  0.00  0.00    -0.195 OA
BRANCH  16  17
HETATM   17  P   UNK N   1      34.298  17.895   8.156  0.00  0.00     0.399 P 
HETATM   18  O   UNK N   1      34.144  18.088   6.623  0.00  0.00    -0.631 OA
BRANCH  17  19
HETATM   19  O   UNK N   1      35.170  16.545   7.498  0.00  0.00    -0.307 OA
HETATM   20  H   UNK N   1      35.354  15.694   7.926  0.00  0.00     0.222 HD
ENDBRANCH  17  19
BRANCH  17  21
HETATM   21  O   UNK N   1      32.579  18.020   7.937  0.00  0.00    -0.307 OA
HETATM   22  H   UNK N   1      32.060  18.725   7.519  0.00  0.00     0.222 HD
ENDBRANCH  17  21
ENDBRANCH  16  17
ENDBRANCH  12  16
ENDBRANCH   1  12
TORSDOF 11
ENDMDL
MODEL 9
REMARK VINA RESULT:      -5.3      1.698      2.669
REMARK  11 active torsions:
REMARK  status: ('A' for Active; 'I' for Inactive)
REMARK    1  A    between atoms: C_1  and  O_2 
REMARK    2  A    between atoms: C_1  and  C_3 
REMARK    3  A    between atoms: P_12  and  O_2 
REMARK    4  A    between atoms: C_4  and  C_6 
REMARK    5  A    between atoms: C_6  and  C_7 
REMARK    6  A    between atoms: C_7  and  C_8 
REMARK    7  A    between atoms: P_12  and  O_14 
REMARK    8  A    between atoms: P_12  and  O_15 
REMARK    9  A    between atoms: O_15  and  P_16 
REMARK   10  A    between atoms: P_16  and  O_18 
REMARK   11  A    between atoms: P_16  and  O_19 
ROOT
HETATM    1  O   UNK N   1      33.225  14.885  10.255  0.00  0.00    -0.293 OA
ENDROOT
BRANCH   1   2
HETATM    2  C   UNK N   1      34.269  13.985  10.018  0.00  0.00     0.208 C 
BRANCH   2   3
HETATM    3  C   UNK N   1      34.914  13.494  11.284  0.00  0.00     0.002 C 
HETATM    4  C   UNK N   1      35.780  14.196  12.028  0.00  0.00    -0.085 C 
HETATM    5  C   UNK N   1      36.181  15.592  11.668  0.00  0.00     0.043 C 
BRANCH   4   6
HETATM    6  C   UNK N   1      36.435  13.525  13.197  0.00  0.00     0.037 C 
BRANCH   6   7
HETATM    7  C   UNK N   1      35.580  13.511  14.459  0.00  0.00     0.031 C 
BRANCH   7   8
HETATM    8  C   UNK N   1      35.773  12.265  15.270  0.00  0.00    -0.024 C 
HETATM    9  C   UNK N   1      35.554  12.211  16.588  0.00  0.00    -0.091 C 
HETATM   10  C   UNK N   1      35.064  13.398  17.354  0.00  0.00     0.042 C 
HETATM   11  C   UNK N   1      35.796  10.932  17.309  0.00  0.00     0.042 C 
ENDBRANCH   7   8
ENDBRANCH   6   7
ENDBRANCH   4   6
ENDBRANCH   2   3
ENDBRANCH   1   2
BRANCH   1  12
HETATM   12  P   UNK N   1      32.768  15.457   8.670  0.00  0.00     0.402 P 
HETATM   13  O   UNK N   1      31.587  16.451   8.849  0.00  0.00    -0.631 OA
BRANCH  12  14
HETATM   14  O   UNK N   1      32.204  14.150   7.671  0.00  0.00    -0.307 OA
HETATM   15  H   UNK N   1      31.679  13.353   7.501  0.00  0.00     0.222 HD
ENDBRANCH  12  14
BRANCH  12  16
HETATM   16  O   UNK N   1      34.068  16.354   7.927  0.00  0.00    -0.195 OA
BRANCH  16  17
HETATM   17  P   UNK N   1      33.614  18.034   8.019  0.00  0.00     0.399 P 
HETATM   18  O   UNK N   1      34.868  18.917   8.255  0.00  0.00    -0.631 OA
BRANCH  17  19
HETATM   19  O   UNK N   1      34.175  17.514   9.578  0.00  0.00    -0.307 OA
HETATM   20  H   UNK N   1      34.852  16.846   9.770  0.00  0.00     0.222 HD
ENDBRANCH  17  19
BRANCH  17  21
HETATM   21  O   UNK N   1      34.577  17.753   6.600  0.00  0.00    -0.307 OA
HETATM   22  H   UNK N   1      34.303  17.689   5.672  0.00  0.00     0.222 HD
ENDBRANCH  17  21
ENDBRANCH  16  17
ENDBRANCH  12  16
ENDBRANCH   1  12
TORSDOF 11
ENDMDL
