REMARK  5 active torsions:
REMARK  status: ('A' for Active; 'I' for Inactive)
REMARK    1  A    between atoms: O_1  and  C_2 
REMARK    2  A    between atoms: C_3  and  C_2 
REMARK    3  A    between atoms: C_4  and  O_5 
REMARK    4  A    between atoms: C_6  and  O_7 
REMARK    5  A    between atoms: C_8  and  N_10 
REMARK       I    between atoms: C_18  and  N_19 
ROOT
HETATM    1  N   UNK N   1      -0.080  -1.063   0.248  0.00  0.00    -0.297 N 
HETATM    2  C   UNK N   1      -0.475  -2.365   0.262  0.00  0.00     0.188 A 
HETATM    3  N   UNK N   1      -1.811  -2.481   0.018  0.00  0.00    -0.345 N 
ATOM      4  HN  UNK N   1      -2.364  -3.337  -0.043  1.00  0.00     0.167 HD
HETATM    5  C   UNK N   1      -2.237  -1.210  -0.124  0.00  0.00     0.147 A 
HETATM    6  C   UNK N   1      -3.512  -0.715  -0.341  0.00  0.00     0.290 A 
HETATM    7  O   UNK N   1      -4.472  -1.455  -0.448  0.00  0.00    -0.265 OA
HETATM    8  N   UNK N   1      -3.667   0.654  -0.416  0.00  0.00    -0.154 N 
HETATM    9  C   UNK N   1      -2.588   1.492  -0.275  0.00  0.00     0.680 A 
HETATM   10  N   UNK N   1      -2.769   2.888  -0.351  0.00  0.00    -0.234 N 
HETATM   11  N   UNK N   1      -1.339   0.982  -0.053  0.00  0.00    -0.174 N 
ATOM     12  HN  UNK N   1      -0.535   1.598   0.062  1.00  0.00     0.186 HD
HETATM   13  C   UNK N   1      -1.198  -0.367   0.011  0.00  0.00     0.159 A 
HETATM   14  H   UNK N   1      -4.562   1.034  -0.573  0.00  0.00     0.187 HD
HETATM   15  H   UNK N   1      -1.988   3.485  -0.404  0.00  0.00     0.174 HD
HETATM   16  H   UNK N   1      -3.678   3.266  -0.351  0.00  0.00     0.174 HD
ENDROOT
BRANCH   1  17
HETATM   17  C   UNK N   1       1.242  -0.524   0.574  0.00  0.00     0.262 C 
HETATM   18  C   UNK N   1       2.398  -1.351   0.074  0.00  0.00     0.198 C 
HETATM   19  C   UNK N   1       3.469  -0.347   0.333  0.00  0.00     0.182 C 
HETATM   20  C   UNK N   1       2.793   0.911  -0.181  0.00  0.00     0.179 C 
HETATM   21  O   UNK N   1       1.410   0.773   0.051  0.00  0.00    -0.353 OA
BRANCH  18  22
HETATM   22  O   UNK N   1       2.583  -2.487   0.863  0.00  0.00    -0.388 OA
HETATM   23  H   UNK N   1       1.964  -2.993   1.412  0.00  0.00     0.210 HD
ENDBRANCH  18  22
BRANCH  19  24
HETATM   24  O   UNK N   1       4.639  -0.639  -0.369  0.00  0.00    -0.390 OA
HETATM   25  H   UNK N   1       4.869  -1.445  -0.857  0.00  0.00     0.210 HD
ENDBRANCH  19  24
BRANCH  20  26
HETATM   26  C   UNK N   1       3.298   2.146   0.546  0.00  0.00     0.198 C 
BRANCH  26  27
HETATM   27  O   UNK N   1       4.526   2.549   0.026  0.00  0.00    -0.398 OA
HETATM   28  H   UNK N   1       5.197   1.948  -0.336  0.00  0.00     0.209 HD
ENDBRANCH  26  27
ENDBRANCH  20  26
ENDBRANCH   1  17
TORSDOF 5
