MODEL 1
REMARK VINA RESULT:      -6.8      0.000      0.000
REMARK  5 active torsions:
REMARK  status: ('A' for Active; 'I' for Inactive)
REMARK    1  A    between atoms: O_1  and  C_2 
REMARK    2  A    between atoms: C_3  and  C_2 
REMARK    3  A    between atoms: C_4  and  O_5 
REMARK    4  A    between atoms: C_6  and  O_7 
REMARK    5  A    between atoms: C_8  and  N_10 
REMARK       I    between atoms: C_18  and  N_19 
ROOT
HETATM    1  N   UNK N   1      31.233  17.130   5.996  0.00  0.00    -0.297 N 
HETATM    2  C   UNK N   1      31.182  17.096   4.637  0.00  0.00     0.188 A 
HETATM    3  N   UNK N   1      29.974  17.524   4.174  0.00  0.00    -0.345 N 
ATOM      4  HN  UNK N   1      29.671  17.613   3.203  1.00  0.00     0.167 HD
HETATM    5  C   UNK N   1      29.268  17.802   5.289  0.00  0.00     0.147 A 
HETATM    6  C   UNK N   1      27.959  18.230   5.432  0.00  0.00     0.290 A 
HETATM    7  O   UNK N   1      27.246  18.431   4.467  0.00  0.00    -0.265 OA
HETATM    8  N   UNK N   1      27.477  18.409   6.713  0.00  0.00    -0.154 N 
HETATM    9  C   UNK N   1      28.274  18.163   7.804  0.00  0.00     0.680 A 
HETATM   10  N   UNK N   1      27.760  18.347   9.104  0.00  0.00    -0.234 N 
HETATM   11  N   UNK N   1      29.561  17.732   7.639  0.00  0.00    -0.174 N 
ATOM     12  HN  UNK N   1      30.155  17.538   8.445  1.00  0.00     0.186 HD
HETATM   13  C   UNK N   1      30.026  17.568   6.374  0.00  0.00     0.159 A 
HETATM   14  H   UNK N   1      26.551  18.716   6.845  0.00  0.00     0.187 HD
HETATM   15  H   UNK N   1      28.363  18.322   9.882  0.00  0.00     0.174 HD
HETATM   16  H   UNK N   1      26.797  18.502   9.234  0.00  0.00     0.174 HD
ENDROOT
BRANCH   1  17
HETATM   17  C   UNK N   1      32.309  16.648   6.866  0.00  0.00     0.262 C 
HETATM   18  C   UNK N   1      33.301  17.704   7.280  0.00  0.00     0.198 C 
HETATM   19  C   UNK N   1      33.990  16.905   8.334  0.00  0.00     0.182 C 
HETATM   20  C   UNK N   1      32.794  16.276   9.024  0.00  0.00     0.179 C 
HETATM   21  O   UNK N   1      31.796  16.081   8.048  0.00  0.00    -0.353 OA
BRANCH  18  22
HETATM   22  O   UNK N   1      34.177  18.009   6.238  0.00  0.00    -0.388 OA
HETATM   23  H   UNK N   1      34.377  17.541   5.412  0.00  0.00     0.210 HD
ENDBRANCH  18  22
BRANCH  19  24
HETATM   24  O   UNK N   1      34.731  17.712   9.198  0.00  0.00    -0.390 OA
HETATM   25  H   UNK N   1      34.480  18.554   9.608  0.00  0.00     0.210 HD
ENDBRANCH  19  24
BRANCH  20  26
HETATM   26  C   UNK N   1      33.155  14.935   9.642  0.00  0.00     0.198 C 
BRANCH  26  27
HETATM   27  O   UNK N   1      33.089  15.005  11.031  0.00  0.00    -0.398 OA
HETATM   28  H   UNK N   1      32.583  15.668  11.528  0.00  0.00     0.209 HD
ENDBRANCH  26  27
ENDBRANCH  20  26
ENDBRANCH   1  17
TORSDOF 5
ENDMDL
MODEL 2
REMARK VINA RESULT:      -6.3      6.318     10.465
REMARK  5 active torsions:
REMARK  status: ('A' for Active; 'I' for Inactive)
REMARK    1  A    between atoms: O_1  and  C_2 
REMARK    2  A    between atoms: C_3  and  C_2 
REMARK    3  A    between atoms: C_4  and  O_5 
REMARK    4  A    between atoms: C_6  and  O_7 
REMARK    5  A    between atoms: C_8  and  N_10 
REMARK       I    between atoms: C_18  and  N_19 
ROOT
HETATM    1  N   UNK N   1      23.053  19.275   3.485  0.00  0.00    -0.297 N 
HETATM    2  C   UNK N   1      23.375  20.430   2.842  0.00  0.00     0.188 A 
HETATM    3  N   UNK N   1      24.708  20.697   2.940  0.00  0.00    -0.345 N 
ATOM      4  HN  UNK N   1      25.220  21.485   2.541  1.00  0.00     0.167 HD
HETATM    5  C   UNK N   1      25.199  19.685   3.682  0.00  0.00     0.147 A 
HETATM    6  C   UNK N   1      26.486  19.456   4.140  0.00  0.00     0.290 A 
HETATM    7  O   UNK N   1      27.398  20.218   3.881  0.00  0.00    -0.265 OA
HETATM    8  N   UNK N   1      26.702  18.338   4.920  0.00  0.00    -0.154 N 
HETATM    9  C   UNK N   1      25.670  17.488   5.231  0.00  0.00     0.680 A 
HETATM   10  N   UNK N   1      25.912  16.354   6.033  0.00  0.00    -0.234 N 
HETATM   11  N   UNK N   1      24.405  17.738   4.775  0.00  0.00    -0.174 N 
ATOM     12  HN  UNK N   1      23.632  17.116   5.010  1.00  0.00     0.186 HD
HETATM   13  C   UNK N   1      24.206  18.836   4.002  0.00  0.00     0.159 A 
HETATM   14  H   UNK N   1      27.608  18.149   5.257  0.00  0.00     0.187 HD
HETATM   15  H   UNK N   1      25.218  15.663   6.133  0.00  0.00     0.174 HD
HETATM   16  H   UNK N   1      26.777  16.253   6.493  0.00  0.00     0.174 HD
ENDROOT
BRANCH   1  17
HETATM   17  C   UNK N   1      21.719  18.711   3.700  0.00  0.00     0.262 C 
HETATM   18  C   UNK N   1      20.601  19.471   3.034  0.00  0.00     0.198 C 
HETATM   19  C   UNK N   1      19.536  18.449   3.236  0.00  0.00     0.182 C 
HETATM   20  C   UNK N   1      20.296  17.187   2.870  0.00  0.00     0.179 C 
HETATM   21  O   UNK N   1      21.642  17.383   3.238  0.00  0.00    -0.353 OA
BRANCH  18  22
HETATM   22  O   UNK N   1      20.302  20.642   3.732  0.00  0.00    -0.388 OA
HETATM   23  H   UNK N   1      19.497  20.925   4.192  0.00  0.00     0.210 HD
ENDBRANCH  18  22
BRANCH  19  24
HETATM   24  O   UNK N   1      18.440  18.663   2.399  0.00  0.00    -0.390 OA
HETATM   25  H   UNK N   1      17.649  19.200   2.560  0.00  0.00     0.210 HD
ENDBRANCH  19  24
BRANCH  20  26
HETATM   26  C   UNK N   1      19.750  15.978   3.610  0.00  0.00     0.198 C 
BRANCH  26  27
HETATM   27  O   UNK N   1      18.720  16.357   4.468  0.00  0.00    -0.398 OA
HETATM   28  H   UNK N   1      18.464  17.275   4.653  0.00  0.00     0.209 HD
ENDBRANCH  26  27
ENDBRANCH  20  26
ENDBRANCH   1  17
TORSDOF 5
ENDMDL
MODEL 3
REMARK VINA RESULT:      -6.2      9.350     11.395
REMARK  5 active torsions:
REMARK  status: ('A' for Active; 'I' for Inactive)
REMARK    1  A    between atoms: O_1  and  C_2 
REMARK    2  A    between atoms: C_3  and  C_2 
REMARK    3  A    between atoms: C_4  and  O_5 
REMARK    4  A    between atoms: C_6  and  O_7 
REMARK    5  A    between atoms: C_8  and  N_10 
REMARK       I    between atoms: C_18  and  N_19 
ROOT
HETATM    1  N   UNK N   1      20.604  17.207   2.772  0.00  0.00    -0.297 N 
HETATM    2  C   UNK N   1      20.060  16.338   1.877  0.00  0.00     0.188 A 
HETATM    3  N   UNK N   1      19.377  15.341   2.507  0.00  0.00    -0.345 N 
ATOM      4  HN  UNK N   1      18.862  14.569   2.080  1.00  0.00     0.167 HD
HETATM    5  C   UNK N   1      19.533  15.604   3.819  0.00  0.00     0.147 A 
HETATM    6  C   UNK N   1      19.095  14.902   4.929  0.00  0.00     0.290 A 
HETATM    7  O   UNK N   1      18.447  13.878   4.819  0.00  0.00    -0.265 OA
HETATM    8  N   UNK N   1      19.430  15.391   6.175  0.00  0.00    -0.154 N 
HETATM    9  C   UNK N   1      20.178  16.536   6.302  0.00  0.00     0.680 A 
HETATM   10  N   UNK N   1      20.513  17.017   7.584  0.00  0.00    -0.234 N 
HETATM   11  N   UNK N   1      20.608  17.210   5.192  0.00  0.00    -0.174 N 
ATOM     12  HN  UNK N   1      21.171  18.055   5.278  1.00  0.00     0.186 HD
HETATM   13  C   UNK N   1      20.265  16.722   3.972  0.00  0.00     0.159 A 
HETATM   14  H   UNK N   1      19.129  14.914   6.982  0.00  0.00     0.187 HD
HETATM   15  H   UNK N   1      20.914  17.910   7.687  0.00  0.00     0.174 HD
HETATM   16  H   UNK N   1      20.346  16.458   8.377  0.00  0.00     0.174 HD
ENDROOT
BRANCH   1  17
HETATM   17  C   UNK N   1      21.496  18.336   2.497  0.00  0.00     0.262 C 
HETATM   18  C   UNK N   1      20.817  19.681   2.473  0.00  0.00     0.198 C 
HETATM   19  C   UNK N   1      22.055  20.512   2.473  0.00  0.00     0.182 C 
HETATM   20  C   UNK N   1      22.874  19.780   3.520  0.00  0.00     0.179 C 
HETATM   21  O   UNK N   1      22.530  18.416   3.449  0.00  0.00    -0.353 OA
BRANCH  18  22
HETATM   22  O   UNK N   1      20.099  19.862   1.290  0.00  0.00    -0.388 OA
HETATM   23  H   UNK N   1      19.263  19.478   0.984  0.00  0.00     0.210 HD
ENDBRANCH  18  22
BRANCH  19  24
HETATM   24  O   UNK N   1      21.796  21.834   2.837  0.00  0.00    -0.390 OA
HETATM   25  H   UNK N   1      22.242  22.643   2.543  0.00  0.00     0.210 HD
ENDBRANCH  19  24
BRANCH  20  26
HETATM   26  C   UNK N   1      24.364  19.932   3.261  0.00  0.00     0.198 C 
BRANCH  26  27
HETATM   27  O   UNK N   1      24.590  20.867   2.254  0.00  0.00    -0.398 OA
HETATM   28  H   UNK N   1      24.886  20.651   1.355  0.00  0.00     0.209 HD
ENDBRANCH  26  27
ENDBRANCH  20  26
ENDBRANCH   1  17
TORSDOF 5
ENDMDL
MODEL 4
REMARK VINA RESULT:      -6.1      1.711      2.154
REMARK  5 active torsions:
REMARK  status: ('A' for Active; 'I' for Inactive)
REMARK    1  A    between atoms: O_1  and  C_2 
REMARK    2  A    between atoms: C_3  and  C_2 
REMARK    3  A    between atoms: C_4  and  O_5 
REMARK    4  A    between atoms: C_6  and  O_7 
REMARK    5  A    between atoms: C_8  and  N_10 
REMARK       I    between atoms: C_18  and  N_19 
ROOT
HETATM    1  N   UNK N   1      30.912  17.084   5.608  0.00  0.00    -0.297 N 
HETATM    2  C   UNK N   1      30.713  16.879   4.278  0.00  0.00     0.188 A 
HETATM    3  N   UNK N   1      29.444  17.211   3.908  0.00  0.00    -0.345 N 
ATOM      4  HN  UNK N   1      29.033  17.170   2.975  1.00  0.00     0.167 HD
HETATM    5  C   UNK N   1      28.855  17.607   5.054  0.00  0.00     0.147 A 
HETATM    6  C   UNK N   1      27.553  18.013   5.295  0.00  0.00     0.290 A 
HETATM    7  O   UNK N   1      26.729  18.071   4.400  0.00  0.00    -0.265 OA
HETATM    8  N   UNK N   1      27.208  18.337   6.591  0.00  0.00    -0.154 N 
HETATM    9  C   UNK N   1      28.130  18.252   7.605  0.00  0.00     0.680 A 
HETATM   10  N   UNK N   1      27.756  18.584   8.923  0.00  0.00    -0.234 N 
HETATM   11  N   UNK N   1      29.408  17.840   7.347  0.00  0.00    -0.174 N 
ATOM     12  HN  UNK N   1      30.095  17.766   8.096  1.00  0.00     0.186 HD
HETATM   13  C   UNK N   1      29.737  17.532   6.066  0.00  0.00     0.159 A 
HETATM   14  H   UNK N   1      26.290  18.632   6.790  0.00  0.00     0.187 HD
HETATM   15  H   UNK N   1      28.442  18.673   9.624  0.00  0.00     0.174 HD
HETATM   16  H   UNK N   1      26.807  18.726   9.143  0.00  0.00     0.174 HD
ENDROOT
BRANCH   1  17
HETATM   17  C   UNK N   1      32.097  16.746   6.400  0.00  0.00     0.262 C 
HETATM   18  C   UNK N   1      33.130  15.930   5.667  0.00  0.00     0.198 C 
HETATM   19  C   UNK N   1      34.223  16.072   6.670  0.00  0.00     0.182 C 
HETATM   20  C   UNK N   1      34.105  17.550   6.994  0.00  0.00     0.179 C 
HETATM   21  O   UNK N   1      32.747  17.903   6.870  0.00  0.00    -0.353 OA
BRANCH  18  22
HETATM   22  O   UNK N   1      32.731  14.597   5.553  0.00  0.00    -0.388 OA
HETATM   23  H   UNK N   1      32.050  14.090   6.022  0.00  0.00     0.210 HD
ENDBRANCH  18  22
BRANCH  19  24
HETATM   24  O   UNK N   1      35.470  15.749   6.133  0.00  0.00    -0.390 OA
HETATM   25  H   UNK N   1      36.265  15.437   6.591  0.00  0.00     0.210 HD
ENDBRANCH  19  24
BRANCH  20  26
HETATM   26  C   UNK N   1      34.567  17.843   8.412  0.00  0.00     0.198 C 
BRANCH  26  27
HETATM   27  O   UNK N   1      35.180  19.093   8.475  0.00  0.00    -0.398 OA
HETATM   28  H   UNK N   1      34.795  19.876   8.899  0.00  0.00     0.209 HD
ENDBRANCH  26  27
ENDBRANCH  20  26
ENDBRANCH   1  17
TORSDOF 5
ENDMDL
MODEL 5
REMARK VINA RESULT:      -6.1      1.356      3.254
REMARK  5 active torsions:
REMARK  status: ('A' for Active; 'I' for Inactive)
REMARK    1  A    between atoms: O_1  and  C_2 
REMARK    2  A    between atoms: C_3  and  C_2 
REMARK    3  A    between atoms: C_4  and  O_5 
REMARK    4  A    between atoms: C_6  and  O_7 
REMARK    5  A    between atoms: C_8  and  N_10 
REMARK       I    between atoms: C_18  and  N_19 
ROOT
HETATM    1  N   UNK N   1      30.065  17.257   8.179  0.00  0.00    -0.297 N 
HETATM    2  C   UNK N   1      28.937  17.429   8.919  0.00  0.00     0.188 A 
HETATM    3  N   UNK N   1      27.830  17.500   8.127  0.00  0.00    -0.345 N 
ATOM      4  HN  UNK N   1      26.858  17.611   8.419  1.00  0.00     0.167 HD
HETATM    5  C   UNK N   1      28.308  17.389   6.872  0.00  0.00     0.147 A 
HETATM    6  C   UNK N   1      27.647  17.439   5.656  0.00  0.00     0.290 A 
HETATM    7  O   UNK N   1      26.441  17.591   5.595  0.00  0.00    -0.265 OA
HETATM    8  N   UNK N   1      28.402  17.327   4.507  0.00  0.00    -0.154 N 
HETATM    9  C   UNK N   1      29.765  17.176   4.574  0.00  0.00     0.680 A 
HETATM   10  N   UNK N   1      30.518  17.068   3.387  0.00  0.00    -0.234 N 
HETATM   11  N   UNK N   1      30.399  17.138   5.785  0.00  0.00    -0.174 N 
ATOM     12  HN  UNK N   1      31.412  17.036   5.842  1.00  0.00     0.186 HD
HETATM   13  C   UNK N   1      29.645  17.241   6.909  0.00  0.00     0.159 A 
HETATM   14  H   UNK N   1      27.957  17.356   3.629  0.00  0.00     0.187 HD
HETATM   15  H   UNK N   1      31.467  16.809   3.427  0.00  0.00     0.174 HD
HETATM   16  H   UNK N   1      30.095  17.253   2.518  0.00  0.00     0.174 HD
ENDROOT
BRANCH   1  17
HETATM   17  C   UNK N   1      31.452  17.247   8.649  0.00  0.00     0.262 C 
HETATM   18  C   UNK N   1      32.032  15.873   8.865  0.00  0.00     0.198 C 
HETATM   19  C   UNK N   1      33.453  16.296   9.025  0.00  0.00     0.182 C 
HETATM   20  C   UNK N   1      33.566  17.304   7.897  0.00  0.00     0.179 C 
HETATM   21  O   UNK N   1      32.304  17.913   7.746  0.00  0.00    -0.353 OA
BRANCH  18  22
HETATM   22  O   UNK N   1      31.549  15.303  10.044  0.00  0.00    -0.388 OA
HETATM   23  H   UNK N   1      32.010  14.891  10.791  0.00  0.00     0.210 HD
ENDBRANCH  18  22
BRANCH  19  24
HETATM   24  O   UNK N   1      34.336  15.227   8.866  0.00  0.00    -0.390 OA
HETATM   25  H   UNK N   1      35.305  15.241   8.832  0.00  0.00     0.210 HD
ENDBRANCH  19  24
BRANCH  20  26
HETATM   26  C   UNK N   1      34.599  18.373   8.213  0.00  0.00     0.198 C 
BRANCH  26  27
HETATM   27  O   UNK N   1      35.266  18.071   9.398  0.00  0.00    -0.398 OA
HETATM   28  H   UNK N   1      36.013  17.455   9.470  0.00  0.00     0.209 HD
ENDBRANCH  26  27
ENDBRANCH  20  26
ENDBRANCH   1  17
TORSDOF 5
ENDMDL
MODEL 6
REMARK VINA RESULT:      -6.0      4.312      6.773
REMARK  5 active torsions:
REMARK  status: ('A' for Active; 'I' for Inactive)
REMARK    1  A    between atoms: O_1  and  C_2 
REMARK    2  A    between atoms: C_3  and  C_2 
REMARK    3  A    between atoms: C_4  and  O_5 
REMARK    4  A    between atoms: C_6  and  O_7 
REMARK    5  A    between atoms: C_8  and  N_10 
REMARK       I    between atoms: C_18  and  N_19 
ROOT
HETATM    1  N   UNK N   1      35.056  15.087  11.123  0.00  0.00    -0.297 N 
HETATM    2  C   UNK N   1      35.548  16.326  11.395  0.00  0.00     0.188 A 
HETATM    3  N   UNK N   1      35.109  17.244  10.488  0.00  0.00    -0.345 N 
ATOM      4  HN  UNK N   1      35.310  18.245  10.463  1.00  0.00     0.167 HD
HETATM    5  C   UNK N   1      34.349  16.532   9.632  0.00  0.00     0.147 A 
HETATM    6  C   UNK N   1      33.683  16.932   8.486  0.00  0.00     0.290 A 
HETATM    7  O   UNK N   1      33.710  18.087   8.104  0.00  0.00    -0.265 OA
HETATM    8  N   UNK N   1      32.995  15.971   7.773  0.00  0.00    -0.154 N 
HETATM    9  C   UNK N   1      32.980  14.663   8.191  0.00  0.00     0.680 A 
HETATM   10  N   UNK N   1      32.274  13.696   7.445  0.00  0.00    -0.234 N 
HETATM   11  N   UNK N   1      33.652  14.289   9.321  0.00  0.00    -0.174 N 
ATOM     12  HN  UNK N   1      33.653  13.318   9.632  1.00  0.00     0.186 HD
HETATM   13  C   UNK N   1      34.318  15.244  10.019  0.00  0.00     0.159 A 
HETATM   14  H   UNK N   1      32.509  16.227   6.955  0.00  0.00     0.187 HD
HETATM   15  H   UNK N   1      32.131  12.795   7.815  0.00  0.00     0.174 HD
HETATM   16  H   UNK N   1      31.925  13.923   6.554  0.00  0.00     0.174 HD
ENDROOT
BRANCH   1  17
HETATM   17  C   UNK N   1      35.382  13.827  11.794  0.00  0.00     0.262 C 
HETATM   18  C   UNK N   1      36.769  13.767  12.379  0.00  0.00     0.198 C 
HETATM   19  C   UNK N   1      36.579  12.524  13.180  0.00  0.00     0.182 C 
HETATM   20  C   UNK N   1      35.210  12.792  13.778  0.00  0.00     0.179 C 
HETATM   21  O   UNK N   1      34.483  13.557  12.844  0.00  0.00    -0.353 OA
BRANCH  18  22
HETATM   22  O   UNK N   1      37.728  13.574  11.384  0.00  0.00    -0.388 OA
HETATM   23  H   UNK N   1      38.204  12.778  11.100  0.00  0.00     0.210 HD
ENDBRANCH  18  22
BRANCH  19  24
HETATM   24  O   UNK N   1      37.561  12.379  14.160  0.00  0.00    -0.390 OA
HETATM   25  H   UNK N   1      37.966  13.060  14.719  0.00  0.00     0.210 HD
ENDBRANCH  19  24
BRANCH  20  26
HETATM   26  C   UNK N   1      34.463  11.497  14.049  0.00  0.00     0.198 C 
BRANCH  26  27
HETATM   27  O   UNK N   1      35.351  10.425  14.106  0.00  0.00    -0.398 OA
HETATM   28  H   UNK N   1      35.111   9.499  13.941  0.00  0.00     0.209 HD
ENDBRANCH  26  27
ENDBRANCH  20  26
ENDBRANCH   1  17
TORSDOF 5
ENDMDL
MODEL 7
REMARK VINA RESULT:      -6.0      1.487      2.938
REMARK  5 active torsions:
REMARK  status: ('A' for Active; 'I' for Inactive)
REMARK    1  A    between atoms: O_1  and  C_2 
REMARK    2  A    between atoms: C_3  and  C_2 
REMARK    3  A    between atoms: C_4  and  O_5 
REMARK    4  A    between atoms: C_6  and  O_7 
REMARK    5  A    between atoms: C_8  and  N_10 
REMARK       I    between atoms: C_18  and  N_19 
ROOT
HETATM    1  N   UNK N   1      31.584  16.747   7.789  0.00  0.00    -0.297 N 
HETATM    2  C   UNK N   1      30.489  16.958   8.568  0.00  0.00     0.188 A 
HETATM    3  N   UNK N   1      29.419  17.356   7.824  0.00  0.00    -0.345 N 
ATOM      4  HN  UNK N   1      28.475  17.567   8.149  1.00  0.00     0.167 HD
HETATM    5  C   UNK N   1      29.890  17.408   6.562  0.00  0.00     0.147 A 
HETATM    6  C   UNK N   1      29.262  17.793   5.390  0.00  0.00     0.290 A 
HETATM    7  O   UNK N   1      28.098  18.148   5.379  0.00  0.00    -0.265 OA
HETATM    8  N   UNK N   1      30.003  17.779   4.226  0.00  0.00    -0.154 N 
HETATM    9  C   UNK N   1      31.323  17.397   4.239  0.00  0.00     0.680 A 
HETATM   10  N   UNK N   1      32.064  17.394   3.040  0.00  0.00    -0.234 N 
HETATM   11  N   UNK N   1      31.926  17.029   5.410  0.00  0.00    -0.174 N 
ATOM     12  HN  UNK N   1      32.908  16.754   5.428  1.00  0.00     0.186 HD
HETATM   13  C   UNK N   1      31.184  17.040   6.546  0.00  0.00     0.159 A 
HETATM   14  H   UNK N   1      29.581  18.044   3.377  0.00  0.00     0.187 HD
HETATM   15  H   UNK N   1      32.957  16.980   3.013  0.00  0.00     0.174 HD
HETATM   16  H   UNK N   1      31.688  17.806   2.229  0.00  0.00     0.174 HD
ENDROOT
BRANCH   1  17
HETATM   17  C   UNK N   1      32.945  16.423   8.223  0.00  0.00     0.262 C 
HETATM   18  C   UNK N   1      33.760  17.608   8.670  0.00  0.00     0.198 C 
HETATM   19  C   UNK N   1      34.884  16.841   9.280  0.00  0.00     0.182 C 
HETATM   20  C   UNK N   1      34.108  15.772  10.028  0.00  0.00     0.179 C 
HETATM   21  O   UNK N   1      32.937  15.505   9.292  0.00  0.00    -0.353 OA
BRANCH  18  22
HETATM   22  O   UNK N   1      34.206  18.354   7.578  0.00  0.00    -0.388 OA
HETATM   23  H   UNK N   1      33.732  18.711   6.810  0.00  0.00     0.210 HD
ENDBRANCH  18  22
BRANCH  19  24
HETATM   24  O   UNK N   1      35.651  17.630  10.136  0.00  0.00    -0.390 OA
HETATM   25  H   UNK N   1      36.616  17.677  10.217  0.00  0.00     0.210 HD
ENDBRANCH  19  24
BRANCH  20  26
HETATM   26  C   UNK N   1      34.916  14.492  10.158  0.00  0.00     0.198 C 
BRANCH  26  27
HETATM   27  O   UNK N   1      36.194  14.769  10.639  0.00  0.00    -0.398 OA
HETATM   28  H   UNK N   1      36.822  15.378  10.220  0.00  0.00     0.209 HD
ENDBRANCH  26  27
ENDBRANCH  20  26
ENDBRANCH   1  17
TORSDOF 5
ENDMDL
MODEL 8
REMARK VINA RESULT:      -6.0      7.361     10.366
REMARK  5 active torsions:
REMARK  status: ('A' for Active; 'I' for Inactive)
REMARK    1  A    between atoms: O_1  and  C_2 
REMARK    2  A    between atoms: C_3  and  C_2 
REMARK    3  A    between atoms: C_4  and  O_5 
REMARK    4  A    between atoms: C_6  and  O_7 
REMARK    5  A    between atoms: C_8  and  N_10 
REMARK       I    between atoms: C_18  and  N_19 
ROOT
HETATM    1  N   UNK N   1      35.051  12.532  13.627  0.00  0.00    -0.297 N 
HETATM    2  C   UNK N   1      35.132  11.254  13.167  0.00  0.00     0.188 A 
HETATM    3  N   UNK N   1      35.242  10.364  14.194  0.00  0.00    -0.345 N 
ATOM      4  HN  UNK N   1      35.304   9.347  14.135  1.00  0.00     0.167 HD
HETATM    5  C   UNK N   1      35.252  11.130  15.302  0.00  0.00     0.147 A 
HETATM    6  C   UNK N   1      35.389  10.773  16.633  0.00  0.00     0.290 A 
HETATM    7  O   UNK N   1      35.516   9.610  16.970  0.00  0.00    -0.265 OA
HETATM    8  N   UNK N   1      35.395  11.782  17.574  0.00  0.00    -0.154 N 
HETATM    9  C   UNK N   1      35.273  13.097  17.194  0.00  0.00     0.680 A 
HETATM   10  N   UNK N   1      35.286  14.113  18.171  0.00  0.00    -0.234 N 
HETATM   11  N   UNK N   1      35.147  13.428  15.874  0.00  0.00    -0.174 N 
ATOM     12  HN  UNK N   1      35.065  14.402  15.584  1.00  0.00     0.186 HD
HETATM   13  C   UNK N   1      35.134  12.425  14.958  0.00  0.00     0.159 A 
HETATM   14  H   UNK N   1      35.488  11.557  18.528  0.00  0.00     0.187 HD
HETATM   15  H   UNK N   1      35.047  15.036  17.926  0.00  0.00     0.174 HD
HETATM   16  H   UNK N   1      35.534  13.899  19.099  0.00  0.00     0.174 HD
ENDROOT
BRANCH   1  17
HETATM   17  C   UNK N   1      35.035  13.768  12.842  0.00  0.00     0.262 C 
HETATM   18  C   UNK N   1      36.384  14.416  12.663  0.00  0.00     0.198 C 
HETATM   19  C   UNK N   1      35.980  15.397  11.616  0.00  0.00     0.182 C 
HETATM   20  C   UNK N   1      35.129  14.510  10.726  0.00  0.00     0.179 C 
HETATM   21  O   UNK N   1      34.513  13.549  11.552  0.00  0.00    -0.353 OA
BRANCH  18  22
HETATM   22  O   UNK N   1      36.785  15.072  13.828  0.00  0.00    -0.388 OA
HETATM   23  H   UNK N   1      37.667  15.276  14.176  0.00  0.00     0.210 HD
ENDBRANCH  18  22
BRANCH  19  24
HETATM   24  O   UNK N   1      37.082  15.919  10.937  0.00  0.00    -0.390 OA
HETATM   25  H   UNK N   1      37.712  16.596  11.231  0.00  0.00     0.210 HD
ENDBRANCH  19  24
BRANCH  20  26
HETATM   26  C   UNK N   1      34.054  15.313  10.012  0.00  0.00     0.198 C 
BRANCH  26  27
HETATM   27  O   UNK N   1      34.259  16.678  10.202  0.00  0.00    -0.398 OA
HETATM   28  H   UNK N   1      33.981  17.174  10.989  0.00  0.00     0.209 HD
ENDBRANCH  26  27
ENDBRANCH  20  26
ENDBRANCH   1  17
TORSDOF 5
ENDMDL
MODEL 9
REMARK VINA RESULT:      -5.8      3.811      5.653
REMARK  5 active torsions:
REMARK  status: ('A' for Active; 'I' for Inactive)
REMARK    1  A    between atoms: O_1  and  C_2 
REMARK    2  A    between atoms: C_3  and  C_2 
REMARK    3  A    between atoms: C_4  and  O_5 
REMARK    4  A    between atoms: C_6  and  O_7 
REMARK    5  A    between atoms: C_8  and  N_10 
REMARK       I    between atoms: C_18  and  N_19 
ROOT
HETATM    1  N   UNK N   1      34.551  15.018   9.233  0.00  0.00    -0.297 N 
HETATM    2  C   UNK N   1      33.775  14.745  10.317  0.00  0.00     0.188 A 
HETATM    3  N   UNK N   1      32.524  15.268  10.176  0.00  0.00    -0.345 N 
ATOM      4  HN  UNK N   1      31.741  15.202  10.827  1.00  0.00     0.167 HD
HETATM    5  C   UNK N   1      32.555  15.894   8.982  0.00  0.00     0.147 A 
HETATM    6  C   UNK N   1      31.581  16.639   8.339  0.00  0.00     0.290 A 
HETATM    7  O   UNK N   1      30.482  16.811   8.833  0.00  0.00    -0.265 OA
HETATM    8  N   UNK N   1      31.899  17.200   7.120  0.00  0.00    -0.154 N 
HETATM    9  C   UNK N   1      33.146  17.024   6.570  0.00  0.00     0.680 A 
HETATM   10  N   UNK N   1      33.452  17.610   5.324  0.00  0.00    -0.234 N 
HETATM   11  N   UNK N   1      34.095  16.292   7.226  0.00  0.00    -0.174 N 
ATOM     12  HN  UNK N   1      35.026  16.165   6.828  1.00  0.00     0.186 HD
HETATM   13  C   UNK N   1      33.767  15.738   8.421  0.00  0.00     0.159 A 
HETATM   14  H   UNK N   1      31.225  17.732   6.638  0.00  0.00     0.187 HD
HETATM   15  H   UNK N   1      34.282  17.365   4.855  0.00  0.00     0.174 HD
HETATM   16  H   UNK N   1      32.835  18.264   4.924  0.00  0.00     0.174 HD
ENDROOT
BRANCH   1  17
HETATM   17  C   UNK N   1      35.975  14.727   9.054  0.00  0.00     0.262 C 
HETATM   18  C   UNK N   1      36.776  14.702  10.330  0.00  0.00     0.198 C 
HETATM   19  C   UNK N   1      38.015  14.101   9.758  0.00  0.00     0.182 C 
HETATM   20  C   UNK N   1      37.413  13.013   8.888  0.00  0.00     0.179 C 
HETATM   21  O   UNK N   1      36.168  13.481   8.425  0.00  0.00    -0.353 OA
BRANCH  18  22
HETATM   22  O   UNK N   1      37.021  15.994  10.796  0.00  0.00    -0.388 OA
HETATM   23  H   UNK N   1      36.851  16.407  11.656  0.00  0.00     0.210 HD
ENDBRANCH  18  22
BRANCH  19  24
HETATM   24  O   UNK N   1      38.848  13.581  10.749  0.00  0.00    -0.390 OA
HETATM   25  H   UNK N   1      39.301  12.724  10.773  0.00  0.00     0.210 HD
ENDBRANCH  19  24
BRANCH  20  26
HETATM   26  C   UNK N   1      38.303  12.704   7.696  0.00  0.00     0.198 C 
BRANCH  26  27
HETATM   27  O   UNK N   1      39.642  12.915   8.019  0.00  0.00    -0.398 OA
HETATM   28  H   UNK N   1      40.023  13.775   8.259  0.00  0.00     0.209 HD
ENDBRANCH  26  27
ENDBRANCH  20  26
ENDBRANCH   1  17
TORSDOF 5
ENDMDL
