MODEL 1
REMARK VINA RESULT:      -7.4      0.000      0.000
REMARK  5 active torsions:
REMARK  status: ('A' for Active; 'I' for Inactive)
REMARK    1  A    between atoms: C_8  and  N_11 
REMARK       I    between atoms: N_11  and  C_14 
REMARK    2  A    between atoms: C_13  and  N_12 
REMARK    3  A    between atoms: C_13  and  C_14 
REMARK    4  A    between atoms: C_13  and  C_16 
REMARK    5  A    between atoms: C_16  and  C_17 
ROOT
HETATM    1  N   UNK N   1      36.638  14.490  13.298  0.00  0.00    -0.325 N 
HETATM    2  C   UNK N   1      35.699  14.624  12.315  0.00  0.00     0.244 C 
HETATM    3  O   UNK N   1      34.661  13.980  12.351  0.00  0.00    -0.271 OA
HETATM    4  H   UNK N   1      37.428  15.074  13.255  0.00  0.00     0.169 HD
ENDROOT
BRANCH   2   5
HETATM    5  C   UNK N   1      36.002  15.494  11.118  0.00  0.00     0.173 C 
BRANCH   5   6
HETATM    6  N   UNK N   1      37.304  15.119  10.591  0.00  0.00    -0.418 N 
HETATM    7  H   UNK N   1      38.283  15.267  10.838  0.00  0.00     0.150 HD
HETATM    8  H   UNK N   1      37.214  14.555   9.746  0.00  0.00     0.150 HD
ENDBRANCH   5   6
BRANCH   5   9
HETATM    9  C   UNK N   1      34.969  15.238  10.010  0.00  0.00     0.092 C 
BRANCH   9  10
HETATM   10  C   UNK N   1      34.727  16.337   9.025  0.00  0.00     0.028 A 
HETATM   11  N   UNK N   1      34.777  17.634   9.364  0.00  0.00    -0.354 N 
HETATM   12  C   UNK N   1      34.484  18.305   8.234  0.00  0.00     0.180 A 
HETATM   13  H   UNK N   1      34.982  18.015  10.250  0.00  0.00     0.166 HD
HETATM   14  N   UNK N   1      34.248  17.466   7.203  0.00  0.00    -0.360 N 
HETATM   15  C   UNK N   1      34.399  16.222   7.695  0.00  0.00     0.114 A 
ATOM     16  HN  UNK N   1      34.005  17.722   6.246  1.00  0.00     0.166 HD
ENDBRANCH   9  10
ENDBRANCH   5   9
ENDBRANCH   2   5
BRANCH   1  17
HETATM   17  C   UNK N   1      36.557  13.563  14.379  0.00  0.00     0.035 A 
HETATM   18  C   UNK N   1      36.032  13.930  15.630  0.00  0.00     0.042 A 
HETATM   19  C   UNK N   1      35.830  12.973  16.622  0.00  0.00    -0.024 A 
HETATM   20  C   UNK N   1      35.288  13.346  17.854  0.00  0.00     0.012 A 
HETATM   21  C   UNK N   1      36.147  11.621  16.369  0.00  0.00    -0.026 A 
HETATM   22  C   UNK N   1      35.050  12.376  18.833  0.00  0.00     0.001 A 
HETATM   23  C   UNK N   1      35.352  11.034  18.579  0.00  0.00     0.001 A 
HETATM   24  C   UNK N   1      35.904  10.656  17.350  0.00  0.00     0.012 A 
HETATM   25  C   UNK N   1      36.692  11.255  15.136  0.00  0.00     0.014 A 
HETATM   26  C   UNK N   1      36.895  12.224  14.145  0.00  0.00     0.030 A 
ENDBRANCH   1  17
TORSDOF 5
ENDMDL
MODEL 2
REMARK VINA RESULT:      -7.2      1.668      1.800
REMARK  5 active torsions:
REMARK  status: ('A' for Active; 'I' for Inactive)
REMARK    1  A    between atoms: C_8  and  N_11 
REMARK       I    between atoms: N_11  and  C_14 
REMARK    2  A    between atoms: C_13  and  N_12 
REMARK    3  A    between atoms: C_13  and  C_14 
REMARK    4  A    between atoms: C_13  and  C_16 
REMARK    5  A    between atoms: C_16  and  C_17 
ROOT
HETATM    1  N   UNK N   1      34.600  12.402  12.981  0.00  0.00    -0.325 N 
HETATM    2  C   UNK N   1      35.493  12.963  12.113  0.00  0.00     0.244 C 
HETATM    3  O   UNK N   1      36.658  13.134  12.440  0.00  0.00    -0.271 OA
HETATM    4  H   UNK N   1      33.690  12.230  12.649  0.00  0.00     0.169 HD
ENDROOT
BRANCH   2   5
HETATM    5  C   UNK N   1      35.004  13.477  10.779  0.00  0.00     0.173 C 
BRANCH   5   6
HETATM    6  N   UNK N   1      33.952  12.596  10.302  0.00  0.00    -0.418 N 
HETATM    7  H   UNK N   1      32.932  12.584  10.291  0.00  0.00     0.150 HD
HETATM    8  H   UNK N   1      34.339  11.764   9.855  0.00  0.00     0.150 HD
ENDBRANCH   5   6
BRANCH   5   9
HETATM    9  C   UNK N   1      34.389  14.875  10.952  0.00  0.00     0.092 C 
BRANCH   9  10
HETATM   10  C   UNK N   1      34.449  15.803   9.782  0.00  0.00     0.028 A 
HETATM   11  N   UNK N   1      34.457  17.139   9.919  0.00  0.00    -0.354 N 
HETATM   12  C   UNK N   1      34.490  17.622   8.662  0.00  0.00     0.180 A 
HETATM   13  H   UNK N   1      34.440  17.654  10.758  0.00  0.00     0.166 HD
HETATM   14  N   UNK N   1      34.497  16.629   7.747  0.00  0.00    -0.360 N 
HETATM   15  C   UNK N   1      34.471  15.480   8.446  0.00  0.00     0.114 A 
ATOM     16  HN  UNK N   1      34.519  16.731   6.732  1.00  0.00     0.166 HD
ENDBRANCH   9  10
ENDBRANCH   5   9
ENDBRANCH   2   5
BRANCH   1  17
HETATM   17  C   UNK N   1      34.890  12.049  14.332  0.00  0.00     0.035 A 
HETATM   18  C   UNK N   1      34.948  13.013  15.353  0.00  0.00     0.042 A 
HETATM   19  C   UNK N   1      35.089  12.627  16.684  0.00  0.00    -0.024 A 
HETATM   20  C   UNK N   1      35.125  13.594  17.692  0.00  0.00     0.012 A 
HETATM   21  C   UNK N   1      35.167  11.258  17.015  0.00  0.00    -0.026 A 
HETATM   22  C   UNK N   1      35.227  13.202  19.029  0.00  0.00     0.001 A 
HETATM   23  C   UNK N   1      35.291  11.844  19.360  0.00  0.00     0.001 A 
HETATM   24  C   UNK N   1      35.266  10.871  18.354  0.00  0.00     0.012 A 
HETATM   25  C   UNK N   1      35.134  10.296  16.001  0.00  0.00     0.014 A 
HETATM   26  C   UNK N   1      34.996  10.691  14.665  0.00  0.00     0.030 A 
ENDBRANCH   1  17
TORSDOF 5
ENDMDL
MODEL 3
REMARK VINA RESULT:      -7.0      1.297      2.420
REMARK  5 active torsions:
REMARK  status: ('A' for Active; 'I' for Inactive)
REMARK    1  A    between atoms: C_8  and  N_11 
REMARK       I    between atoms: N_11  and  C_14 
REMARK    2  A    between atoms: C_13  and  N_12 
REMARK    3  A    between atoms: C_13  and  C_14 
REMARK    4  A    between atoms: C_13  and  C_16 
REMARK    5  A    between atoms: C_16  and  C_17 
ROOT
HETATM    1  N   UNK N   1      36.714  13.409  14.474  0.00  0.00    -0.325 N 
HETATM    2  C   UNK N   1      35.993  13.607  13.331  0.00  0.00     0.244 C 
HETATM    3  O   UNK N   1      34.795  13.366  13.299  0.00  0.00    -0.271 OA
HETATM    4  H   UNK N   1      37.661  13.675  14.466  0.00  0.00     0.169 HD
ENDROOT
BRANCH   2   5
HETATM    5  C   UNK N   1      36.710  14.020  12.067  0.00  0.00     0.173 C 
BRANCH   5   6
HETATM    6  N   UNK N   1      37.773  13.065  11.805  0.00  0.00    -0.418 N 
HETATM    7  H   UNK N   1      38.181  12.603  10.993  0.00  0.00     0.150 HD
HETATM    8  H   UNK N   1      38.237  12.780  12.668  0.00  0.00     0.150 HD
ENDBRANCH   5   6
BRANCH   5   9
HETATM    9  C   UNK N   1      35.741  13.967  10.875  0.00  0.00     0.092 C 
BRANCH   9  10
HETATM   10  C   UNK N   1      35.281  15.269  10.302  0.00  0.00     0.028 A 
HETATM   11  N   UNK N   1      34.855  15.390   9.035  0.00  0.00    -0.354 N 
HETATM   12  C   UNK N   1      34.556  16.695   8.887  0.00  0.00     0.180 A 
HETATM   13  H   UNK N   1      34.778  14.678   8.359  0.00  0.00     0.166 HD
HETATM   14  N   UNK N   1      34.789  17.391  10.021  0.00  0.00    -0.360 N 
HETATM   15  C   UNK N   1      35.246  16.498  10.917  0.00  0.00     0.114 A 
ATOM     16  HN  UNK N   1      34.646  18.391  10.167  1.00  0.00     0.166 HD
ENDBRANCH   9  10
ENDBRANCH   5   9
ENDBRANCH   2   5
BRANCH   1  17
HETATM   17  C   UNK N   1      36.195  12.844  15.676  0.00  0.00     0.035 A 
HETATM   18  C   UNK N   1      36.354  11.482  15.983  0.00  0.00     0.042 A 
HETATM   19  C   UNK N   1      35.966  10.986  17.225  0.00  0.00    -0.024 A 
HETATM   20  C   UNK N   1      36.148   9.634  17.526  0.00  0.00     0.012 A 
HETATM   21  C   UNK N   1      35.417  11.857  18.190  0.00  0.00    -0.026 A 
HETATM   22  C   UNK N   1      35.795   9.147  18.788  0.00  0.00     0.001 A 
HETATM   23  C   UNK N   1      35.261  10.012  19.749  0.00  0.00     0.001 A 
HETATM   24  C   UNK N   1      35.068  11.365  19.451  0.00  0.00     0.012 A 
HETATM   25  C   UNK N   1      35.234  13.207  17.881  0.00  0.00     0.014 A 
HETATM   26  C   UNK N   1      35.623  13.698  16.629  0.00  0.00     0.030 A 
ENDBRANCH   1  17
TORSDOF 5
ENDMDL
MODEL 4
REMARK VINA RESULT:      -6.7      1.916      2.009
REMARK  5 active torsions:
REMARK  status: ('A' for Active; 'I' for Inactive)
REMARK    1  A    between atoms: C_8  and  N_11 
REMARK       I    between atoms: N_11  and  C_14 
REMARK    2  A    between atoms: C_13  and  N_12 
REMARK    3  A    between atoms: C_13  and  C_14 
REMARK    4  A    between atoms: C_13  and  C_16 
REMARK    5  A    between atoms: C_16  and  C_17 
ROOT
HETATM    1  N   UNK N   1      35.242  13.204  13.755  0.00  0.00    -0.325 N 
HETATM    2  C   UNK N   1      35.862  14.328  13.289  0.00  0.00     0.244 C 
HETATM    3  O   UNK N   1      36.773  14.845  13.917  0.00  0.00    -0.271 OA
HETATM    4  H   UNK N   1      34.556  12.791  13.183  0.00  0.00     0.169 HD
ENDROOT
BRANCH   2   5
HETATM    5  C   UNK N   1      35.337  14.996  12.040  0.00  0.00     0.173 C 
BRANCH   5   6
HETATM    6  N   UNK N   1      36.433  15.702  11.398  0.00  0.00    -0.418 N 
HETATM    7  H   UNK N   1      36.726  16.670  11.267  0.00  0.00     0.150 HD
HETATM    8  H   UNK N   1      37.087  15.053  10.960  0.00  0.00     0.150 HD
ENDBRANCH   5   6
BRANCH   5   9
HETATM    9  C   UNK N   1      34.834  13.934  11.050  0.00  0.00     0.092 C 
BRANCH   9  10
HETATM   10  C   UNK N   1      33.838  14.365  10.022  0.00  0.00     0.028 A 
HETATM   11  N   UNK N   1      32.757  15.100  10.328  0.00  0.00    -0.354 N 
HETATM   12  C   UNK N   1      32.101  15.262   9.163  0.00  0.00     0.180 A 
HETATM   13  H   UNK N   1      32.499  15.445  11.214  0.00  0.00     0.166 HD
HETATM   14  N   UNK N   1      32.736  14.646   8.143  0.00  0.00    -0.360 N 
HETATM   15  C   UNK N   1      33.832  14.078   8.678  0.00  0.00     0.114 A 
ATOM     16  HN  UNK N   1      32.444  14.617   7.166  1.00  0.00     0.166 HD
ENDBRANCH   9  10
ENDBRANCH   5   9
ENDBRANCH   2   5
BRANCH   1  17
HETATM   17  C   UNK N   1      35.516  12.585  15.011  0.00  0.00     0.035 A 
HETATM   18  C   UNK N   1      35.236  13.228  16.229  0.00  0.00     0.042 A 
HETATM   19  C   UNK N   1      35.377  12.549  17.438  0.00  0.00    -0.024 A 
HETATM   20  C   UNK N   1      35.076  13.193  18.640  0.00  0.00     0.012 A 
HETATM   21  C   UNK N   1      35.796  11.202  17.442  0.00  0.00    -0.026 A 
HETATM   22  C   UNK N   1      35.180  12.496  19.848  0.00  0.00     0.001 A 
HETATM   23  C   UNK N   1      35.583  11.156  19.853  0.00  0.00     0.001 A 
HETATM   24  C   UNK N   1      35.895  10.510  18.652  0.00  0.00     0.012 A 
HETATM   25  C   UNK N   1      36.098  10.566  16.235  0.00  0.00     0.014 A 
HETATM   26  C   UNK N   1      35.958  11.256  15.025  0.00  0.00     0.030 A 
ENDBRANCH   1  17
TORSDOF 5
ENDMDL
MODEL 5
REMARK VINA RESULT:      -6.6      5.470     11.220
REMARK  5 active torsions:
REMARK  status: ('A' for Active; 'I' for Inactive)
REMARK    1  A    between atoms: C_8  and  N_11 
REMARK       I    between atoms: N_11  and  C_14 
REMARK    2  A    between atoms: C_13  and  N_12 
REMARK    3  A    between atoms: C_13  and  C_14 
REMARK    4  A    between atoms: C_13  and  C_16 
REMARK    5  A    between atoms: C_16  and  C_17 
ROOT
HETATM    1  N   UNK N   1      30.231  16.541   7.609  0.00  0.00    -0.325 N 
HETATM    2  C   UNK N   1      31.558  16.629   7.920  0.00  0.00     0.244 C 
HETATM    3  O   UNK N   1      32.129  17.710   7.916  0.00  0.00    -0.271 OA
HETATM    4  H   UNK N   1      29.804  15.658   7.686  0.00  0.00     0.169 HD
ENDROOT
BRANCH   2   5
HETATM    5  C   UNK N   1      32.346  15.364   8.163  0.00  0.00     0.173 C 
BRANCH   5   6
HETATM    6  N   UNK N   1      31.939  14.371   7.184  0.00  0.00    -0.418 N 
HETATM    7  H   UNK N   1      32.358  13.572   6.708  0.00  0.00     0.150 HD
HETATM    8  H   UNK N   1      30.970  14.509   6.895  0.00  0.00     0.150 HD
ENDBRANCH   5   6
BRANCH   5   9
HETATM    9  C   UNK N   1      33.844  15.632   7.948  0.00  0.00     0.092 C 
BRANCH   9  10
HETATM   10  C   UNK N   1      34.688  15.841   9.164  0.00  0.00     0.028 A 
HETATM   11  N   UNK N   1      34.532  16.896   9.979  0.00  0.00    -0.354 N 
HETATM   12  C   UNK N   1      35.475  16.751  10.929  0.00  0.00     0.180 A 
HETATM   13  H   UNK N   1      33.870  17.621   9.899  0.00  0.00     0.166 HD
HETATM   14  N   UNK N   1      36.218  15.641  10.727  0.00  0.00    -0.360 N 
HETATM   15  C   UNK N   1      35.728  15.063   9.616  0.00  0.00     0.114 A 
ATOM     16  HN  UNK N   1      36.994  15.309  11.302  1.00  0.00     0.166 HD
ENDBRANCH   9  10
ENDBRANCH   5   9
ENDBRANCH   2   5
BRANCH   1  17
HETATM   17  C   UNK N   1      29.421  17.633   7.178  0.00  0.00     0.035 A 
HETATM   18  C   UNK N   1      29.091  17.821   5.826  0.00  0.00     0.042 A 
HETATM   19  C   UNK N   1      28.183  18.809   5.449  0.00  0.00    -0.024 A 
HETATM   20  C   UNK N   1      27.847  18.972   4.103  0.00  0.00     0.012 A 
HETATM   21  C   UNK N   1      27.582  19.623   6.432  0.00  0.00    -0.026 A 
HETATM   22  C   UNK N   1      26.906  19.937   3.733  0.00  0.00     0.001 A 
HETATM   23  C   UNK N   1      26.300  20.737   4.707  0.00  0.00     0.001 A 
HETATM   24  C   UNK N   1      26.640  20.584   6.056  0.00  0.00     0.012 A 
HETATM   25  C   UNK N   1      27.926  19.456   7.776  0.00  0.00     0.014 A 
HETATM   26  C   UNK N   1      28.842  18.464   8.147  0.00  0.00     0.030 A 
ENDBRANCH   1  17
TORSDOF 5
ENDMDL
MODEL 6
REMARK VINA RESULT:      -6.5      2.718      3.474
REMARK  5 active torsions:
REMARK  status: ('A' for Active; 'I' for Inactive)
REMARK    1  A    between atoms: C_8  and  N_11 
REMARK       I    between atoms: N_11  and  C_14 
REMARK    2  A    between atoms: C_13  and  N_12 
REMARK    3  A    between atoms: C_13  and  C_14 
REMARK    4  A    between atoms: C_13  and  C_16 
REMARK    5  A    between atoms: C_16  and  C_17 
ROOT
HETATM    1  N   UNK N   1      34.234  11.244  13.108  0.00  0.00    -0.325 N 
HETATM    2  C   UNK N   1      35.102  11.118  12.061  0.00  0.00     0.244 C 
HETATM    3  O   UNK N   1      36.290  10.907  12.257  0.00  0.00    -0.271 OA
HETATM    4  H   UNK N   1      33.279  11.352  12.897  0.00  0.00     0.169 HD
ENDROOT
BRANCH   2   5
HETATM    5  C   UNK N   1      34.603  11.353  10.655  0.00  0.00     0.173 C 
BRANCH   5   6
HETATM    6  N   UNK N   1      33.224  10.903  10.573  0.00  0.00    -0.418 N 
HETATM    7  H   UNK N   1      32.423  10.825  11.199  0.00  0.00     0.150 HD
HETATM    8  H   UNK N   1      32.995  10.577   9.633  0.00  0.00     0.150 HD
ENDBRANCH   5   6
BRANCH   5   9
HETATM    9  C   UNK N   1      34.614  12.857  10.341  0.00  0.00     0.092 C 
BRANCH   9  10
HETATM   10  C   UNK N   1      35.941  13.500  10.093  0.00  0.00     0.028 A 
HETATM   11  N   UNK N   1      36.689  13.220   9.015  0.00  0.00    -0.354 N 
HETATM   12  C   UNK N   1      37.803  13.963   9.157  0.00  0.00     0.180 A 
HETATM   13  H   UNK N   1      36.472  12.602   8.279  0.00  0.00     0.166 HD
HETATM   14  N   UNK N   1      37.774  14.693  10.293  0.00  0.00    -0.360 N 
HETATM   15  C   UNK N   1      36.602  14.405  10.889  0.00  0.00     0.114 A 
ATOM     16  HN  UNK N   1      38.494  15.333  10.630  1.00  0.00     0.166 HD
ENDBRANCH   9  10
ENDBRANCH   5   9
ENDBRANCH   2   5
BRANCH   1  17
HETATM   17  C   UNK N   1      34.611  11.232  14.484  0.00  0.00     0.035 A 
HETATM   18  C   UNK N   1      34.726  12.417  15.229  0.00  0.00     0.042 A 
HETATM   19  C   UNK N   1      34.954  12.371  16.603  0.00  0.00    -0.024 A 
HETATM   20  C   UNK N   1      35.046  13.555  17.337  0.00  0.00     0.012 A 
HETATM   21  C   UNK N   1      35.062  11.124  17.255  0.00  0.00    -0.026 A 
HETATM   22  C   UNK N   1      35.234  13.504  18.721  0.00  0.00     0.001 A 
HETATM   23  C   UNK N   1      35.329  12.269  19.372  0.00  0.00     0.001 A 
HETATM   24  C   UNK N   1      35.248  11.079  18.640  0.00  0.00     0.012 A 
HETATM   25  C   UNK N   1      34.972   9.943  16.514  0.00  0.00     0.014 A 
HETATM   26  C   UNK N   1      34.748   9.998  15.134  0.00  0.00     0.030 A 
ENDBRANCH   1  17
TORSDOF 5
ENDMDL
MODEL 7
REMARK VINA RESULT:      -6.3      7.528     12.046
REMARK  5 active torsions:
REMARK  status: ('A' for Active; 'I' for Inactive)
REMARK    1  A    between atoms: C_8  and  N_11 
REMARK       I    between atoms: N_11  and  C_14 
REMARK    2  A    between atoms: C_13  and  N_12 
REMARK    3  A    between atoms: C_13  and  C_14 
REMARK    4  A    between atoms: C_13  and  C_16 
REMARK    5  A    between atoms: C_16  and  C_17 
ROOT
HETATM    1  N   UNK N   1      34.754  10.104  21.807  0.00  0.00    -0.325 N 
HETATM    2  C   UNK N   1      33.592   9.977  22.514  0.00  0.00     0.244 C 
HETATM    3  O   UNK N   1      32.510  10.133  21.968  0.00  0.00    -0.271 OA
HETATM    4  H   UNK N   1      35.596   9.910  22.278  0.00  0.00     0.169 HD
ENDROOT
BRANCH   2   5
HETATM    5  C   UNK N   1      33.656   9.753  24.006  0.00  0.00     0.173 C 
BRANCH   5   6
HETATM    6  N   UNK N   1      35.040   9.868  24.432  0.00  0.00    -0.418 N 
HETATM    7  H   UNK N   1      35.734   9.278  24.891  0.00  0.00     0.150 HD
HETATM    8  H   UNK N   1      35.421  10.789  24.212  0.00  0.00     0.150 HD
ENDBRANCH   5   6
BRANCH   5   9
HETATM    9  C   UNK N   1      32.859  10.848  24.733  0.00  0.00     0.092 C 
BRANCH   9  10
HETATM   10  C   UNK N   1      31.584  10.445  25.401  0.00  0.00     0.028 A 
HETATM   11  N   UNK N   1      30.693  11.339  25.857  0.00  0.00    -0.354 N 
HETATM   12  C   UNK N   1      29.706  10.606  26.406  0.00  0.00     0.180 A 
HETATM   13  H   UNK N   1      30.749  12.321  25.802  0.00  0.00     0.166 HD
HETATM   14  N   UNK N   1      29.958   9.282  26.312  0.00  0.00    -0.360 N 
HETATM   15  C   UNK N   1      31.141   9.174  25.679  0.00  0.00     0.114 A 
ATOM     16  HN  UNK N   1      29.371   8.520  26.651  1.00  0.00     0.166 HD
ENDBRANCH   9  10
ENDBRANCH   5   9
ENDBRANCH   2   5
BRANCH   1  17
HETATM   17  C   UNK N   1      34.836  10.499  20.439  0.00  0.00     0.035 A 
HETATM   18  C   UNK N   1      34.952  11.848  20.064  0.00  0.00     0.042 A 
HETATM   19  C   UNK N   1      35.175  12.197  18.734  0.00  0.00    -0.024 A 
HETATM   20  C   UNK N   1      35.309  13.541  18.377  0.00  0.00     0.012 A 
HETATM   21  C   UNK N   1      35.295  11.190  17.754  0.00  0.00    -0.026 A 
HETATM   22  C   UNK N   1      35.573  13.885  17.048  0.00  0.00     0.001 A 
HETATM   23  C   UNK N   1      35.704  12.887  16.077  0.00  0.00     0.001 A 
HETATM   24  C   UNK N   1      35.561  11.539  16.427  0.00  0.00     0.012 A 
HETATM   25  C   UNK N   1      35.157   9.848  18.118  0.00  0.00     0.014 A 
HETATM   26  C   UNK N   1      34.928   9.505  19.456  0.00  0.00     0.030 A 
ENDBRANCH   1  17
TORSDOF 5
ENDMDL
MODEL 8
REMARK VINA RESULT:      -6.3      3.822      9.910
REMARK  5 active torsions:
REMARK  status: ('A' for Active; 'I' for Inactive)
REMARK    1  A    between atoms: C_8  and  N_11 
REMARK       I    between atoms: N_11  and  C_14 
REMARK    2  A    between atoms: C_13  and  N_12 
REMARK    3  A    between atoms: C_13  and  C_14 
REMARK    4  A    between atoms: C_13  and  C_16 
REMARK    5  A    between atoms: C_16  and  C_17 
ROOT
HETATM    1  N   UNK N   1      33.114  17.095   8.597  0.00  0.00    -0.325 N 
HETATM    2  C   UNK N   1      33.435  15.892   9.159  0.00  0.00     0.244 C 
HETATM    3  O   UNK N   1      32.690  14.930   9.041  0.00  0.00    -0.271 OA
HETATM    4  H   UNK N   1      33.775  17.821   8.668  0.00  0.00     0.169 HD
ENDROOT
BRANCH   2   5
HETATM    5  C   UNK N   1      34.668  15.786  10.025  0.00  0.00     0.173 C 
BRANCH   5   6
HETATM    6  N   UNK N   1      34.983  17.106  10.544  0.00  0.00    -0.418 N 
HETATM    7  H   UNK N   1      35.769  17.560  11.010  0.00  0.00     0.150 HD
HETATM    8  H   UNK N   1      34.208  17.755  10.404  0.00  0.00     0.150 HD
ENDBRANCH   5   6
BRANCH   5   9
HETATM    9  C   UNK N   1      34.383  14.875  11.230  0.00  0.00     0.092 C 
BRANCH   9  10
HETATM   10  C   UNK N   1      35.546  14.167  11.848  0.00  0.00     0.028 A 
HETATM   11  N   UNK N   1      36.185  13.157  11.237  0.00  0.00    -0.354 N 
HETATM   12  C   UNK N   1      37.140  12.769  12.104  0.00  0.00     0.180 A 
HETATM   13  H   UNK N   1      35.995  12.780  10.347  0.00  0.00     0.166 HD
HETATM   14  N   UNK N   1      37.112  13.502  13.238  0.00  0.00    -0.360 N 
HETATM   15  C   UNK N   1      36.108  14.385  13.084  0.00  0.00     0.114 A 
ATOM     16  HN  UNK N   1      37.727  13.405  14.046  1.00  0.00     0.166 HD
ENDBRANCH   9  10
ENDBRANCH   5   9
ENDBRANCH   2   5
BRANCH   1  17
HETATM   17  C   UNK N   1      31.892  17.376   7.918  0.00  0.00     0.035 A 
HETATM   18  C   UNK N   1      31.723  17.095   6.552  0.00  0.00     0.042 A 
HETATM   19  C   UNK N   1      30.477  17.244   5.946  0.00  0.00    -0.024 A 
HETATM   20  C   UNK N   1      30.317  16.942   4.592  0.00  0.00     0.012 A 
HETATM   21  C   UNK N   1      29.372  17.673   6.710  0.00  0.00    -0.026 A 
HETATM   22  C   UNK N   1      29.057  17.055   3.998  0.00  0.00     0.001 A 
HETATM   23  C   UNK N   1      27.957  17.468   4.757  0.00  0.00     0.001 A 
HETATM   24  C   UNK N   1      28.114  17.781   6.112  0.00  0.00     0.012 A 
HETATM   25  C   UNK N   1      29.539  17.977   8.064  0.00  0.00     0.014 A 
HETATM   26  C   UNK N   1      30.796  17.828   8.664  0.00  0.00     0.030 A 
ENDBRANCH   1  17
TORSDOF 5
ENDMDL
MODEL 9
REMARK VINA RESULT:      -6.3      2.396      3.013
REMARK  5 active torsions:
REMARK  status: ('A' for Active; 'I' for Inactive)
REMARK    1  A    between atoms: C_8  and  N_11 
REMARK       I    between atoms: N_11  and  C_14 
REMARK    2  A    between atoms: C_13  and  N_12 
REMARK    3  A    between atoms: C_13  and  C_14 
REMARK    4  A    between atoms: C_13  and  C_16 
REMARK    5  A    between atoms: C_16  and  C_17 
ROOT
HETATM    1  N   UNK N   1      35.338  12.923  13.715  0.00  0.00    -0.325 N 
HETATM    2  C   UNK N   1      35.847  14.099  13.243  0.00  0.00     0.244 C 
HETATM    3  O   UNK N   1      36.633  14.752  13.913  0.00  0.00    -0.271 OA
HETATM    4  H   UNK N   1      34.756  12.404  13.113  0.00  0.00     0.169 HD
ENDROOT
BRANCH   2   5
HETATM    5  C   UNK N   1      35.345  14.647  11.928  0.00  0.00     0.173 C 
BRANCH   5   6
HETATM    6  N   UNK N   1      36.144  15.808  11.575  0.00  0.00    -0.418 N 
HETATM    7  H   UNK N   1      36.961  16.008  10.998  0.00  0.00     0.150 HD
HETATM    8  H   UNK N   1      35.791  16.653  12.026  0.00  0.00     0.150 HD
ENDBRANCH   5   6
BRANCH   5   9
HETATM    9  C   UNK N   1      35.539  13.602  10.818  0.00  0.00     0.092 C 
BRANCH   9  10
HETATM   10  C   UNK N   1      36.900  13.486  10.211  0.00  0.00     0.028 A 
HETATM   11  N   UNK N   1      37.937  12.938  10.863  0.00  0.00    -0.354 N 
HETATM   12  C   UNK N   1      38.979  13.037  10.015  0.00  0.00     0.180 A 
HETATM   13  H   UNK N   1      37.938  12.549  11.768  0.00  0.00     0.166 HD
HETATM   14  N   UNK N   1      38.623  13.634   8.857  0.00  0.00    -0.360 N 
HETATM   15  C   UNK N   1      37.314  13.921   8.974  0.00  0.00     0.114 A 
ATOM     16  HN  UNK N   1      39.226  13.828   8.057  1.00  0.00     0.166 HD
ENDBRANCH   9  10
ENDBRANCH   5   9
ENDBRANCH   2   5
BRANCH   1  17
HETATM   17  C   UNK N   1      35.584  12.393  15.016  0.00  0.00     0.035 A 
HETATM   18  C   UNK N   1      35.273  13.115  16.180  0.00  0.00     0.042 A 
HETATM   19  C   UNK N   1      35.389  12.520  17.435  0.00  0.00    -0.024 A 
HETATM   20  C   UNK N   1      35.057  13.241  18.584  0.00  0.00     0.012 A 
HETATM   21  C   UNK N   1      35.814  11.179  17.540  0.00  0.00    -0.026 A 
HETATM   22  C   UNK N   1      35.136  12.628  19.838  0.00  0.00     0.001 A 
HETATM   23  C   UNK N   1      35.546  11.295  19.943  0.00  0.00     0.001 A 
HETATM   24  C   UNK N   1      35.889  10.570  18.796  0.00  0.00     0.012 A 
HETATM   25  C   UNK N   1      36.148  10.464  16.386  0.00  0.00     0.014 A 
HETATM   26  C   UNK N   1      36.033  11.070  15.129  0.00  0.00     0.030 A 
ENDBRANCH   1  17
TORSDOF 5
ENDMDL
