MODEL 1
REMARK VINA RESULT:      -6.0      0.000      0.000
REMARK  3 active torsions:
REMARK  status: ('A' for Active; 'I' for Inactive)
REMARK    1  A    between atoms: C_7  and  O_1 
REMARK    2  A    between atoms: N_3  and  O_12 
REMARK    3  A    between atoms: C_13  and  O_14 
ROOT
HETATM    1  C   UNK N   1      21.001  20.270   1.335  0.00  0.00     0.303 A 
HETATM    2  N   UNK N   1      20.642  18.965   1.213  0.00  0.00    -0.184 N 
HETATM    3  C   UNK N   1      20.545  18.138   2.362  0.00  0.00     0.099 A 
HETATM    4  C   UNK N   1      20.859  18.670   3.620  0.00  0.00     0.104 A 
HETATM    5  O   UNK N   1      21.239  19.962   3.742  0.00  0.00    -0.309 OA
HETATM    6  C   UNK N   1      21.323  20.869   2.691  0.00  0.00     0.360 A 
HETATM    7  C   UNK N   1      20.125  16.806   2.255  0.00  0.00     0.038 A 
HETATM    8  C   UNK N   1      20.020  16.009   3.398  0.00  0.00     0.039 A 
HETATM    9  C   UNK N   1      20.762  17.868   4.760  0.00  0.00     0.076 A 
HETATM   10  O   UNK N   1      21.059  20.981   0.342  0.00  0.00    -0.265 OA
HETATM   11  C   UNK N   1      20.340  16.530   4.656  0.00  0.00     0.070 A 
ENDROOT
BRANCH   2  12
HETATM   12  O   UNK N   1      20.361  18.460   0.001  0.00  0.00    -0.280 OA
HETATM   13  H   UNK N   1      20.729  17.603  -0.267  0.00  0.00     0.245 HD
ENDBRANCH   2  12
BRANCH   6  14
HETATM   14  O   UNK N   1      22.610  21.407   2.662  0.00  0.00    -0.363 OA
HETATM   15  H   UNK N   1      23.087  22.220   2.893  0.00  0.00     0.213 HD
ENDBRANCH   6  14
BRANCH  11  16
HETATM   16  O   UNK N   1      20.232  15.733   5.745  0.00  0.00    -0.356 OA
HETATM   17  C   UNK N   1      19.889  16.203   6.992  0.00  0.00     0.210 C 
ENDBRANCH  11  16
TORSDOF 3
ENDMDL
MODEL 2
REMARK VINA RESULT:      -5.8      2.960      4.601
REMARK  3 active torsions:
REMARK  status: ('A' for Active; 'I' for Inactive)
REMARK    1  A    between atoms: C_7  and  O_1 
REMARK    2  A    between atoms: N_3  and  O_12 
REMARK    3  A    between atoms: C_13  and  O_14 
ROOT
HETATM    1  C   UNK N   1      20.334  19.391   2.529  0.00  0.00     0.303 A 
HETATM    2  N   UNK N   1      21.139  18.775   3.435  0.00  0.00    -0.184 N 
HETATM    3  C   UNK N   1      22.490  19.180   3.584  0.00  0.00     0.099 A 
HETATM    4  C   UNK N   1      22.998  20.195   2.764  0.00  0.00     0.104 A 
HETATM    5  O   UNK N   1      22.206  20.795   1.846  0.00  0.00    -0.309 OA
HETATM    6  C   UNK N   1      20.860  20.509   1.648  0.00  0.00     0.360 A 
HETATM    7  C   UNK N   1      23.314  18.588   4.550  0.00  0.00     0.038 A 
HETATM    8  C   UNK N   1      24.639  19.008   4.696  0.00  0.00     0.039 A 
HETATM    9  C   UNK N   1      24.326  20.607   2.905  0.00  0.00     0.076 A 
HETATM   10  O   UNK N   1      19.164  19.052   2.424  0.00  0.00    -0.265 OA
HETATM   11  C   UNK N   1      25.156  20.016   3.874  0.00  0.00     0.070 A 
ENDROOT
BRANCH   2  12
HETATM   12  O   UNK N   1      20.647  17.790   4.204  0.00  0.00    -0.280 OA
HETATM   13  H   UNK N   1      19.759  17.868   4.587  0.00  0.00     0.245 HD
ENDBRANCH   2  12
BRANCH   6  14
HETATM   14  O   UNK N   1      20.663  20.169   0.310  0.00  0.00    -0.363 OA
HETATM   15  H   UNK N   1      20.040  19.687  -0.257  0.00  0.00     0.213 HD
ENDBRANCH   6  14
BRANCH  11  16
HETATM   16  O   UNK N   1      26.444  20.399   4.035  0.00  0.00    -0.356 OA
HETATM   17  C   UNK N   1      26.945  20.878   5.225  0.00  0.00     0.210 C 
ENDBRANCH  11  16
TORSDOF 3
ENDMDL
MODEL 3
REMARK VINA RESULT:      -5.8     14.936     15.587
REMARK  3 active torsions:
REMARK  status: ('A' for Active; 'I' for Inactive)
REMARK    1  A    between atoms: C_7  and  O_1 
REMARK    2  A    between atoms: N_3  and  O_12 
REMARK    3  A    between atoms: C_13  and  O_14 
ROOT
HETATM    1  C   UNK N   1      34.407  17.226   7.213  0.00  0.00     0.303 A 
HETATM    2  N   UNK N   1      34.550  15.884   7.379  0.00  0.00    -0.184 N 
HETATM    3  C   UNK N   1      34.644  15.330   8.681  0.00  0.00     0.099 A 
HETATM    4  C   UNK N   1      34.628  16.180   9.794  0.00  0.00     0.104 A 
HETATM    5  O   UNK N   1      34.509  17.518   9.631  0.00  0.00    -0.309 OA
HETATM    6  C   UNK N   1      34.363  18.161   8.407  0.00  0.00     0.360 A 
HETATM    7  C   UNK N   1      34.739  13.944   8.866  0.00  0.00     0.038 A 
HETATM    8  C   UNK N   1      34.817  13.412  10.156  0.00  0.00     0.039 A 
HETATM    9  C   UNK N   1      34.715  15.647  11.083  0.00  0.00     0.076 A 
HETATM   10  O   UNK N   1      34.301  17.693   6.088  0.00  0.00    -0.265 OA
HETATM   11  C   UNK N   1      34.809  14.256  11.271  0.00  0.00     0.070 A 
ENDROOT
BRANCH   2  12
HETATM   12  O   UNK N   1      34.583  15.078   6.305  0.00  0.00    -0.280 OA
HETATM   13  H   UNK N   1      35.018  15.372   5.489  0.00  0.00     0.245 HD
ENDBRANCH   2  12
BRANCH   6  14
HETATM   14  O   UNK N   1      35.370  19.118   8.278  0.00  0.00    -0.363 OA
HETATM   15  H   UNK N   1      35.569  19.935   7.794  0.00  0.00     0.213 HD
ENDBRANCH   6  14
BRANCH  11  16
HETATM   16  O   UNK N   1      34.890  13.712  12.508  0.00  0.00    -0.356 OA
HETATM   17  C   UNK N   1      35.860  14.057  13.422  0.00  0.00     0.210 C 
ENDBRANCH  11  16
TORSDOF 3
ENDMDL
MODEL 4
REMARK VINA RESULT:      -5.7     12.397     13.349
REMARK  3 active torsions:
REMARK  status: ('A' for Active; 'I' for Inactive)
REMARK    1  A    between atoms: C_7  and  O_1 
REMARK    2  A    between atoms: N_3  and  O_12 
REMARK    3  A    between atoms: C_13  and  O_14 
ROOT
HETATM    1  C   UNK N   1      34.084  17.202   8.995  0.00  0.00     0.303 A 
HETATM    2  N   UNK N   1      32.930  16.565   8.663  0.00  0.00    -0.184 N 
HETATM    3  C   UNK N   1      32.432  16.630   7.336  0.00  0.00     0.099 A 
HETATM    4  C   UNK N   1      33.119  17.388   6.380  0.00  0.00     0.104 A 
HETATM    5  O   UNK N   1      34.256  18.043   6.713  0.00  0.00    -0.309 OA
HETATM    6  C   UNK N   1      34.855  18.010   7.966  0.00  0.00     0.360 A 
HETATM    7  C   UNK N   1      31.272  15.935   6.970  0.00  0.00     0.038 A 
HETATM    8  C   UNK N   1      30.802  15.997   5.655  0.00  0.00     0.039 A 
HETATM    9  C   UNK N   1      32.642  17.457   5.068  0.00  0.00     0.076 A 
HETATM   10  O   UNK N   1      34.519  17.121  10.134  0.00  0.00    -0.265 OA
HETATM   11  C   UNK N   1      31.479  16.759   4.697  0.00  0.00     0.070 A 
ENDROOT
BRANCH   2  12
HETATM   12  O   UNK N   1      32.268  15.856   9.592  0.00  0.00    -0.280 OA
HETATM   13  H   UNK N   1      32.161  14.897   9.487  0.00  0.00     0.245 HD
ENDBRANCH   2  12
BRANCH   6  14
HETATM   14  O   UNK N   1      35.006  19.317   8.429  0.00  0.00    -0.363 OA
HETATM   15  H   UNK N   1      34.477  20.101   8.644  0.00  0.00     0.213 HD
ENDBRANCH   6  14
BRANCH  11  16
HETATM   16  O   UNK N   1      30.997  16.803   3.432  0.00  0.00    -0.356 OA
HETATM   17  C   UNK N   1      29.729  16.390   3.093  0.00  0.00     0.210 C 
ENDBRANCH  11  16
TORSDOF 3
ENDMDL
MODEL 5
REMARK VINA RESULT:      -5.6     14.467     15.273
REMARK  3 active torsions:
REMARK  status: ('A' for Active; 'I' for Inactive)
REMARK    1  A    between atoms: C_7  and  O_1 
REMARK    2  A    between atoms: N_3  and  O_12 
REMARK    3  A    between atoms: C_13  and  O_14 
ROOT
HETATM    1  C   UNK N   1      33.990  17.282   6.852  0.00  0.00     0.303 A 
HETATM    2  N   UNK N   1      34.602  17.621   8.017  0.00  0.00    -0.184 N 
HETATM    3  C   UNK N   1      34.607  16.719   9.112  0.00  0.00     0.099 A 
HETATM    4  C   UNK N   1      33.944  15.491   8.995  0.00  0.00     0.104 A 
HETATM    5  O   UNK N   1      33.313  15.160   7.845  0.00  0.00    -0.309 OA
HETATM    6  C   UNK N   1      33.285  15.946   6.699  0.00  0.00     0.360 A 
HETATM    7  C   UNK N   1      35.279  17.036  10.300  0.00  0.00     0.038 A 
HETATM    8  C   UNK N   1      35.288  16.131  11.365  0.00  0.00     0.039 A 
HETATM    9  C   UNK N   1      33.946  14.591  10.065  0.00  0.00     0.076 A 
HETATM   10  O   UNK N   1      34.011  18.055   5.905  0.00  0.00    -0.265 OA
HETATM   11  C   UNK N   1      34.621  14.907  11.258  0.00  0.00     0.070 A 
ENDROOT
BRANCH   2  12
HETATM   12  O   UNK N   1      35.220  18.809   8.126  0.00  0.00    -0.280 OA
HETATM   13  H   UNK N   1      34.816  19.522   8.645  0.00  0.00     0.245 HD
ENDBRANCH   2  12
BRANCH   6  14
HETATM   14  O   UNK N   1      31.957  16.167   6.336  0.00  0.00    -0.363 OA
HETATM   15  H   UNK N   1      31.058  16.071   6.688  0.00  0.00     0.213 HD
ENDBRANCH   6  14
BRANCH  11  16
HETATM   16  O   UNK N   1      34.643  14.051  12.308  0.00  0.00    -0.356 OA
HETATM   17  C   UNK N   1      35.697  13.967  13.188  0.00  0.00     0.210 C 
ENDBRANCH  11  16
TORSDOF 3
ENDMDL
MODEL 6
REMARK VINA RESULT:      -5.5     12.610     13.419
REMARK  3 active torsions:
REMARK  status: ('A' for Active; 'I' for Inactive)
REMARK    1  A    between atoms: C_7  and  O_1 
REMARK    2  A    between atoms: N_3  and  O_12 
REMARK    3  A    between atoms: C_13  and  O_14 
ROOT
HETATM    1  C   UNK N   1      31.793  21.698  -2.912  0.00  0.00     0.303 A 
HETATM    2  N   UNK N   1      31.564  20.874  -3.969  0.00  0.00    -0.184 N 
HETATM    3  C   UNK N   1      30.608  21.225  -4.957  0.00  0.00     0.099 A 
HETATM    4  C   UNK N   1      29.875  22.411  -4.813  0.00  0.00     0.104 A 
HETATM    5  O   UNK N   1      30.084  23.221  -3.750  0.00  0.00    -0.309 OA
HETATM    6  C   UNK N   1      31.025  22.997  -2.752  0.00  0.00     0.360 A 
HETATM    7  C   UNK N   1      30.400  20.411  -6.077  0.00  0.00     0.038 A 
HETATM    8  C   UNK N   1      29.466  20.778  -7.049  0.00  0.00     0.039 A 
HETATM    9  C   UNK N   1      28.934  22.771  -5.782  0.00  0.00     0.076 A 
HETATM   10  O   UNK N   1      32.636  21.399  -2.079  0.00  0.00    -0.265 OA
HETATM   11  C   UNK N   1      28.724  21.955  -6.908  0.00  0.00     0.070 A 
ENDROOT
BRANCH   2  12
HETATM   12  O   UNK N   1      32.259  19.731  -4.089  0.00  0.00    -0.280 OA
HETATM   13  H   UNK N   1      31.945  18.923  -3.654  0.00  0.00     0.245 HD
ENDBRANCH   2  12
BRANCH   6  14
HETATM   14  O   UNK N   1      30.380  22.999  -1.515  0.00  0.00    -0.363 OA
HETATM   15  H   UNK N   1      30.255  22.436  -0.735  0.00  0.00     0.213 HD
ENDBRANCH   6  14
BRANCH  11  16
HETATM   16  O   UNK N   1      27.823  22.283  -7.864  0.00  0.00    -0.356 OA
HETATM   17  C   UNK N   1      26.624  21.627  -8.026  0.00  0.00     0.210 C 
ENDBRANCH  11  16
TORSDOF 3
ENDMDL
MODEL 7
REMARK VINA RESULT:      -5.4     14.098     15.271
REMARK  3 active torsions:
REMARK  status: ('A' for Active; 'I' for Inactive)
REMARK    1  A    between atoms: C_7  and  O_1 
REMARK    2  A    between atoms: N_3  and  O_12 
REMARK    3  A    between atoms: C_13  and  O_14 
ROOT
HETATM    1  C   UNK N   1      34.526  15.072  10.759  0.00  0.00     0.303 A 
HETATM    2  N   UNK N   1      33.351  15.403  10.162  0.00  0.00    -0.184 N 
HETATM    3  C   UNK N   1      33.347  16.049   8.899  0.00  0.00     0.099 A 
HETATM    4  C   UNK N   1      34.565  16.376   8.290  0.00  0.00     0.104 A 
HETATM    5  O   UNK N   1      35.737  16.069   8.893  0.00  0.00    -0.309 OA
HETATM    6  C   UNK N   1      35.855  15.398  10.104  0.00  0.00     0.360 A 
HETATM    7  C   UNK N   1      32.142  16.348   8.249  0.00  0.00     0.038 A 
HETATM    8  C   UNK N   1      32.155  16.970   6.998  0.00  0.00     0.039 A 
HETATM    9  C   UNK N   1      34.575  17.008   7.043  0.00  0.00     0.076 A 
HETATM   10  O   UNK N   1      34.520  14.494  11.837  0.00  0.00    -0.265 OA
HETATM   11  C   UNK N   1      33.367  17.308   6.388  0.00  0.00     0.070 A 
ENDROOT
BRANCH   2  12
HETATM   12  O   UNK N   1      32.188  15.101  10.762  0.00  0.00    -0.280 OA
HETATM   13  H   UNK N   1      31.362  15.104  10.253  0.00  0.00     0.245 HD
ENDBRANCH   2  12
BRANCH   6  14
HETATM   14  O   UNK N   1      36.618  16.175  10.977  0.00  0.00    -0.363 OA
HETATM   15  H   UNK N   1      37.539  16.438  11.136  0.00  0.00     0.213 HD
ENDBRANCH   6  14
BRANCH  11  16
HETATM   16  O   UNK N   1      33.348  17.915   5.178  0.00  0.00    -0.356 OA
HETATM   17  C   UNK N   1      32.429  17.615   4.199  0.00  0.00     0.210 C 
ENDBRANCH  11  16
TORSDOF 3
ENDMDL
MODEL 8
REMARK VINA RESULT:      -5.4     11.329     12.263
REMARK  3 active torsions:
REMARK  status: ('A' for Active; 'I' for Inactive)
REMARK    1  A    between atoms: C_7  and  O_1 
REMARK    2  A    between atoms: N_3  and  O_12 
REMARK    3  A    between atoms: C_13  and  O_14 
ROOT
HETATM    1  C   UNK N   1      32.850  17.666   8.094  0.00  0.00     0.303 A 
HETATM    2  N   UNK N   1      33.314  17.637   6.816  0.00  0.00    -0.184 N 
HETATM    3  C   UNK N   1      32.439  17.324   5.744  0.00  0.00     0.099 A 
HETATM    4  C   UNK N   1      31.102  17.007   6.018  0.00  0.00     0.104 A 
HETATM    5  O   UNK N   1      30.643  17.013   7.291  0.00  0.00    -0.309 OA
HETATM    6  C   UNK N   1      31.400  17.349   8.407  0.00  0.00     0.360 A 
HETATM    7  C   UNK N   1      32.891  17.341   4.419  0.00  0.00     0.038 A 
HETATM    8  C   UNK N   1      32.014  17.045   3.372  0.00  0.00     0.039 A 
HETATM    9  C   UNK N   1      30.228  16.702   4.971  0.00  0.00     0.076 A 
HETATM   10  O   UNK N   1      33.606  17.961   9.009  0.00  0.00    -0.265 OA
HETATM   11  C   UNK N   1      30.680  16.720   3.639  0.00  0.00     0.070 A 
ENDROOT
BRANCH   2  12
HETATM   12  O   UNK N   1      34.602  17.924   6.565  0.00  0.00    -0.280 OA
HETATM   13  H   UNK N   1      34.979  17.743   5.691  0.00  0.00     0.245 HD
ENDBRANCH   2  12
BRANCH   6  14
HETATM   14  O   UNK N   1      31.347  16.297   9.321  0.00  0.00    -0.363 OA
HETATM   15  H   UNK N   1      31.607  16.081  10.231  0.00  0.00     0.213 HD
ENDBRANCH   6  14
BRANCH  11  16
HETATM   16  O   UNK N   1      29.854  16.434   2.605  0.00  0.00    -0.356 OA
HETATM   17  C   UNK N   1      28.725  15.656   2.735  0.00  0.00     0.210 C 
ENDBRANCH  11  16
TORSDOF 3
ENDMDL
MODEL 9
REMARK VINA RESULT:      -5.3     17.865     19.416
REMARK  3 active torsions:
REMARK  status: ('A' for Active; 'I' for Inactive)
REMARK    1  A    between atoms: C_7  and  O_1 
REMARK    2  A    between atoms: N_3  and  O_12 
REMARK    3  A    between atoms: C_13  and  O_14 
ROOT
HETATM    1  C   UNK N   1      35.856  14.611  12.566  0.00  0.00     0.303 A 
HETATM    2  N   UNK N   1      36.234  14.404  13.855  0.00  0.00    -0.184 N 
HETATM    3  C   UNK N   1      35.760  13.272  14.568  0.00  0.00     0.099 A 
HETATM    4  C   UNK N   1      34.868  12.390  13.943  0.00  0.00     0.104 A 
HETATM    5  O   UNK N   1      34.472  12.606  12.668  0.00  0.00    -0.309 OA
HETATM    6  C   UNK N   1      34.909  13.654  11.866  0.00  0.00     0.360 A 
HETATM    7  C   UNK N   1      36.184  13.019  15.879  0.00  0.00     0.038 A 
HETATM    8  C   UNK N   1      35.720  11.892  16.562  0.00  0.00     0.039 A 
HETATM    9  C   UNK N   1      34.398  11.269  14.632  0.00  0.00     0.076 A 
HETATM   10  O   UNK N   1      36.288  15.575  11.952  0.00  0.00    -0.265 OA
HETATM   11  C   UNK N   1      34.823  11.012  15.948  0.00  0.00     0.070 A 
ENDROOT
BRANCH   2  12
HETATM   12  O   UNK N   1      37.075  15.264  14.452  0.00  0.00    -0.280 OA
HETATM   13  H   UNK N   1      37.284  15.167  15.394  0.00  0.00     0.245 HD
ENDBRANCH   2  12
BRANCH   6  14
HETATM   14  O   UNK N   1      33.799  14.362  11.405  0.00  0.00    -0.363 OA
HETATM   15  H   UNK N   1      32.996  14.235  10.876  0.00  0.00     0.213 HD
ENDBRANCH   6  14
BRANCH  11  16
HETATM   16  O   UNK N   1      34.387   9.931  16.636  0.00  0.00    -0.356 OA
HETATM   17  C   UNK N   1      34.934   9.528  17.833  0.00  0.00     0.210 C 
ENDBRANCH  11  16
TORSDOF 3
ENDMDL
