MODEL 1
REMARK VINA RESULT:      -8.1      0.000      0.000
REMARK  4 active torsions:
REMARK  status: ('A' for Active; 'I' for Inactive)
REMARK    1  A    between atoms: C_9  and  C_10 
REMARK    2  A    between atoms: C_13  and  N_25 
REMARK       I    between atoms: C_14  and  N_25 
REMARK    3  A    between atoms: C_19  and  S_21 
REMARK    4  A    between atoms: S_21  and  N_23 
ROOT
HETATM    1  C   UNK N   1      28.923  16.358   5.298  0.00  0.00     0.050 A 
HETATM    2  C   UNK N   1      28.979  17.328   6.300  0.00  0.00     0.079 A 
HETATM    3  C   UNK N   1      27.877  16.387   4.393  0.00  0.00     0.108 A 
HETATM    4  C   UNK N   1      26.982  18.300   5.469  0.00  0.00     0.683 A 
HETATM    5  N   UNK N   1      28.006  18.283   6.368  0.00  0.00    -0.189 N 
ATOM      6  HN  UNK N   1      28.045  18.993   7.099  1.00  0.00     0.184 HD
HETATM    7  N   UNK N   1      25.947  19.275   5.583  0.00  0.00    -0.192 N 
HETATM    8  N   UNK N   1      26.930  17.346   4.497  0.00  0.00    -0.202 N 
ATOM      9  HN  UNK N   1      26.158  17.356   3.832  1.00  0.00     0.183 HD
HETATM   10  H   UNK N   1      26.000  19.924   6.321  0.00  0.00     0.184 HD
ENDROOT
BRANCH   7  11
HETATM   11  C   UNK N   1      24.837  19.365   4.689  0.00  0.00     0.049 A 
HETATM   12  C   UNK N   1      23.714  18.541   4.847  0.00  0.00     0.031 A 
HETATM   13  C   UNK N   1      22.609  18.671   4.020  0.00  0.00     0.027 A 
HETATM   14  C   UNK N   1      22.604  19.626   3.007  0.00  0.00     0.079 A 
HETATM   15  C   UNK N   1      23.722  20.453   2.821  0.00  0.00     0.027 A 
HETATM   16  C   UNK N   1      24.840  20.318   3.660  0.00  0.00     0.031 A 
BRANCH  14  17
HETATM   17  S   UNK N   1      21.135  19.794   2.001  0.00  0.00     0.256 S 
HETATM   18  O   UNK N   1      19.690  19.772   2.515  0.00  0.00    -0.201 OA
HETATM   19  O   UNK N   1      21.168  20.537   0.657  0.00  0.00    -0.201 OA
BRANCH  17  20
HETATM   20  N   UNK N   1      21.182  21.403   2.722  0.00  0.00    -0.324 N 
HETATM   21  H   UNK N   1      21.109  22.384   2.995  0.00  0.00     0.169 HD
HETATM   22  H   UNK N   1      21.740  21.125   3.530  0.00  0.00     0.169 HD
ENDBRANCH  17  20
ENDBRANCH  14  17
ENDBRANCH   7  11
BRANCH   2  23
HETATM   23  C   UNK N   1      30.077  17.306   7.288  0.00  0.00     0.083 A 
HETATM   24  N   UNK N   1      31.394  17.331   7.009  0.00  0.00    -0.305 N 
HETATM   25  C   UNK N   1      32.056  17.383   5.822  0.00  0.00     0.099 A 
HETATM   26  C   UNK N   1      32.023  17.289   8.191  0.00  0.00     0.111 A 
HETATM   27  C   UNK N   1      33.457  17.395   5.837  0.00  0.00     0.018 A 
HETATM   28  C   UNK N   1      34.134  17.352   7.071  0.00  0.00     0.005 A 
HETATM   29  C   UNK N   1      33.412  17.298   8.274  0.00  0.00     0.049 A 
HETATM   30  N   UNK N   1      31.165  17.238   9.229  0.00  0.00    -0.350 N 
HETATM   31  C   UNK N   1      29.929  17.248   8.668  0.00  0.00     0.122 A 
ATOM     32  HN  UNK N   1      31.395  17.201  10.223  1.00  0.00     0.166 HD
ENDBRANCH   2  23
TORSDOF 4
ENDMDL
MODEL 2
REMARK VINA RESULT:      -7.9      1.511      2.252
REMARK  4 active torsions:
REMARK  status: ('A' for Active; 'I' for Inactive)
REMARK    1  A    between atoms: C_9  and  C_10 
REMARK    2  A    between atoms: C_13  and  N_25 
REMARK       I    between atoms: C_14  and  N_25 
REMARK    3  A    between atoms: C_19  and  S_21 
REMARK    4  A    between atoms: S_21  and  N_23 
ROOT
HETATM    1  C   UNK N   1      29.505  16.147   3.778  0.00  0.00     0.050 A 
HETATM    2  C   UNK N   1      30.006  17.298   4.387  0.00  0.00     0.079 A 
HETATM    3  C   UNK N   1      28.180  16.120   3.379  0.00  0.00     0.108 A 
HETATM    4  C   UNK N   1      27.882  18.332   4.177  0.00  0.00     0.683 A 
HETATM    5  N   UNK N   1      29.184  18.372   4.576  0.00  0.00    -0.189 N 
ATOM      6  HN  UNK N   1      29.548  19.215   5.021  1.00  0.00     0.184 HD
HETATM    7  N   UNK N   1      27.023  19.444   4.427  0.00  0.00    -0.192 N 
HETATM    8  N   UNK N   1      27.398  17.202   3.589  0.00  0.00    -0.202 N 
ATOM      9  HN  UNK N   1      26.420  17.172   3.300  1.00  0.00     0.183 HD
HETATM   10  H   UNK N   1      27.401  20.227   4.888  0.00  0.00     0.184 HD
ENDROOT
BRANCH   7  11
HETATM   11  C   UNK N   1      25.648  19.488   4.047  0.00  0.00     0.049 A 
HETATM   12  C   UNK N   1      24.704  18.646   4.652  0.00  0.00     0.031 A 
HETATM   13  C   UNK N   1      23.358  18.732   4.330  0.00  0.00     0.027 A 
HETATM   14  C   UNK N   1      22.924  19.659   3.387  0.00  0.00     0.079 A 
HETATM   15  C   UNK N   1      23.852  20.503   2.758  0.00  0.00     0.027 A 
HETATM   16  C   UNK N   1      25.214  20.413   3.085  0.00  0.00     0.031 A 
BRANCH  14  17
HETATM   17  S   UNK N   1      21.172  19.770   3.045  0.00  0.00     0.256 S 
HETATM   18  O   UNK N   1      20.299  18.648   2.469  0.00  0.00    -0.201 OA
HETATM   19  O   UNK N   1      20.270  20.754   3.807  0.00  0.00    -0.201 OA
BRANCH  17  20
HETATM   20  N   UNK N   1      21.123  18.811   4.525  0.00  0.00    -0.324 N 
HETATM   21  H   UNK N   1      21.152  18.120   5.275  0.00  0.00     0.169 HD
HETATM   22  H   UNK N   1      20.803  19.577   5.119  0.00  0.00     0.169 HD
ENDBRANCH  17  20
ENDBRANCH  14  17
ENDBRANCH   7  11
BRANCH   2  23
HETATM   23  C   UNK N   1      31.412  17.343   4.837  0.00  0.00     0.083 A 
HETATM   24  N   UNK N   1      31.834  17.368   6.115  0.00  0.00    -0.305 N 
HETATM   25  C   UNK N   1      31.143  17.356   7.286  0.00  0.00     0.099 A 
HETATM   26  C   UNK N   1      33.172  17.415   6.061  0.00  0.00     0.111 A 
HETATM   27  C   UNK N   1      31.862  17.393   8.489  0.00  0.00     0.018 A 
HETATM   28  C   UNK N   1      33.269  17.442   8.450  0.00  0.00     0.005 A 
HETATM   29  C   UNK N   1      33.944  17.453   7.219  0.00  0.00     0.049 A 
HETATM   30  N   UNK N   1      33.636  17.421   4.796  0.00  0.00    -0.350 N 
HETATM   31  C   UNK N   1      32.529  17.376   4.012  0.00  0.00     0.122 A 
ATOM     32  HN  UNK N   1      34.611  17.452   4.493  1.00  0.00     0.166 HD
ENDBRANCH   2  23
TORSDOF 4
ENDMDL
MODEL 3
REMARK VINA RESULT:      -7.8      4.018      6.518
REMARK  4 active torsions:
REMARK  status: ('A' for Active; 'I' for Inactive)
REMARK    1  A    between atoms: C_9  and  C_10 
REMARK    2  A    between atoms: C_13  and  N_25 
REMARK       I    between atoms: C_14  and  N_25 
REMARK    3  A    between atoms: C_19  and  S_21 
REMARK    4  A    between atoms: S_21  and  N_23 
ROOT
HETATM    1  C   UNK N   1      34.933  17.663   8.772  0.00  0.00     0.050 A 
HETATM    2  C   UNK N   1      34.437  16.554   9.460  0.00  0.00     0.079 A 
HETATM    3  C   UNK N   1      34.067  18.417   7.999  0.00  0.00     0.108 A 
HETATM    4  C   UNK N   1      32.272  16.988   8.596  0.00  0.00     0.683 A 
HETATM    5  N   UNK N   1      33.113  16.237   9.359  0.00  0.00    -0.189 N 
ATOM      6  HN  UNK N   1      32.748  15.427   9.862  1.00  0.00     0.184 HD
HETATM    7  N   UNK N   1      30.901  16.614   8.462  0.00  0.00    -0.192 N 
HETATM    8  N   UNK N   1      32.763  18.066   7.922  0.00  0.00    -0.202 N 
ATOM      9  HN  UNK N   1      32.133  18.620   7.344  1.00  0.00     0.183 HD
HETATM   10  H   UNK N   1      30.593  15.808   8.935  0.00  0.00     0.184 HD
ENDROOT
BRANCH   7  11
HETATM   11  C   UNK N   1      29.950  17.340   7.682  0.00  0.00     0.049 A 
HETATM   12  C   UNK N   1      29.759  17.050   6.324  0.00  0.00     0.031 A 
HETATM   13  C   UNK N   1      28.792  17.710   5.581  0.00  0.00     0.027 A 
HETATM   14  C   UNK N   1      27.996  18.684   6.180  0.00  0.00     0.079 A 
HETATM   15  C   UNK N   1      28.180  19.001   7.534  0.00  0.00     0.027 A 
HETATM   16  C   UNK N   1      29.160  18.331   8.283  0.00  0.00     0.031 A 
BRANCH  14  17
HETATM   17  S   UNK N   1      26.726  19.468   5.195  0.00  0.00     0.256 S 
HETATM   18  O   UNK N   1      26.494  20.980   5.072  0.00  0.00    -0.201 OA
HETATM   19  O   UNK N   1      26.133  18.777   3.958  0.00  0.00    -0.201 OA
BRANCH  17  20
HETATM   20  N   UNK N   1      28.126  19.776   4.167  0.00  0.00    -0.324 N 
HETATM   21  H   UNK N   1      28.906  20.129   3.612  0.00  0.00     0.169 HD
HETATM   22  H   UNK N   1      28.295  18.794   3.948  0.00  0.00     0.169 HD
ENDBRANCH  17  20
ENDBRANCH  14  17
ENDBRANCH   7  11
BRANCH   2  23
HETATM   23  C   UNK N   1      35.347  15.725  10.277  0.00  0.00     0.083 A 
HETATM   24  N   UNK N   1      36.109  14.711   9.829  0.00  0.00    -0.305 N 
HETATM   25  C   UNK N   1      36.262  14.189   8.582  0.00  0.00     0.099 A 
HETATM   26  C   UNK N   1      36.762  14.239  10.900  0.00  0.00     0.111 A 
HETATM   27  C   UNK N   1      37.142  13.110   8.411  0.00  0.00     0.018 A 
HETATM   28  C   UNK N   1      37.836  12.602   9.526  0.00  0.00     0.005 A 
HETATM   29  C   UNK N   1      37.649  13.171  10.796  0.00  0.00     0.049 A 
HETATM   30  N   UNK N   1      36.452  14.908  12.027  0.00  0.00    -0.350 N 
HETATM   31  C   UNK N   1      35.555  15.852  11.644  0.00  0.00     0.122 A 
ATOM     32  HN  UNK N   1      36.814  14.742  12.967  1.00  0.00     0.166 HD
ENDBRANCH   2  23
TORSDOF 4
ENDMDL
MODEL 4
REMARK VINA RESULT:      -7.7      5.387      9.723
REMARK  4 active torsions:
REMARK  status: ('A' for Active; 'I' for Inactive)
REMARK    1  A    between atoms: C_9  and  C_10 
REMARK    2  A    between atoms: C_13  and  N_25 
REMARK       I    between atoms: C_14  and  N_25 
REMARK    3  A    between atoms: C_19  and  S_21 
REMARK    4  A    between atoms: S_21  and  N_23 
ROOT
HETATM    1  C   UNK N   1      26.138  20.818   5.305  0.00  0.00     0.050 A 
HETATM    2  C   UNK N   1      25.687  19.719   4.574  0.00  0.00     0.079 A 
HETATM    3  C   UNK N   1      27.396  20.772   5.880  0.00  0.00     0.108 A 
HETATM    4  C   UNK N   1      27.728  18.593   5.008  0.00  0.00     0.683 A 
HETATM    5  N   UNK N   1      26.491  18.624   4.438  0.00  0.00    -0.189 N 
ATOM      6  HN  UNK N   1      26.164  17.819   3.903  1.00  0.00     0.184 HD
HETATM    7  N   UNK N   1      28.537  17.422   4.898  0.00  0.00    -0.192 N 
HETATM    8  N   UNK N   1      28.160  19.667   5.726  0.00  0.00    -0.202 N 
ATOM      9  HN  UNK N   1      29.083  19.637   6.160  1.00  0.00     0.183 HD
HETATM   10  H   UNK N   1      28.175  16.653   4.403  0.00  0.00     0.184 HD
ENDROOT
BRANCH   7  11
HETATM   11  C   UNK N   1      29.842  17.301   5.465  0.00  0.00     0.049 A 
HETATM   12  C   UNK N   1      30.990  17.481   4.681  0.00  0.00     0.031 A 
HETATM   13  C   UNK N   1      32.256  17.427   5.242  0.00  0.00     0.027 A 
HETATM   14  C   UNK N   1      32.405  17.182   6.605  0.00  0.00     0.079 A 
HETATM   15  C   UNK N   1      31.271  16.984   7.407  0.00  0.00     0.027 A 
HETATM   16  C   UNK N   1      29.990  17.039   6.835  0.00  0.00     0.031 A 
BRANCH  14  17
HETATM   17  S   UNK N   1      34.055  17.175   7.294  0.00  0.00     0.256 S 
HETATM   18  O   UNK N   1      34.852  18.414   7.723  0.00  0.00    -0.201 OA
HETATM   19  O   UNK N   1      34.601  15.953   8.049  0.00  0.00    -0.201 OA
BRANCH  17  20
HETATM   20  N   UNK N   1      33.126  17.479   8.762  0.00  0.00    -0.324 N 
HETATM   21  H   UNK N   1      32.666  17.503   9.673  0.00  0.00     0.169 HD
HETATM   22  H   UNK N   1      32.692  18.337   8.419  0.00  0.00     0.169 HD
ENDBRANCH  17  20
ENDBRANCH  14  17
ENDBRANCH   7  11
BRANCH   2  23
HETATM   23  C   UNK N   1      24.340  19.738   3.966  0.00  0.00     0.083 A 
HETATM   24  N   UNK N   1      23.314  18.929   4.289  0.00  0.00    -0.305 N 
HETATM   25  C   UNK N   1      23.217  17.930   5.207  0.00  0.00     0.099 A 
HETATM   26  C   UNK N   1      22.298  19.286   3.492  0.00  0.00     0.111 A 
HETATM   27  C   UNK N   1      22.000  17.244   5.323  0.00  0.00     0.018 A 
HETATM   28  C   UNK N   1      20.922  17.606   4.494  0.00  0.00     0.005 A 
HETATM   29  C   UNK N   1      21.064  18.644   3.559  0.00  0.00     0.049 A 
HETATM   30  N   UNK N   1      22.625  20.296   2.662  0.00  0.00    -0.350 N 
HETATM   31  C   UNK N   1      23.917  20.590   2.954  0.00  0.00     0.122 A 
ATOM     32  HN  UNK N   1      22.028  20.744   1.965  1.00  0.00     0.166 HD
ENDBRANCH   2  23
TORSDOF 4
ENDMDL
MODEL 5
REMARK VINA RESULT:      -7.7      5.478      9.777
REMARK  4 active torsions:
REMARK  status: ('A' for Active; 'I' for Inactive)
REMARK    1  A    between atoms: C_9  and  C_10 
REMARK    2  A    between atoms: C_13  and  N_25 
REMARK       I    between atoms: C_14  and  N_25 
REMARK    3  A    between atoms: C_19  and  S_21 
REMARK    4  A    between atoms: S_21  and  N_23 
ROOT
HETATM    1  C   UNK N   1      26.176  19.450   4.073  0.00  0.00     0.050 A 
HETATM    2  C   UNK N   1      25.505  18.511   4.857  0.00  0.00     0.079 A 
HETATM    3  C   UNK N   1      27.542  19.604   4.230  0.00  0.00     0.108 A 
HETATM    4  C   UNK N   1      27.551  17.925   5.903  0.00  0.00     0.683 A 
HETATM    5  N   UNK N   1      26.206  17.764   5.760  0.00  0.00    -0.189 N 
ATOM      6  HN  UNK N   1      25.718  17.076   6.334  1.00  0.00     0.184 HD
HETATM    7  N   UNK N   1      28.261  17.172   6.885  0.00  0.00    -0.192 N 
HETATM    8  N   UNK N   1      28.199  18.849   5.138  0.00  0.00    -0.202 N 
ATOM      9  HN  UNK N   1      29.204  18.974   5.255  1.00  0.00     0.183 HD
HETATM   10  H   UNK N   1      27.752  16.542   7.443  0.00  0.00     0.184 HD
ENDROOT
BRANCH   7  11
HETATM   11  C   UNK N   1      29.668  17.278   7.106  0.00  0.00     0.049 A 
HETATM   12  C   UNK N   1      30.584  16.927   6.105  0.00  0.00     0.031 A 
HETATM   13  C   UNK N   1      31.948  17.090   6.294  0.00  0.00     0.027 A 
HETATM   14  C   UNK N   1      32.429  17.602   7.497  0.00  0.00     0.079 A 
HETATM   15  C   UNK N   1      31.532  17.946   8.518  0.00  0.00     0.027 A 
HETATM   16  C   UNK N   1      30.151  17.779   8.324  0.00  0.00     0.031 A 
BRANCH  14  17
HETATM   17  S   UNK N   1      34.192  17.845   7.674  0.00  0.00     0.256 S 
HETATM   18  O   UNK N   1      34.868  19.059   8.324  0.00  0.00    -0.201 OA
HETATM   19  O   UNK N   1      35.161  16.654   7.730  0.00  0.00    -0.201 OA
BRANCH  17  20
HETATM   20  N   UNK N   1      33.788  17.402   9.334  0.00  0.00    -0.324 N 
HETATM   21  H   UNK N   1      33.581  16.975  10.237  0.00  0.00     0.169 HD
HETATM   22  H   UNK N   1      33.641  18.361   9.650  0.00  0.00     0.169 HD
ENDBRANCH  17  20
ENDBRANCH  14  17
ENDBRANCH   7  11
BRANCH   2  23
HETATM   23  C   UNK N   1      24.044  18.341   4.719  0.00  0.00     0.083 A 
HETATM   24  N   UNK N   1      23.227  19.099   3.964  0.00  0.00    -0.305 N 
HETATM   25  C   UNK N   1      23.485  20.165   3.160  0.00  0.00     0.099 A 
HETATM   26  C   UNK N   1      21.996  18.603   4.140  0.00  0.00     0.111 A 
HETATM   27  C   UNK N   1      22.415  20.769   2.485  0.00  0.00     0.018 A 
HETATM   28  C   UNK N   1      21.114  20.260   2.658  0.00  0.00     0.005 A 
HETATM   29  C   UNK N   1      20.891  19.157   3.499  0.00  0.00     0.049 A 
HETATM   30  N   UNK N   1      21.980  17.550   4.981  0.00  0.00    -0.350 N 
HETATM   31  C   UNK N   1      23.274  17.376   5.355  0.00  0.00     0.122 A 
ATOM     32  HN  UNK N   1      21.171  17.001   5.274  1.00  0.00     0.166 HD
ENDBRANCH   2  23
TORSDOF 4
ENDMDL
MODEL 6
REMARK VINA RESULT:      -7.7      6.776     10.018
REMARK  4 active torsions:
REMARK  status: ('A' for Active; 'I' for Inactive)
REMARK    1  A    between atoms: C_9  and  C_10 
REMARK    2  A    between atoms: C_13  and  N_25 
REMARK       I    between atoms: C_14  and  N_25 
REMARK    3  A    between atoms: C_19  and  S_21 
REMARK    4  A    between atoms: S_21  and  N_23 
ROOT
HETATM    1  C   UNK N   1      35.022  12.670  11.044  0.00  0.00     0.050 A 
HETATM    2  C   UNK N   1      35.056  13.750  11.927  0.00  0.00     0.079 A 
HETATM    3  C   UNK N   1      34.542  12.866   9.760  0.00  0.00     0.108 A 
HETATM    4  C   UNK N   1      34.148  15.153  10.244  0.00  0.00     0.683 A 
HETATM    5  N   UNK N   1      34.617  14.974  11.510  0.00  0.00    -0.189 N 
ATOM      6  HN  UNK N   1      34.641  15.766  12.154  1.00  0.00     0.184 HD
HETATM    7  N   UNK N   1      33.647  16.427   9.840  0.00  0.00    -0.192 N 
HETATM    8  N   UNK N   1      34.112  14.093   9.389  0.00  0.00    -0.202 N 
ATOM      9  HN  UNK N   1      33.751  14.227   8.445  1.00  0.00     0.183 HD
HETATM   10  H   UNK N   1      33.656  17.158  10.498  0.00  0.00     0.184 HD
ENDROOT
BRANCH   7  11
HETATM   11  C   UNK N   1      33.135  16.704   8.536  0.00  0.00     0.049 A 
HETATM   12  C   UNK N   1      33.973  17.174   7.516  0.00  0.00     0.031 A 
HETATM   13  C   UNK N   1      33.491  17.383   6.233  0.00  0.00     0.027 A 
HETATM   14  C   UNK N   1      32.152  17.132   5.941  0.00  0.00     0.079 A 
HETATM   15  C   UNK N   1      31.291  16.674   6.950  0.00  0.00     0.027 A 
HETATM   16  C   UNK N   1      31.783  16.465   8.248  0.00  0.00     0.031 A 
BRANCH  14  17
HETATM   17  S   UNK N   1      31.589  17.363   4.260  0.00  0.00     0.256 S 
HETATM   18  O   UNK N   1      32.464  17.279   3.003  0.00  0.00    -0.201 OA
HETATM   19  O   UNK N   1      30.130  17.094   3.862  0.00  0.00    -0.201 OA
BRANCH  17  20
HETATM   20  N   UNK N   1      31.751  15.606   4.276  0.00  0.00    -0.324 N 
HETATM   21  H   UNK N   1      32.015  14.622   4.344  0.00  0.00     0.169 HD
HETATM   22  H   UNK N   1      30.801  15.424   3.952  0.00  0.00     0.169 HD
ENDBRANCH  17  20
ENDBRANCH  14  17
ENDBRANCH   7  11
BRANCH   2  23
HETATM   23  C   UNK N   1      35.549  13.561  13.306  0.00  0.00     0.083 A 
HETATM   24  N   UNK N   1      35.173  12.585  14.154  0.00  0.00    -0.305 N 
HETATM   25  C   UNK N   1      34.297  11.556  14.002  0.00  0.00     0.099 A 
HETATM   26  C   UNK N   1      35.856  12.797  15.287  0.00  0.00     0.111 A 
HETATM   27  C   UNK N   1      34.101  10.679  15.078  0.00  0.00     0.018 A 
HETATM   28  C   UNK N   1      34.811  10.887  16.276  0.00  0.00     0.005 A 
HETATM   29  C   UNK N   1      35.707  11.962  16.391  0.00  0.00     0.049 A 
HETATM   30  N   UNK N   1      36.662  13.874  15.208  0.00  0.00    -0.350 N 
HETATM   31  C   UNK N   1      36.474  14.367  13.957  0.00  0.00     0.122 A 
ATOM     32  HN  UNK N   1      37.280  14.241  15.933  1.00  0.00     0.166 HD
ENDBRANCH   2  23
TORSDOF 4
ENDMDL
MODEL 7
REMARK VINA RESULT:      -7.6      1.346      2.132
REMARK  4 active torsions:
REMARK  status: ('A' for Active; 'I' for Inactive)
REMARK    1  A    between atoms: C_9  and  C_10 
REMARK    2  A    between atoms: C_13  and  N_25 
REMARK       I    between atoms: C_14  and  N_25 
REMARK    3  A    between atoms: C_19  and  S_21 
REMARK    4  A    between atoms: S_21  and  N_23 
ROOT
HETATM    1  C   UNK N   1      28.939  18.793   8.039  0.00  0.00     0.050 A 
HETATM    2  C   UNK N   1      29.406  17.812   7.163  0.00  0.00     0.079 A 
HETATM    3  C   UNK N   1      27.745  19.433   7.757  0.00  0.00     0.108 A 
HETATM    4  C   UNK N   1      27.504  18.139   5.785  0.00  0.00     0.683 A 
HETATM    5  N   UNK N   1      28.678  17.502   6.050  0.00  0.00    -0.189 N 
ATOM      6  HN  UNK N   1      29.017  16.785   5.409  1.00  0.00     0.184 HD
HETATM    7  N   UNK N   1      26.780  17.838   4.593  0.00  0.00    -0.192 N 
HETATM    8  N   UNK N   1      27.057  19.100   6.641  0.00  0.00    -0.202 N 
ATOM      9  HN  UNK N   1      26.182  19.582   6.435  1.00  0.00     0.183 HD
HETATM   10  H   UNK N   1      27.155  17.164   3.981  0.00  0.00     0.184 HD
ENDROOT
BRANCH   7  11
HETATM   11  C   UNK N   1      25.544  18.457   4.234  0.00  0.00     0.049 A 
HETATM   12  C   UNK N   1      25.522  19.676   3.541  0.00  0.00     0.031 A 
HETATM   13  C   UNK N   1      24.325  20.246   3.135  0.00  0.00     0.027 A 
HETATM   14  C   UNK N   1      23.118  19.613   3.422  0.00  0.00     0.079 A 
HETATM   15  C   UNK N   1      23.115  18.400   4.126  0.00  0.00     0.027 A 
HETATM   16  C   UNK N   1      24.329  17.826   4.536  0.00  0.00     0.031 A 
BRANCH  14  17
HETATM   17  S   UNK N   1      21.605  20.360   2.831  0.00  0.00     0.256 S 
HETATM   18  O   UNK N   1      21.079  20.299   1.391  0.00  0.00    -0.201 OA
HETATM   19  O   UNK N   1      20.422  20.624   3.776  0.00  0.00    -0.201 OA
BRANCH  17  20
HETATM   20  N   UNK N   1      21.092  18.673   2.903  0.00  0.00    -0.324 N 
HETATM   21  H   UNK N   1      20.695  17.751   3.087  0.00  0.00     0.169 HD
HETATM   22  H   UNK N   1      21.649  18.374   2.103  0.00  0.00     0.169 HD
ENDBRANCH  17  20
ENDBRANCH  14  17
ENDBRANCH   7  11
BRANCH   2  23
HETATM   23  C   UNK N   1      30.687  17.128   7.435  0.00  0.00     0.083 A 
HETATM   24  N   UNK N   1      31.701  16.973   6.565  0.00  0.00    -0.305 N 
HETATM   25  C   UNK N   1      31.841  17.373   5.273  0.00  0.00     0.099 A 
HETATM   26  C   UNK N   1      32.651  16.294   7.222  0.00  0.00     0.111 A 
HETATM   27  C   UNK N   1      33.031  17.062   4.600  0.00  0.00     0.018 A 
HETATM   28  C   UNK N   1      34.040  16.350   5.276  0.00  0.00     0.005 A 
HETATM   29  C   UNK N   1      33.855  15.955   6.611  0.00  0.00     0.049 A 
HETATM   30  N   UNK N   1      32.292  16.002   8.488  0.00  0.00    -0.350 N 
HETATM   31  C   UNK N   1      31.048  16.525   8.633  0.00  0.00     0.122 A 
ATOM     32  HN  UNK N   1      32.838  15.496   9.187  1.00  0.00     0.166 HD
ENDBRANCH   2  23
TORSDOF 4
ENDMDL
MODEL 8
REMARK VINA RESULT:      -7.1      9.330     12.870
REMARK  4 active torsions:
REMARK  status: ('A' for Active; 'I' for Inactive)
REMARK    1  A    between atoms: C_9  and  C_10 
REMARK    2  A    between atoms: C_13  and  N_25 
REMARK       I    between atoms: C_14  and  N_25 
REMARK    3  A    between atoms: C_19  and  S_21 
REMARK    4  A    between atoms: S_21  and  N_23 
ROOT
HETATM    1  C   UNK N   1      34.308  10.179  13.438  0.00  0.00     0.050 A 
HETATM    2  C   UNK N   1      34.835  11.075  14.369  0.00  0.00     0.079 A 
HETATM    3  C   UNK N   1      34.113  10.600  12.135  0.00  0.00     0.108 A 
HETATM    4  C   UNK N   1      34.953  12.746  12.690  0.00  0.00     0.683 A 
HETATM    5  N   UNK N   1      35.148  12.345  13.977  0.00  0.00    -0.189 N 
ATOM      6  HN  UNK N   1      35.534  13.002  14.656  1.00  0.00     0.184 HD
HETATM    7  N   UNK N   1      35.239  14.092  12.309  0.00  0.00    -0.192 N 
HETATM    8  N   UNK N   1      34.432  11.868  11.788  0.00  0.00    -0.202 N 
ATOM      9  HN  UNK N   1      34.277  12.174  10.828  1.00  0.00     0.183 HD
HETATM   10  H   UNK N   1      35.579  14.706  12.998  0.00  0.00     0.184 HD
ENDROOT
BRANCH   7  11
HETATM   11  C   UNK N   1      35.062  14.599  10.986  0.00  0.00     0.049 A 
HETATM   12  C   UNK N   1      36.051  14.423  10.007  0.00  0.00     0.031 A 
HETATM   13  C   UNK N   1      35.854  14.859   8.706  0.00  0.00     0.027 A 
HETATM   14  C   UNK N   1      34.663  15.488   8.353  0.00  0.00     0.079 A 
HETATM   15  C   UNK N   1      33.665  15.687   9.319  0.00  0.00     0.027 A 
HETATM   16  C   UNK N   1      33.868  15.246  10.637  0.00  0.00     0.031 A 
BRANCH  14  17
HETATM   17  S   UNK N   1      34.432  15.983   6.650  0.00  0.00     0.256 S 
HETATM   18  O   UNK N   1      33.700  15.172   5.573  0.00  0.00    -0.201 OA
HETATM   19  O   UNK N   1      34.423  17.464   6.243  0.00  0.00    -0.201 OA
BRANCH  17  20
HETATM   20  N   UNK N   1      32.810  16.297   7.269  0.00  0.00    -0.324 N 
HETATM   21  H   UNK N   1      31.943  16.635   7.687  0.00  0.00     0.169 HD
HETATM   22  H   UNK N   1      32.412  15.422   6.929  0.00  0.00     0.169 HD
ENDBRANCH  17  20
ENDBRANCH  14  17
ENDBRANCH   7  11
BRANCH   2  23
HETATM   23  C   UNK N   1      35.035  10.653  15.770  0.00  0.00     0.083 A 
HETATM   24  N   UNK N   1      35.095  11.466  16.841  0.00  0.00    -0.305 N 
HETATM   25  C   UNK N   1      34.993  12.818  16.945  0.00  0.00     0.099 A 
HETATM   26  C   UNK N   1      35.294  10.668  17.899  0.00  0.00     0.111 A 
HETATM   27  C   UNK N   1      35.099  13.402  18.215  0.00  0.00     0.018 A 
HETATM   28  C   UNK N   1      35.308  12.578  19.338  0.00  0.00     0.005 A 
HETATM   29  C   UNK N   1      35.408  11.186  19.186  0.00  0.00     0.049 A 
HETATM   30  N   UNK N   1      35.366   9.367  17.557  0.00  0.00    -0.350 N 
HETATM   31  C   UNK N   1      35.204   9.346  16.209  0.00  0.00     0.122 A 
ATOM     32  HN  UNK N   1      35.510   8.569  18.177  1.00  0.00     0.166 HD
ENDBRANCH   2  23
TORSDOF 4
ENDMDL
MODEL 9
REMARK VINA RESULT:      -7.0     10.134     13.788
REMARK  4 active torsions:
REMARK  status: ('A' for Active; 'I' for Inactive)
REMARK    1  A    between atoms: C_9  and  C_10 
REMARK    2  A    between atoms: C_13  and  N_25 
REMARK       I    between atoms: C_14  and  N_25 
REMARK    3  A    between atoms: C_19  and  S_21 
REMARK    4  A    between atoms: S_21  and  N_23 
ROOT
HETATM    1  C   UNK N   1      34.377  11.364  15.147  0.00  0.00     0.050 A 
HETATM    2  C   UNK N   1      35.090  12.397  15.757  0.00  0.00     0.079 A 
HETATM    3  C   UNK N   1      34.200  11.389  13.775  0.00  0.00     0.108 A 
HETATM    4  C   UNK N   1      35.416  13.419  13.643  0.00  0.00     0.683 A 
HETATM    5  N   UNK N   1      35.597  13.408  14.993  0.00  0.00    -0.189 N 
ATOM      6  HN  UNK N   1      36.119  14.164  15.437  1.00  0.00     0.184 HD
HETATM    7  N   UNK N   1      35.911  14.508  12.864  0.00  0.00    -0.192 N 
HETATM    8  N   UNK N   1      34.714  12.411  13.054  0.00  0.00    -0.202 N 
ATOM      9  HN  UNK N   1      34.572  12.427  12.044  1.00  0.00     0.183 HD
HETATM   10  H   UNK N   1      36.380  15.236  13.331  0.00  0.00     0.184 HD
ENDROOT
BRANCH   7  11
HETATM   11  C   UNK N   1      35.765  14.604  11.447  0.00  0.00     0.049 A 
HETATM   12  C   UNK N   1      36.710  14.033  10.583  0.00  0.00     0.031 A 
HETATM   13  C   UNK N   1      36.537  14.070   9.208  0.00  0.00     0.027 A 
HETATM   14  C   UNK N   1      35.414  14.688   8.663  0.00  0.00     0.079 A 
HETATM   15  C   UNK N   1      34.462  15.279   9.507  0.00  0.00     0.027 A 
HETATM   16  C   UNK N   1      34.641  15.241  10.899  0.00  0.00     0.031 A 
BRANCH  14  17
HETATM   17  S   UNK N   1      35.207  14.662   6.887  0.00  0.00     0.256 S 
HETATM   18  O   UNK N   1      34.402  13.624   6.094  0.00  0.00    -0.201 OA
HETATM   19  O   UNK N   1      35.309  15.948   6.052  0.00  0.00    -0.201 OA
BRANCH  17  20
HETATM   20  N   UNK N   1      33.620  15.273   7.359  0.00  0.00    -0.324 N 
HETATM   21  H   UNK N   1      32.796  15.739   7.739  0.00  0.00     0.169 HD
HETATM   22  H   UNK N   1      33.096  14.640   6.754  0.00  0.00     0.169 HD
ENDBRANCH  17  20
ENDBRANCH  14  17
ENDBRANCH   7  11
BRANCH   2  23
HETATM   23  C   UNK N   1      35.276  12.400  17.223  0.00  0.00     0.083 A 
HETATM   24  N   UNK N   1      35.779  11.391  17.959  0.00  0.00    -0.305 N 
HETATM   25  C   UNK N   1      36.234  10.161  17.598  0.00  0.00     0.099 A 
HETATM   26  C   UNK N   1      35.761  11.816  19.229  0.00  0.00     0.111 A 
HETATM   27  C   UNK N   1      36.706   9.302  18.600  0.00  0.00     0.018 A 
HETATM   28  C   UNK N   1      36.694   9.733  19.941  0.00  0.00     0.005 A 
HETATM   29  C   UNK N   1      36.215  11.011  20.270  0.00  0.00     0.049 A 
HETATM   30  N   UNK N   1      35.265  13.064  19.347  0.00  0.00    -0.350 N 
HETATM   31  C   UNK N   1      34.955  13.443  18.082  0.00  0.00     0.122 A 
ATOM     32  HN  UNK N   1      35.150  13.607  20.204  1.00  0.00     0.166 HD
ENDBRANCH   2  23
TORSDOF 4
ENDMDL
