REMARK  4 active torsions:
REMARK  status: ('A' for Active; 'I' for Inactive)
REMARK    1  A    between atoms: C_9  and  C_10 
REMARK    2  A    between atoms: C_13  and  N_25 
REMARK       I    between atoms: C_14  and  N_25 
REMARK    3  A    between atoms: C_19  and  S_21 
REMARK    4  A    between atoms: S_21  and  N_23 
ROOT
HETATM    1  C   UNK N   1       2.271  -0.755   0.034  0.00  0.00     0.050 A 
HETATM    2  C   UNK N   1       1.323  -1.779   0.039  0.00  0.00     0.079 A 
HETATM    3  C   UNK N   1       1.840   0.560   0.018  0.00  0.00     0.108 A 
HETATM    4  C   UNK N   1      -0.416  -0.167   0.014  0.00  0.00     0.683 A 
HETATM    5  N   UNK N   1      -0.006  -1.466   0.029  0.00  0.00    -0.189 N 
ATOM      6  HN  UNK N   1      -0.701  -2.213   0.033  1.00  0.00     0.184 HD
HETATM    7  N   UNK N   1      -1.808   0.143  -0.046  0.00  0.00    -0.192 N 
HETATM    8  N   UNK N   1       0.515   0.828   0.003  0.00  0.00    -0.202 N 
ATOM      9  HN  UNK N   1       0.205   1.799  -0.018  1.00  0.00     0.183 HD
HETATM   10  H   UNK N   1      -2.448  -0.604  -0.074  0.00  0.00     0.184 HD
ENDROOT
BRANCH   7  11
HETATM   11  C   UNK N   1      -2.327   1.473  -0.068  0.00  0.00     0.049 A 
HETATM   12  C   UNK N   1      -1.506   2.573   0.217  0.00  0.00     0.031 A 
HETATM   13  C   UNK N   1      -1.992   3.869   0.134  0.00  0.00     0.027 A 
HETATM   14  C   UNK N   1      -3.317   4.095  -0.230  0.00  0.00     0.079 A 
HETATM   15  C   UNK N   1      -4.161   3.009  -0.506  0.00  0.00     0.027 A 
HETATM   16  C   UNK N   1      -3.666   1.698  -0.420  0.00  0.00     0.031 A 
BRANCH  14  17
HETATM   17  S   UNK N   1      -3.883   5.785  -0.377  0.00  0.00     0.256 S 
HETATM   18  O   UNK N   1      -5.346   6.246  -0.341  0.00  0.00    -0.201 OA
HETATM   19  O   UNK N   1      -2.985   6.966   0.022  0.00  0.00    -0.201 OA
BRANCH  17  20
HETATM   20  N   UNK N   1      -4.096   5.554   1.359  0.00  0.00    -0.324 N 
HETATM   21  H   UNK N   1      -4.274   5.594   2.363  0.00  0.00     0.169 HD
HETATM   22  H   UNK N   1      -3.792   4.580   1.359  0.00  0.00     0.169 HD
ENDBRANCH  17  20
ENDBRANCH  14  17
ENDBRANCH   7  11
BRANCH   2  23
HETATM   23  C   UNK N   1       1.760  -3.190   0.039  0.00  0.00     0.083 A 
HETATM   24  N   UNK N   1       3.034  -3.624   0.019  0.00  0.00    -0.305 N 
HETATM   25  C   UNK N   1       4.211  -2.943  -0.001  0.00  0.00     0.099 A 
HETATM   26  C   UNK N   1       2.968  -4.962   0.019  0.00  0.00     0.111 A 
HETATM   27  C   UNK N   1       5.407  -3.674  -0.022  0.00  0.00     0.018 A 
HETATM   28  C   UNK N   1       5.356  -5.081  -0.022  0.00  0.00     0.005 A 
HETATM   29  C   UNK N   1       4.119  -5.745  -0.001  0.00  0.00     0.049 A 
HETATM   30  N   UNK N   1       1.699  -5.415   0.038  0.00  0.00    -0.350 N 
HETATM   31  C   UNK N   1       0.925  -4.300   0.050  0.00  0.00     0.122 A 
ATOM     32  HN  UNK N   1       1.387  -6.387   0.043  1.00  0.00     0.166 HD
ENDBRANCH   2  23
TORSDOF 4
