REMARK  1 active torsions:
REMARK  status: ('A' for Active; 'I' for Inactive)
REMARK       I    between atoms: C_2  and  N_4 
REMARK       I    between atoms: N_4  and  C_5 
REMARK    1  A    between atoms: C_12  and  C_13 
ROOT
HETATM    1  O   UNK N   1      -4.827  -3.248  -0.524  0.00  0.00    -0.273 OA
HETATM    2  C   UNK N   1      -3.636  -3.156  -0.283  0.00  0.00     0.231 C 
HETATM    3  C   UNK N   1      -2.849  -4.412  -0.083  0.00  0.00     0.118 C 
HETATM    4  N   UNK N   1      -3.075  -1.919  -0.197  0.00  0.00    -0.160 N 
HETATM    5  C   UNK N   1      -1.700  -1.625   0.031  0.00  0.00     0.685 A 
HETATM    6  N   UNK N   1      -1.313  -0.326   0.129  0.00  0.00    -0.189 N 
ATOM      7  HN  UNK N   1      -2.018   0.410   0.079  1.00  0.00     0.184 HD
HETATM    8  N   UNK N   1      -0.765  -2.612   0.099  0.00  0.00    -0.202 N 
ATOM      9  HN  UNK N   1      -1.057  -3.586   0.018  1.00  0.00     0.183 HD
HETATM   10  C   UNK N   1       0.548  -2.320   0.273  0.00  0.00     0.108 A 
HETATM   11  C   UNK N   1       0.957  -0.994   0.366  0.00  0.00     0.050 A 
HETATM   12  C   UNK N   1      -0.006   0.015   0.294  0.00  0.00     0.079 A 
HETATM   13  H   UNK N   1      -3.680  -1.150  -0.302  0.00  0.00     0.187 HD
ENDROOT
BRANCH  12  14
HETATM   14  C   UNK N   1       0.389   1.446   0.304  0.00  0.00     0.090 A 
HETATM   15  N   UNK N   1       1.653   1.913   0.302  0.00  0.00    -0.304 N 
HETATM   16  C   UNK N   1       1.557   3.253   0.243  0.00  0.00     0.112 A 
HETATM   17  C   UNK N   1       2.844   1.260   0.321  0.00  0.00     0.099 A 
HETATM   18  N   UNK N   1       0.281   3.684   0.221  0.00  0.00    -0.344 N 
HETATM   19  C   UNK N   1       2.692   4.058   0.184  0.00  0.00     0.049 A 
HETATM   20  C   UNK N   1      -0.458   2.550   0.260  0.00  0.00     0.036 A 
ATOM     21  HN  UNK N   1      -0.054   4.647   0.183  1.00  0.00     0.167 HD
HETATM   22  C   UNK N   1      -1.948   2.545   0.236  0.00  0.00     0.070 C 
HETATM   23  C   UNK N   1       3.942   3.420   0.198  0.00  0.00     0.005 A 
HETATM   24  C   UNK N   1       4.023   2.017   0.272  0.00  0.00     0.018 A 
ENDBRANCH  12  14
TORSDOF 1
