MODEL 1
REMARK VINA RESULT:      -6.7      0.000      0.000
REMARK  1 active torsions:
REMARK  status: ('A' for Active; 'I' for Inactive)
REMARK       I    between atoms: C_2  and  N_4 
REMARK       I    between atoms: N_4  and  C_5 
REMARK    1  A    between atoms: C_12  and  C_13 
ROOT
HETATM    1  O   UNK N   1      34.809  12.841  12.746  0.00  0.00    -0.273 OA
HETATM    2  C   UNK N   1      34.910  13.873  12.106  0.00  0.00     0.231 C 
HETATM    3  C   UNK N   1      36.100  14.748  12.345  0.00  0.00     0.118 C 
HETATM    4  N   UNK N   1      33.935  14.192  11.211  0.00  0.00    -0.160 N 
HETATM    5  C   UNK N   1      33.911  15.327  10.351  0.00  0.00     0.685 A 
HETATM    6  N   UNK N   1      32.836  15.516   9.542  0.00  0.00    -0.189 N 
ATOM      7  HN  UNK N   1      32.051  14.867   9.595  1.00  0.00     0.184 HD
HETATM    8  N   UNK N   1      34.961  16.191  10.286  0.00  0.00    -0.202 N 
ATOM      9  HN  UNK N   1      35.771  16.043  10.889  1.00  0.00     0.183 HD
HETATM   10  C   UNK N   1      34.948  17.245   9.433  0.00  0.00     0.108 A 
HETATM   11  C   UNK N   1      33.857  17.443   8.594  0.00  0.00     0.050 A 
HETATM   12  C   UNK N   1      32.782  16.553   8.663  0.00  0.00     0.079 A 
HETATM   13  H   UNK N   1      33.170  13.576  11.152  0.00  0.00     0.187 HD
ENDROOT
BRANCH  12  14
HETATM   14  C   UNK N   1      31.633  16.674   7.731  0.00  0.00     0.090 A 
HETATM   15  N   UNK N   1      30.488  17.340   7.977  0.00  0.00    -0.304 N 
HETATM   16  C   UNK N   1      29.756  17.254   6.852  0.00  0.00     0.112 A 
HETATM   17  C   UNK N   1      30.069  18.016   9.078  0.00  0.00     0.099 A 
HETATM   18  N   UNK N   1      30.369  16.547   5.883  0.00  0.00    -0.344 N 
HETATM   19  C   UNK N   1      28.514  17.876   6.747  0.00  0.00     0.049 A 
HETATM   20  C   UNK N   1      31.551  16.179   6.432  0.00  0.00     0.036 A 
ATOM     21  HN  UNK N   1      30.023  16.337   4.947  1.00  0.00     0.167 HD
HETATM   22  C   UNK N   1      32.578  15.383   5.702  0.00  0.00     0.070 C 
HETATM   23  C   UNK N   1      28.049  18.588   7.863  0.00  0.00     0.005 A 
HETATM   24  C   UNK N   1      28.823  18.657   9.036  0.00  0.00     0.018 A 
ENDBRANCH  12  14
TORSDOF 1
ENDMDL
MODEL 2
REMARK VINA RESULT:      -6.7      1.470      2.895
REMARK  1 active torsions:
REMARK  status: ('A' for Active; 'I' for Inactive)
REMARK       I    between atoms: C_2  and  N_4 
REMARK       I    between atoms: N_4  and  C_5 
REMARK    1  A    between atoms: C_12  and  C_13 
ROOT
HETATM    1  O   UNK N   1      34.587  13.598  12.339  0.00  0.00    -0.273 OA
HETATM    2  C   UNK N   1      34.681  14.621  11.684  0.00  0.00     0.231 C 
HETATM    3  C   UNK N   1      35.826  15.543  11.960  0.00  0.00     0.118 C 
HETATM    4  N   UNK N   1      33.739  14.887  10.739  0.00  0.00    -0.160 N 
HETATM    5  C   UNK N   1      33.715  16.005   9.856  0.00  0.00     0.685 A 
HETATM    6  N   UNK N   1      32.673  16.139   8.994  0.00  0.00    -0.189 N 
ATOM      7  HN  UNK N   1      31.909  15.462   9.024  1.00  0.00     0.184 HD
HETATM    8  N   UNK N   1      34.735  16.905   9.823  0.00  0.00    -0.202 N 
ATOM      9  HN  UNK N   1      35.520  16.798  10.466  1.00  0.00     0.183 HD
HETATM   10  C   UNK N   1      34.724  17.942   8.948  0.00  0.00     0.108 A 
HETATM   11  C   UNK N   1      33.667  18.085   8.056  0.00  0.00     0.050 A 
HETATM   12  C   UNK N   1      32.623  17.157   8.093  0.00  0.00     0.079 A 
HETATM   13  H   UNK N   1      32.999  14.243  10.657  0.00  0.00     0.187 HD
ENDROOT
BRANCH  12  14
HETATM   14  C   UNK N   1      31.516  17.219   7.106  0.00  0.00     0.090 A 
HETATM   15  N   UNK N   1      31.637  17.040   5.776  0.00  0.00    -0.304 N 
HETATM   16  C   UNK N   1      30.391  17.110   5.274  0.00  0.00     0.112 A 
HETATM   17  C   UNK N   1      32.729  16.802   5.005  0.00  0.00     0.099 A 
HETATM   18  N   UNK N   1      29.460  17.341   6.220  0.00  0.00    -0.344 N 
HETATM   19  C   UNK N   1      30.147  16.925   3.916  0.00  0.00     0.049 A 
HETATM   20  C   UNK N   1      30.163  17.411   7.375  0.00  0.00     0.036 A 
ATOM     21  HN  UNK N   1      28.452  17.441   6.095  1.00  0.00     0.167 HD
HETATM   22  C   UNK N   1      29.530  17.641   8.704  0.00  0.00     0.070 C 
HETATM   23  C   UNK N   1      31.250  16.673   3.086  0.00  0.00     0.005 A 
HETATM   24  C   UNK N   1      32.548  16.616   3.627  0.00  0.00     0.018 A 
ENDBRANCH  12  14
TORSDOF 1
ENDMDL
MODEL 3
REMARK VINA RESULT:      -6.4      3.543      5.453
REMARK  1 active torsions:
REMARK  status: ('A' for Active; 'I' for Inactive)
REMARK       I    between atoms: C_2  and  N_4 
REMARK       I    between atoms: N_4  and  C_5 
REMARK    1  A    between atoms: C_12  and  C_13 
ROOT
HETATM    1  O   UNK N   1      31.166   9.062   9.355  0.00  0.00    -0.273 OA
HETATM    2  C   UNK N   1      32.305   9.489   9.431  0.00  0.00     0.231 C 
HETATM    3  C   UNK N   1      33.434   8.508   9.465  0.00  0.00     0.118 C 
HETATM    4  N   UNK N   1      32.502  10.834   9.491  0.00  0.00    -0.160 N 
HETATM    5  C   UNK N   1      33.756  11.507   9.537  0.00  0.00     0.685 A 
HETATM    6  N   UNK N   1      33.772  12.862   9.636  0.00  0.00    -0.189 N 
ATOM      7  HN  UNK N   1      32.889  13.367   9.717  1.00  0.00     0.184 HD
HETATM    8  N   UNK N   1      34.931  10.827   9.432  0.00  0.00    -0.202 N 
ATOM      9  HN  UNK N   1      34.916   9.810   9.350  1.00  0.00     0.183 HD
HETATM   10  C   UNK N   1      36.119  11.480   9.433  0.00  0.00     0.108 A 
HETATM   11  C   UNK N   1      36.148  12.867   9.525  0.00  0.00     0.050 A 
HETATM   12  C   UNK N   1      34.940  13.561   9.632  0.00  0.00     0.079 A 
HETATM   13  H   UNK N   1      31.696  11.399   9.505  0.00  0.00     0.187 HD
ENDROOT
BRANCH  12  14
HETATM   14  C   UNK N   1      34.913  15.045   9.648  0.00  0.00     0.090 A 
HETATM   15  N   UNK N   1      34.577  15.837   8.611  0.00  0.00    -0.304 N 
HETATM   16  C   UNK N   1      34.619  17.099   9.074  0.00  0.00     0.112 A 
HETATM   17  C   UNK N   1      34.221  15.532   7.336  0.00  0.00     0.099 A 
HETATM   18  N   UNK N   1      34.984  17.167  10.369  0.00  0.00    -0.344 N 
HETATM   19  C   UNK N   1      34.283  18.179   8.263  0.00  0.00     0.049 A 
HETATM   20  C   UNK N   1      35.171  15.876  10.734  0.00  0.00     0.036 A 
ATOM     21  HN  UNK N   1      35.094  18.001  10.946  1.00  0.00     0.167 HD
HETATM   22  C   UNK N   1      35.572  15.467  12.110  0.00  0.00     0.070 C 
HETATM   23  C   UNK N   1      33.907  17.905   6.939  0.00  0.00     0.005 A 
HETATM   24  C   UNK N   1      33.880  16.579   6.468  0.00  0.00     0.018 A 
ENDBRANCH  12  14
TORSDOF 1
ENDMDL
MODEL 4
REMARK VINA RESULT:      -6.3     13.774     16.290
REMARK  1 active torsions:
REMARK  status: ('A' for Active; 'I' for Inactive)
REMARK       I    between atoms: C_2  and  N_4 
REMARK       I    between atoms: N_4  and  C_5 
REMARK    1  A    between atoms: C_12  and  C_13 
ROOT
HETATM    1  O   UNK N   1      33.322  21.806  -5.408  0.00  0.00    -0.273 OA
HETATM    2  C   UNK N   1      32.412  21.954  -4.611  0.00  0.00     0.231 C 
HETATM    3  C   UNK N   1      32.581  21.413  -3.227  0.00  0.00     0.118 C 
HETATM    4  N   UNK N   1      31.281  22.595  -5.013  0.00  0.00    -0.160 N 
HETATM    5  C   UNK N   1      30.144  22.894  -4.209  0.00  0.00     0.685 A 
HETATM    6  N   UNK N   1      29.076  23.508  -4.783  0.00  0.00    -0.189 N 
ATOM      7  HN  UNK N   1      29.092  23.705  -5.784  1.00  0.00     0.184 HD
HETATM    8  N   UNK N   1      30.129  22.627  -2.874  0.00  0.00    -0.202 N 
ATOM      9  HN  UNK N   1      30.934  22.173  -2.444  1.00  0.00     0.183 HD
HETATM   10  C   UNK N   1      29.059  22.956  -2.108  0.00  0.00     0.108 A 
HETATM   11  C   UNK N   1      27.963  23.592  -2.683  0.00  0.00     0.050 A 
HETATM   12  C   UNK N   1      27.985  23.865  -4.052  0.00  0.00     0.079 A 
HETATM   13  H   UNK N   1      31.244  22.879  -5.954  0.00  0.00     0.187 HD
ENDROOT
BRANCH  12  14
HETATM   14  C   UNK N   1      26.878  24.617  -4.696  0.00  0.00     0.090 A 
HETATM   15  N   UNK N   1      26.550  25.900  -4.448  0.00  0.00    -0.304 N 
HETATM   16  C   UNK N   1      25.544  26.198  -5.289  0.00  0.00     0.112 A 
HETATM   17  C   UNK N   1      27.077  26.802  -3.579  0.00  0.00     0.099 A 
HETATM   18  N   UNK N   1      25.190  25.158  -6.068  0.00  0.00    -0.344 N 
HETATM   19  C   UNK N   1      24.986  27.474  -5.326  0.00  0.00     0.049 A 
HETATM   20  C   UNK N   1      26.026  24.160  -5.697  0.00  0.00     0.036 A 
ATOM     21  HN  UNK N   1      24.457  25.129  -6.777  1.00  0.00     0.167 HD
HETATM   22  C   UNK N   1      26.006  22.805  -6.318  0.00  0.00     0.070 C 
HETATM   23  C   UNK N   1      25.506  28.436  -4.446  0.00  0.00     0.005 A 
HETATM   24  C   UNK N   1      26.551  28.102  -3.564  0.00  0.00     0.018 A 
ENDBRANCH  12  14
TORSDOF 1
ENDMDL
MODEL 5
REMARK VINA RESULT:      -6.2      4.008      7.582
REMARK  1 active torsions:
REMARK  status: ('A' for Active; 'I' for Inactive)
REMARK       I    between atoms: C_2  and  N_4 
REMARK       I    between atoms: N_4  and  C_5 
REMARK    1  A    between atoms: C_12  and  C_13 
ROOT
HETATM    1  O   UNK N   1      25.485  13.254   3.674  0.00  0.00    -0.273 OA
HETATM    2  C   UNK N   1      25.938  14.385   3.692  0.00  0.00     0.231 C 
HETATM    3  C   UNK N   1      25.433  15.372   2.688  0.00  0.00     0.118 C 
HETATM    4  N   UNK N   1      26.888  14.700   4.614  0.00  0.00    -0.160 N 
HETATM    5  C   UNK N   1      27.492  15.975   4.809  0.00  0.00     0.685 A 
HETATM    6  N   UNK N   1      28.459  16.108   5.754  0.00  0.00    -0.189 N 
ATOM      7  HN  UNK N   1      28.762  15.285   6.276  1.00  0.00     0.184 HD
HETATM    8  N   UNK N   1      27.084  17.068   4.107  0.00  0.00    -0.202 N 
ATOM      9  HN  UNK N   1      26.353  16.968   3.402  1.00  0.00     0.183 HD
HETATM   10  C   UNK N   1      27.635  18.287   4.329  0.00  0.00     0.108 A 
HETATM   11  C   UNK N   1      28.619  18.436   5.300  0.00  0.00     0.050 A 
HETATM   12  C   UNK N   1      29.033  17.313   6.019  0.00  0.00     0.079 A 
HETATM   13  H   UNK N   1      27.189  13.974   5.206  0.00  0.00     0.187 HD
ENDROOT
BRANCH  12  14
HETATM   14  C   UNK N   1      30.019  17.435   7.122  0.00  0.00     0.090 A 
HETATM   15  N   UNK N   1      31.359  17.426   6.983  0.00  0.00    -0.304 N 
HETATM   16  C   UNK N   1      31.864  17.631   8.213  0.00  0.00     0.112 A 
HETATM   17  C   UNK N   1      32.140  17.282   5.881  0.00  0.00     0.099 A 
HETATM   18  N   UNK N   1      30.909  17.759   9.154  0.00  0.00    -0.344 N 
HETATM   19  C   UNK N   1      33.238  17.721   8.425  0.00  0.00     0.049 A 
HETATM   20  C   UNK N   1      29.746  17.636   8.472  0.00  0.00     0.036 A 
ATOM     21  HN  UNK N   1      31.034  17.915  10.155  1.00  0.00     0.167 HD
HETATM   22  C   UNK N   1      28.407  17.730   9.119  0.00  0.00     0.070 C 
HETATM   23  C   UNK N   1      34.078  17.580   7.310  0.00  0.00     0.005 A 
HETATM   24  C   UNK N   1      33.532  17.354   6.033  0.00  0.00     0.018 A 
ENDBRANCH  12  14
TORSDOF 1
ENDMDL
MODEL 6
REMARK VINA RESULT:      -6.2      2.961      7.672
REMARK  1 active torsions:
REMARK  status: ('A' for Active; 'I' for Inactive)
REMARK       I    between atoms: C_2  and  N_4 
REMARK       I    between atoms: N_4  and  C_5 
REMARK    1  A    between atoms: C_12  and  C_13 
ROOT
HETATM    1  O   UNK N   1      30.932  16.570   8.104  0.00  0.00    -0.273 OA
HETATM    2  C   UNK N   1      32.027  16.569   8.639  0.00  0.00     0.231 C 
HETATM    3  C   UNK N   1      32.924  17.747   8.430  0.00  0.00     0.118 C 
HETATM    4  N   UNK N   1      32.390  15.496   9.394  0.00  0.00    -0.160 N 
HETATM    5  C   UNK N   1      33.604  15.345  10.123  0.00  0.00     0.685 A 
HETATM    6  N   UNK N   1      33.826  14.185  10.797  0.00  0.00    -0.189 N 
ATOM      7  HN  UNK N   1      33.140  13.432  10.733  1.00  0.00     0.184 HD
HETATM    8  N   UNK N   1      34.515  16.353  10.202  0.00  0.00    -0.202 N 
ATOM      9  HN  UNK N   1      34.343  17.225   9.702  1.00  0.00     0.183 HD
HETATM   10  C   UNK N   1      35.648  16.215  10.935  0.00  0.00     0.108 A 
HETATM   11  C   UNK N   1      35.882  15.036  11.635  0.00  0.00     0.050 A 
HETATM   12  C   UNK N   1      34.943  14.005  11.552  0.00  0.00     0.079 A 
HETATM   13  H   UNK N   1      31.750  14.750   9.439  0.00  0.00     0.187 HD
ENDROOT
BRANCH  12  14
HETATM   14  C   UNK N   1      35.106  12.762  12.347  0.00  0.00     0.090 A 
HETATM   15  N   UNK N   1      35.371  12.701  13.667  0.00  0.00    -0.304 N 
HETATM   16  C   UNK N   1      35.367  11.396  13.989  0.00  0.00     0.112 A 
HETATM   17  C   UNK N   1      35.582  13.685  14.579  0.00  0.00     0.099 A 
HETATM   18  N   UNK N   1      35.125  10.598  12.932  0.00  0.00    -0.344 N 
HETATM   19  C   UNK N   1      35.570  10.974  15.301  0.00  0.00     0.049 A 
HETATM   20  C   UNK N   1      34.961  11.453  11.895  0.00  0.00     0.036 A 
ATOM     21  HN  UNK N   1      35.076   9.579  12.914  1.00  0.00     0.167 HD
HETATM   22  C   UNK N   1      34.652  11.006  10.508  0.00  0.00     0.070 C 
HETATM   23  C   UNK N   1      35.789  11.961  16.274  0.00  0.00     0.005 A 
HETATM   24  C   UNK N   1      35.800  13.322  15.916  0.00  0.00     0.018 A 
ENDBRANCH  12  14
TORSDOF 1
ENDMDL
MODEL 7
REMARK VINA RESULT:      -6.1      3.049      4.957
REMARK  1 active torsions:
REMARK  status: ('A' for Active; 'I' for Inactive)
REMARK       I    between atoms: C_2  and  N_4 
REMARK       I    between atoms: N_4  and  C_5 
REMARK    1  A    between atoms: C_12  and  C_13 
ROOT
HETATM    1  O   UNK N   1      34.568  16.806   6.854  0.00  0.00    -0.273 OA
HETATM    2  C   UNK N   1      33.561  16.969   7.520  0.00  0.00     0.231 C 
HETATM    3  C   UNK N   1      33.697  17.073   9.006  0.00  0.00     0.118 C 
HETATM    4  N   UNK N   1      32.358  17.041   6.888  0.00  0.00    -0.160 N 
HETATM    5  C   UNK N   1      31.091  17.272   7.498  0.00  0.00     0.685 A 
HETATM    6  N   UNK N   1      29.977  17.273   6.720  0.00  0.00    -0.189 N 
ATOM      7  HN  UNK N   1      30.064  17.068   5.724  1.00  0.00     0.184 HD
HETATM    8  N   UNK N   1      30.983  17.542   8.828  0.00  0.00    -0.202 N 
ATOM      9  HN  UNK N   1      31.821  17.548   9.408  1.00  0.00     0.183 HD
HETATM   10  C   UNK N   1      29.777  17.804   9.391  0.00  0.00     0.108 A 
HETATM   11  C   UNK N   1      28.631  17.816   8.604  0.00  0.00     0.050 A 
HETATM   12  C   UNK N   1      28.748  17.539   7.240  0.00  0.00     0.079 A 
HETATM   13  H   UNK N   1      32.363  16.920   5.911  0.00  0.00     0.187 HD
ENDROOT
BRANCH  12  14
HETATM   14  C   UNK N   1      27.568  17.622   6.342  0.00  0.00     0.090 A 
HETATM   15  N   UNK N   1      27.160  18.723   5.680  0.00  0.00    -0.304 N 
HETATM   16  C   UNK N   1      26.106  18.343   4.937  0.00  0.00     0.112 A 
HETATM   17  C   UNK N   1      27.653  19.989   5.667  0.00  0.00     0.099 A 
HETATM   18  N   UNK N   1      25.798  17.041   5.096  0.00  0.00    -0.344 N 
HETATM   19  C   UNK N   1      25.458  19.237   4.089  0.00  0.00     0.049 A 
HETATM   20  C   UNK N   1      26.715  16.584   5.981  0.00  0.00     0.036 A 
ATOM     21  HN  UNK N   1      25.044  16.517   4.651  1.00  0.00     0.167 HD
HETATM   22  C   UNK N   1      26.768  15.168   6.444  0.00  0.00     0.070 C 
HETATM   23  C   UNK N   1      25.940  20.555   4.044  0.00  0.00     0.005 A 
HETATM   24  C   UNK N   1      27.037  20.937   4.838  0.00  0.00     0.018 A 
ENDBRANCH  12  14
TORSDOF 1
ENDMDL
MODEL 8
REMARK VINA RESULT:      -6.1     10.534     12.813
REMARK  1 active torsions:
REMARK  status: ('A' for Active; 'I' for Inactive)
REMARK       I    between atoms: C_2  and  N_4 
REMARK       I    between atoms: N_4  and  C_5 
REMARK    1  A    between atoms: C_12  and  C_13 
ROOT
HETATM    1  O   UNK N   1      19.280  14.527   9.643  0.00  0.00    -0.273 OA
HETATM    2  C   UNK N   1      20.222  14.772   8.910  0.00  0.00     0.231 C 
HETATM    3  C   UNK N   1      21.605  14.487   9.405  0.00  0.00     0.118 C 
HETATM    4  N   UNK N   1      19.980  15.301   7.680  0.00  0.00    -0.160 N 
HETATM    5  C   UNK N   1      20.948  15.607   6.682  0.00  0.00     0.685 A 
HETATM    6  N   UNK N   1      20.536  16.172   5.517  0.00  0.00    -0.189 N 
ATOM      7  HN  UNK N   1      19.550  16.404   5.396  1.00  0.00     0.184 HD
HETATM    8  N   UNK N   1      22.263  15.297   6.850  0.00  0.00    -0.202 N 
ATOM      9  HN  UNK N   1      22.569  14.866   7.722  1.00  0.00     0.183 HD
HETATM   10  C   UNK N   1      23.172  15.552   5.876  0.00  0.00     0.108 A 
HETATM   11  C   UNK N   1      22.760  16.122   4.676  0.00  0.00     0.050 A 
HETATM   12  C   UNK N   1      21.410  16.437   4.508  0.00  0.00     0.079 A 
HETATM   13  H   UNK N   1      19.040  15.493   7.458  0.00  0.00     0.187 HD
ENDROOT
BRANCH  12  14
HETATM   14  C   UNK N   1      20.908  16.969   3.216  0.00  0.00     0.090 A 
HETATM   15  N   UNK N   1      20.348  16.241   2.229  0.00  0.00    -0.304 N 
HETATM   16  C   UNK N   1      19.977  17.118   1.281  0.00  0.00     0.112 A 
HETATM   17  C   UNK N   1      20.127  14.905   2.125  0.00  0.00     0.099 A 
HETATM   18  N   UNK N   1      20.284  18.391   1.598  0.00  0.00    -0.344 N 
HETATM   19  C   UNK N   1      19.322  16.700   0.125  0.00  0.00     0.049 A 
HETATM   20  C   UNK N   1      20.870  18.302   2.815  0.00  0.00     0.036 A 
ATOM     21  HN  UNK N   1      20.112  19.232   1.047  1.00  0.00     0.167 HD
HETATM   22  C   UNK N   1      21.363  19.487   3.573  0.00  0.00     0.070 C 
HETATM   23  C   UNK N   1      19.072  15.327  -0.019  0.00  0.00     0.005 A 
HETATM   24  C   UNK N   1      19.478  14.422   0.979  0.00  0.00     0.018 A 
ENDBRANCH  12  14
TORSDOF 1
ENDMDL
MODEL 9
REMARK VINA RESULT:      -6.0      2.586      6.345
REMARK  1 active torsions:
REMARK  status: ('A' for Active; 'I' for Inactive)
REMARK       I    between atoms: C_2  and  N_4 
REMARK       I    between atoms: N_4  and  C_5 
REMARK    1  A    between atoms: C_12  and  C_13 
ROOT
HETATM    1  O   UNK N   1      28.198  17.250   9.810  0.00  0.00    -0.273 OA
HETATM    2  C   UNK N   1      29.277  17.560   9.336  0.00  0.00     0.231 C 
HETATM    3  C   UNK N   1      29.398  18.878   8.640  0.00  0.00     0.118 C 
HETATM    4  N   UNK N   1      30.321  16.694   9.451  0.00  0.00    -0.160 N 
HETATM    5  C   UNK N   1      31.655  16.909   9.000  0.00  0.00     0.685 A 
HETATM    6  N   UNK N   1      32.570  15.917   9.160  0.00  0.00    -0.189 N 
ATOM      7  HN  UNK N   1      32.276  15.026   9.561  1.00  0.00     0.184 HD
HETATM    8  N   UNK N   1      32.040  18.099   8.464  0.00  0.00    -0.202 N 
ATOM      9  HN  UNK N   1      31.353  18.845   8.352  1.00  0.00     0.183 HD
HETATM   10  C   UNK N   1      33.323  18.309   8.077  0.00  0.00     0.108 A 
HETATM   11  C   UNK N   1      34.270  17.305   8.244  0.00  0.00     0.050 A 
HETATM   12  C   UNK N   1      33.871  16.086   8.796  0.00  0.00     0.079 A 
HETATM   13  H   UNK N   1      30.135  15.833   9.890  0.00  0.00     0.187 HD
ENDROOT
BRANCH  12  14
HETATM   14  C   UNK N   1      34.860  15.014   9.071  0.00  0.00     0.090 A 
HETATM   15  N   UNK N   1      35.384  14.718  10.277  0.00  0.00    -0.304 N 
HETATM   16  C   UNK N   1      36.175  13.647  10.089  0.00  0.00     0.112 A 
HETATM   17  C   UNK N   1      35.197  15.291  11.494  0.00  0.00     0.099 A 
HETATM   18  N   UNK N   1      36.203  13.239   8.805  0.00  0.00    -0.344 N 
HETATM   19  C   UNK N   1      36.848  13.049  11.151  0.00  0.00     0.049 A 
HETATM   20  C   UNK N   1      35.377  14.097   8.161  0.00  0.00     0.036 A 
ATOM     21  HN  UNK N   1      36.727  12.459   8.408  1.00  0.00     0.167 HD
HETATM   22  C   UNK N   1      35.088  14.011   6.702  0.00  0.00     0.070 C 
HETATM   23  C   UNK N   1      36.678  13.610  12.426  0.00  0.00     0.005 A 
HETATM   24  C   UNK N   1      35.855  14.738  12.602  0.00  0.00     0.018 A 
ENDBRANCH  12  14
TORSDOF 1
ENDMDL
