MODEL 1
REMARK VINA RESULT:      -5.4      0.000      0.000
REMARK  5 active torsions:
REMARK  status: ('A' for Active; 'I' for Inactive)
REMARK    1  A    between atoms: C_2  and  O_1 
REMARK    2  A    between atoms: C_2  and  C_3 
REMARK    3  A    between atoms: C_2  and  C_5 
REMARK    4  A    between atoms: C_3  and  O_12 
REMARK    5  A    between atoms: C_5  and  C_6 
ROOT
HETATM    1  C   UNK N   1      36.541  13.348  14.994  0.00  0.00     0.219 C 
ENDROOT
BRANCH   1   2
HETATM    2  O   UNK N   1      37.451  14.321  15.418  0.00  0.00    -0.385 OA
HETATM    3  H   UNK N   1      38.397  14.524  15.376  0.00  0.00     0.210 HD
ENDBRANCH   1   2
BRANCH   1   4
HETATM    4  C   UNK N   1      36.174  13.604  13.555  0.00  0.00     0.170 C 
HETATM    5  O   UNK N   1      35.001  13.709  13.238  0.00  0.00    -0.648 OA
BRANCH   4   6
HETATM    6  O   UNK N   1      37.131  13.730  12.610  0.00  0.00    -0.774 OA
HETATM    7  H   UNK N   1      37.142  14.475  12.041  0.00  0.00     0.167 HD
ENDBRANCH   4   6
ENDBRANCH   1   4
BRANCH   1   8
HETATM    8  C   UNK N   1      35.287  13.377  15.873  0.00  0.00     0.081 C 
BRANCH   8   9
HETATM    9  C   UNK N   1      35.349  12.641  17.182  0.00  0.00    -0.055 A 
HETATM   10  C   UNK N   1      35.196  13.382  18.360  0.00  0.00     0.007 A 
HETATM   11  C   UNK N   1      35.220  12.747  19.604  0.00  0.00     0.001 A 
HETATM   12  C   UNK N   1      35.403  11.364  19.678  0.00  0.00     0.000 A 
HETATM   13  C   UNK N   1      35.561  10.616  18.508  0.00  0.00     0.001 A 
HETATM   14  C   UNK N   1      35.530  11.251  17.261  0.00  0.00     0.007 A 
ENDBRANCH   8   9
ENDBRANCH   1   8
TORSDOF 5
ENDMDL
MODEL 2
REMARK VINA RESULT:      -5.4      9.818     11.148
REMARK  5 active torsions:
REMARK  status: ('A' for Active; 'I' for Inactive)
REMARK    1  A    between atoms: C_2  and  O_1 
REMARK    2  A    between atoms: C_2  and  C_3 
REMARK    3  A    between atoms: C_2  and  C_5 
REMARK    4  A    between atoms: C_3  and  O_12 
REMARK    5  A    between atoms: C_5  and  C_6 
ROOT
HETATM    1  C   UNK N   1      33.587  17.999   7.270  0.00  0.00     0.219 C 
ENDROOT
BRANCH   1   2
HETATM    2  O   UNK N   1      34.378  17.595   6.191  0.00  0.00    -0.385 OA
HETATM    3  H   UNK N   1      34.751  16.789   5.802  0.00  0.00     0.210 HD
ENDBRANCH   1   2
BRANCH   1   4
HETATM    4  C   UNK N   1      34.465  18.229   8.472  0.00  0.00     0.170 C 
HETATM    5  O   UNK N   1      35.277  19.139   8.465  0.00  0.00    -0.648 OA
BRANCH   4   6
HETATM    6  O   UNK N   1      34.357  17.445   9.566  0.00  0.00    -0.774 OA
HETATM    7  H   UNK N   1      35.052  16.862   9.804  0.00  0.00     0.167 HD
ENDBRANCH   4   6
ENDBRANCH   1   4
BRANCH   1   8
HETATM    8  C   UNK N   1      32.531  16.933   7.581  0.00  0.00     0.081 C 
BRANCH   8   9
HETATM    9  C   UNK N   1      31.126  17.408   7.821  0.00  0.00    -0.055 A 
HETATM   10  C   UNK N   1      30.138  17.022   6.909  0.00  0.00     0.007 A 
HETATM   11  C   UNK N   1      28.810  17.413   7.096  0.00  0.00     0.001 A 
HETATM   12  C   UNK N   1      28.462  18.200   8.197  0.00  0.00     0.000 A 
HETATM   13  C   UNK N   1      29.443  18.594   9.111  0.00  0.00     0.001 A 
HETATM   14  C   UNK N   1      30.773  18.196   8.928  0.00  0.00     0.007 A 
ENDBRANCH   8   9
ENDBRANCH   1   8
TORSDOF 5
ENDMDL
MODEL 3
REMARK VINA RESULT:      -5.4     13.931     15.292
REMARK  5 active torsions:
REMARK  status: ('A' for Active; 'I' for Inactive)
REMARK    1  A    between atoms: C_2  and  O_1 
REMARK    2  A    between atoms: C_2  and  C_3 
REMARK    3  A    between atoms: C_2  and  C_5 
REMARK    4  A    between atoms: C_3  and  O_12 
REMARK    5  A    between atoms: C_5  and  C_6 
ROOT
HETATM    1  C   UNK N   1      23.821  12.259  11.649  0.00  0.00     0.219 C 
ENDROOT
BRANCH   1   2
HETATM    2  O   UNK N   1      25.164  11.890  11.538  0.00  0.00    -0.385 OA
HETATM    3  H   UNK N   1      25.973  12.155  11.076  0.00  0.00     0.210 HD
ENDBRANCH   1   2
BRANCH   1   4
HETATM    4  C   UNK N   1      23.323  11.916  13.029  0.00  0.00     0.170 C 
HETATM    5  O   UNK N   1      23.912  12.340  14.009  0.00  0.00    -0.648 OA
BRANCH   4   6
HETATM    6  O   UNK N   1      22.222  11.152  13.196  0.00  0.00    -0.774 OA
HETATM    7  H   UNK N   1      22.301  10.253  13.451  0.00  0.00     0.167 HD
ENDBRANCH   4   6
ENDBRANCH   1   4
BRANCH   1   8
HETATM    8  C   UNK N   1      22.983  11.535  10.590  0.00  0.00     0.081 C 
BRANCH   8   9
HETATM    9  C   UNK N   1      22.185  12.389   9.644  0.00  0.00    -0.055 A 
HETATM   10  C   UNK N   1      21.387  13.401  10.188  0.00  0.00     0.007 A 
HETATM   11  C   UNK N   1      20.644  14.241   9.356  0.00  0.00     0.001 A 
HETATM   12  C   UNK N   1      20.690  14.070   7.970  0.00  0.00     0.000 A 
HETATM   13  C   UNK N   1      21.481  13.058   7.418  0.00  0.00     0.001 A 
HETATM   14  C   UNK N   1      22.232  12.221   8.251  0.00  0.00     0.007 A 
ENDBRANCH   8   9
ENDBRANCH   1   8
TORSDOF 5
ENDMDL
MODEL 4
REMARK VINA RESULT:      -5.3     18.270     20.166
REMARK  5 active torsions:
REMARK  status: ('A' for Active; 'I' for Inactive)
REMARK    1  A    between atoms: C_2  and  O_1 
REMARK    2  A    between atoms: C_2  and  C_3 
REMARK    3  A    between atoms: C_2  and  C_5 
REMARK    4  A    between atoms: C_3  and  O_12 
REMARK    5  A    between atoms: C_5  and  C_6 
ROOT
HETATM    1  C   UNK N   1      21.663  20.654   2.364  0.00  0.00     0.219 C 
ENDROOT
BRANCH   1   2
HETATM    2  O   UNK N   1      20.802  21.502   3.066  0.00  0.00    -0.385 OA
HETATM    3  H   UNK N   1      19.859  21.709   3.140  0.00  0.00     0.210 HD
ENDBRANCH   1   2
BRANCH   1   4
HETATM    4  C   UNK N   1      20.895  19.960   1.269  0.00  0.00     0.170 C 
HETATM    5  O   UNK N   1      20.464  18.834   1.450  0.00  0.00    -0.648 OA
BRANCH   4   6
HETATM    6  O   UNK N   1      20.667  20.576   0.089  0.00  0.00    -0.774 OA
HETATM    7  H   UNK N   1      19.827  20.947  -0.099  0.00  0.00     0.167 HD
ENDBRANCH   4   6
ENDBRANCH   1   4
BRANCH   1   8
HETATM    8  C   UNK N   1      22.279  19.621   3.314  0.00  0.00     0.081 C 
BRANCH   8   9
HETATM    9  C   UNK N   1      23.776  19.625   3.455  0.00  0.00    -0.055 A 
HETATM   10  C   UNK N   1      24.498  20.600   2.758  0.00  0.00     0.007 A 
HETATM   11  C   UNK N   1      25.889  20.667   2.872  0.00  0.00     0.001 A 
HETATM   12  C   UNK N   1      26.568  19.753   3.682  0.00  0.00     0.000 A 
HETATM   13  C   UNK N   1      25.855  18.772   4.378  0.00  0.00     0.001 A 
HETATM   14  C   UNK N   1      24.461  18.710   4.269  0.00  0.00     0.007 A 
ENDBRANCH   8   9
ENDBRANCH   1   8
TORSDOF 5
ENDMDL
MODEL 5
REMARK VINA RESULT:      -5.3     10.589     11.945
REMARK  5 active torsions:
REMARK  status: ('A' for Active; 'I' for Inactive)
REMARK    1  A    between atoms: C_2  and  O_1 
REMARK    2  A    between atoms: C_2  and  C_3 
REMARK    3  A    between atoms: C_2  and  C_5 
REMARK    4  A    between atoms: C_3  and  O_12 
REMARK    5  A    between atoms: C_5  and  C_6 
ROOT
HETATM    1  C   UNK N   1      29.810  18.634   9.109  0.00  0.00     0.219 C 
ENDROOT
BRANCH   1   2
HETATM    2  O   UNK N   1      29.798  18.821  10.494  0.00  0.00    -0.385 OA
HETATM    3  H   UNK N   1      29.729  18.309  11.314  0.00  0.00     0.210 HD
ENDBRANCH   1   2
BRANCH   1   4
HETATM    4  C   UNK N   1      28.395  18.639   8.594  0.00  0.00     0.170 C 
HETATM    5  O   UNK N   1      28.155  19.081   7.483  0.00  0.00    -0.648 OA
BRANCH   4   6
HETATM    6  O   UNK N   1      27.385  18.147   9.344  0.00  0.00    -0.774 OA
HETATM    7  H   UNK N   1      26.926  18.701   9.945  0.00  0.00     0.167 HD
ENDBRANCH   4   6
ENDBRANCH   1   4
BRANCH   1   8
HETATM    8  C   UNK N   1      30.497  17.310   8.759  0.00  0.00     0.081 C 
BRANCH   8   9
HETATM    9  C   UNK N   1      31.631  17.364   7.774  0.00  0.00    -0.055 A 
HETATM   10  C   UNK N   1      31.354  17.062   6.437  0.00  0.00     0.007 A 
HETATM   11  C   UNK N   1      32.363  17.120   5.473  0.00  0.00     0.001 A 
HETATM   12  C   UNK N   1      33.662  17.477   5.844  0.00  0.00     0.000 A 
HETATM   13  C   UNK N   1      33.950  17.776   7.179  0.00  0.00     0.001 A 
HETATM   14  C   UNK N   1      32.937  17.724   8.143  0.00  0.00     0.007 A 
ENDBRANCH   8   9
ENDBRANCH   1   8
TORSDOF 5
ENDMDL
MODEL 6
REMARK VINA RESULT:      -5.0     14.694     15.824
REMARK  5 active torsions:
REMARK  status: ('A' for Active; 'I' for Inactive)
REMARK    1  A    between atoms: C_2  and  O_1 
REMARK    2  A    between atoms: C_2  and  C_3 
REMARK    3  A    between atoms: C_2  and  C_5 
REMARK    4  A    between atoms: C_3  and  O_12 
REMARK    5  A    between atoms: C_5  and  C_6 
ROOT
HETATM    1  C   UNK N   1      20.459  14.690   9.411  0.00  0.00     0.219 C 
ENDROOT
BRANCH   1   2
HETATM    2  O   UNK N   1      19.211  14.235   9.844  0.00  0.00    -0.385 OA
HETATM    3  H   UNK N   1      18.547  13.563   9.627  0.00  0.00     0.210 HD
ENDBRANCH   1   2
BRANCH   1   4
HETATM    4  C   UNK N   1      20.265  15.732   8.341  0.00  0.00     0.170 C 
HETATM    5  O   UNK N   1      20.730  16.849   8.490  0.00  0.00    -0.648 OA
BRANCH   4   6
HETATM    6  O   UNK N   1      19.589  15.441   7.208  0.00  0.00    -0.774 OA
HETATM    7  H   UNK N   1      18.903  14.802   7.214  0.00  0.00     0.167 HD
ENDBRANCH   4   6
ENDBRANCH   1   4
BRANCH   1   8
HETATM    8  C   UNK N   1      21.289  13.522   8.869  0.00  0.00     0.081 C 
BRANCH   8   9
HETATM    9  C   UNK N   1      22.413  13.019   9.732  0.00  0.00    -0.055 A 
HETATM   10  C   UNK N   1      22.085  12.417  10.951  0.00  0.00     0.007 A 
HETATM   11  C   UNK N   1      23.087  11.908  11.782  0.00  0.00     0.001 A 
HETATM   12  C   UNK N   1      24.427  12.005  11.398  0.00  0.00     0.000 A 
HETATM   13  C   UNK N   1      24.764  12.609  10.183  0.00  0.00     0.001 A 
HETATM   14  C   UNK N   1      23.760  13.112   9.348  0.00  0.00     0.007 A 
ENDBRANCH   8   9
ENDBRANCH   1   8
TORSDOF 5
ENDMDL
MODEL 7
REMARK VINA RESULT:      -5.0      9.454     11.184
REMARK  5 active torsions:
REMARK  status: ('A' for Active; 'I' for Inactive)
REMARK    1  A    between atoms: C_2  and  O_1 
REMARK    2  A    between atoms: C_2  and  C_3 
REMARK    3  A    between atoms: C_2  and  C_5 
REMARK    4  A    between atoms: C_3  and  O_12 
REMARK    5  A    between atoms: C_5  and  C_6 
ROOT
HETATM    1  C   UNK N   1      33.472  17.240   8.549  0.00  0.00     0.219 C 
ENDROOT
BRANCH   1   2
HETATM    2  O   UNK N   1      33.938  17.137   9.862  0.00  0.00    -0.385 OA
HETATM    3  H   UNK N   1      33.661  17.340  10.769  0.00  0.00     0.210 HD
ENDBRANCH   1   2
BRANCH   1   4
HETATM    4  C   UNK N   1      34.377  18.158   7.770  0.00  0.00     0.170 C 
HETATM    5  O   UNK N   1      34.472  18.034   6.560  0.00  0.00    -0.648 OA
BRANCH   4   6
HETATM    6  O   UNK N   1      35.081  19.127   8.394  0.00  0.00    -0.774 OA
HETATM    7  H   UNK N   1      34.657  19.716   8.987  0.00  0.00     0.167 HD
ENDBRANCH   4   6
ENDBRANCH   1   4
BRANCH   1   8
HETATM    8  C   UNK N   1      32.037  17.777   8.537  0.00  0.00     0.081 C 
BRANCH   8   9
HETATM    9  C   UNK N   1      31.062  17.109   7.608  0.00  0.00    -0.055 A 
HETATM   10  C   UNK N   1      29.757  17.611   7.554  0.00  0.00     0.007 A 
HETATM   11  C   UNK N   1      28.816  17.045   6.690  0.00  0.00     0.001 A 
HETATM   12  C   UNK N   1      29.174  15.968   5.876  0.00  0.00     0.000 A 
HETATM   13  C   UNK N   1      30.475  15.456   5.927  0.00  0.00     0.001 A 
HETATM   14  C   UNK N   1      31.419  16.027   6.787  0.00  0.00     0.007 A 
ENDBRANCH   8   9
ENDBRANCH   1   8
TORSDOF 5
ENDMDL
MODEL 8
REMARK VINA RESULT:      -4.9     22.503     25.337
REMARK  5 active torsions:
REMARK  status: ('A' for Active; 'I' for Inactive)
REMARK    1  A    between atoms: C_2  and  O_1 
REMARK    2  A    between atoms: C_2  and  C_3 
REMARK    3  A    between atoms: C_2  and  C_5 
REMARK    4  A    between atoms: C_3  and  O_12 
REMARK    5  A    between atoms: C_5  and  C_6 
ROOT
HETATM    1  C   UNK N   1      28.558  24.027  -3.439  0.00  0.00     0.219 C 
ENDROOT
BRANCH   1   2
HETATM    2  O   UNK N   1      29.003  23.322  -4.560  0.00  0.00    -0.385 OA
HETATM    3  H   UNK N   1      28.793  23.206  -5.499  0.00  0.00     0.210 HD
ENDBRANCH   1   2
BRANCH   1   4
HETATM    4  C   UNK N   1      29.089  23.368  -2.193  0.00  0.00     0.170 C 
HETATM    5  O   UNK N   1      28.314  22.888  -1.383  0.00  0.00    -0.648 OA
BRANCH   4   6
HETATM    6  O   UNK N   1      30.418  23.292  -1.965  0.00  0.00    -0.774 OA
HETATM    7  H   UNK N   1      30.742  22.965  -1.148  0.00  0.00     0.167 HD
ENDBRANCH   4   6
ENDBRANCH   1   4
BRANCH   1   8
HETATM    8  C   UNK N   1      27.026  24.061  -3.409  0.00  0.00     0.081 C 
BRANCH   8   9
HETATM    9  C   UNK N   1      26.353  25.258  -4.020  0.00  0.00    -0.055 A 
HETATM   10  C   UNK N   1      26.412  26.471  -3.325  0.00  0.00     0.007 A 
HETATM   11  C   UNK N   1      25.826  27.621  -3.858  0.00  0.00     0.001 A 
HETATM   12  C   UNK N   1      25.171  27.564  -5.091  0.00  0.00     0.000 A 
HETATM   13  C   UNK N   1      25.103  26.356  -5.790  0.00  0.00     0.001 A 
HETATM   14  C   UNK N   1      25.697  25.204  -5.260  0.00  0.00     0.007 A 
ENDBRANCH   8   9
ENDBRANCH   1   8
TORSDOF 5
ENDMDL
MODEL 9
REMARK VINA RESULT:      -4.9      1.063      2.107
REMARK  5 active torsions:
REMARK  status: ('A' for Active; 'I' for Inactive)
REMARK    1  A    between atoms: C_2  and  O_1 
REMARK    2  A    between atoms: C_2  and  C_3 
REMARK    3  A    between atoms: C_2  and  C_5 
REMARK    4  A    between atoms: C_3  and  O_12 
REMARK    5  A    between atoms: C_5  and  C_6 
ROOT
HETATM    1  C   UNK N   1      34.862  12.886  14.314  0.00  0.00     0.219 C 
ENDROOT
BRANCH   1   2
HETATM    2  O   UNK N   1      34.136  12.013  13.500  0.00  0.00    -0.385 OA
HETATM    3  H   UNK N   1      33.243  11.647  13.411  0.00  0.00     0.210 HD
ENDBRANCH   1   2
BRANCH   1   4
HETATM    4  C   UNK N   1      35.626  13.854  13.448  0.00  0.00     0.170 C 
HETATM    5  O   UNK N   1      35.092  14.343  12.466  0.00  0.00    -0.648 OA
BRANCH   4   6
HETATM    6  O   UNK N   1      36.896  14.198  13.751  0.00  0.00    -0.774 OA
HETATM    7  H   UNK N   1      37.367  13.740  14.420  0.00  0.00     0.167 HD
ENDBRANCH   4   6
ENDBRANCH   1   4
BRANCH   1   8
HETATM    8  C   UNK N   1      35.828  12.100  15.206  0.00  0.00     0.081 C 
BRANCH   8   9
HETATM    9  C   UNK N   1      35.620  12.193  16.692  0.00  0.00    -0.055 A 
HETATM   10  C   UNK N   1      35.789  11.031  17.453  0.00  0.00     0.007 A 
HETATM   11  C   UNK N   1      35.633  11.065  18.841  0.00  0.00     0.001 A 
HETATM   12  C   UNK N   1      35.302  12.264  19.477  0.00  0.00     0.000 A 
HETATM   13  C   UNK N   1      35.126  13.429  18.725  0.00  0.00     0.001 A 
HETATM   14  C   UNK N   1      35.289  13.397  17.335  0.00  0.00     0.007 A 
ENDBRANCH   8   9
ENDBRANCH   1   8
TORSDOF 5
ENDMDL
