MODEL 1
REMARK VINA RESULT:      -4.6      0.000      0.000
REMARK  4 active torsions:
REMARK  status: ('A' for Active; 'I' for Inactive)
REMARK    1  A    between atoms: C_1  and  C_3 
REMARK    2  A    between atoms: C_3  and  C_5 
REMARK    3  A    between atoms: C_5  and  C_6 
REMARK    4  A    between atoms: C_9  and  N_12 
ROOT
HETATM    1  C   UNK N   1      30.734  17.535   8.089  0.00  0.00     0.018 A 
HETATM    2  C   UNK N   1      30.201  16.816   6.992  0.00  0.00     0.078 A 
HETATM    3  S   UNK N   1      28.610  17.265   6.909  0.00  0.00    -0.064 SA
HETATM    4  C   UNK N   1      28.605  18.301   8.181  0.00  0.00     0.142 A 
HETATM    5  N   UNK N   1      29.835  18.358   8.741  0.00  0.00    -0.340 N 
ATOM      6  HN  UNK N   1      30.070  18.937   9.547  1.00  0.00     0.167 HD
ENDROOT
BRANCH   1   7
HETATM    7  C   UNK N   1      32.175  17.450   8.561  0.00  0.00     0.068 C 
BRANCH   7   8
HETATM    8  C   UNK N   1      33.368  17.667   7.593  0.00  0.00     0.048 C 
HETATM    9  C   UNK N   1      33.685  17.607   6.104  0.00  0.00     0.017 C 
BRANCH   8  10
HETATM   10  C   UNK N   1      34.635  18.053   8.311  0.00  0.00     0.235 C 
HETATM   11  O   UNK N   1      35.047  19.204   8.342  0.00  0.00    -0.306 OA
ENDBRANCH   8  10
ENDBRANCH   7   8
ENDBRANCH   1   7
BRANCH   4  12
HETATM   12  N   UNK N   1      27.492  19.034   8.638  0.00  0.00    -0.380 N 
HETATM   13  H   UNK N   1      27.222  18.980   9.584  0.00  0.00     0.158 HD
HETATM   14  H   UNK N   1      26.984  19.599   8.013  0.00  0.00     0.158 HD
ENDBRANCH   4  12
TORSDOF 4
ENDMDL
MODEL 2
REMARK VINA RESULT:      -4.4     13.725     14.248
REMARK  4 active torsions:
REMARK  status: ('A' for Active; 'I' for Inactive)
REMARK    1  A    between atoms: C_1  and  C_3 
REMARK    2  A    between atoms: C_3  and  C_5 
REMARK    3  A    between atoms: C_5  and  C_6 
REMARK    4  A    between atoms: C_9  and  N_12 
ROOT
HETATM    1  C   UNK N   1      26.655  25.220  -3.818  0.00  0.00     0.018 A 
HETATM    2  C   UNK N   1      25.988  25.131  -5.064  0.00  0.00     0.078 A 
HETATM    3  S   UNK N   1      25.334  26.630  -5.316  0.00  0.00    -0.064 SA
HETATM    4  C   UNK N   1      25.864  27.339  -3.935  0.00  0.00     0.142 A 
HETATM    5  N   UNK N   1      26.578  26.455  -3.201  0.00  0.00    -0.340 N 
ATOM      6  HN  UNK N   1      27.007  26.672  -2.302  1.00  0.00     0.167 HD
ENDROOT
BRANCH   1   7
HETATM    7  C   UNK N   1      27.413  24.081  -3.158  0.00  0.00     0.068 C 
BRANCH   7   8
HETATM    8  C   UNK N   1      28.964  24.022  -3.158  0.00  0.00     0.048 C 
HETATM    9  C   UNK N   1      30.158  24.757  -3.754  0.00  0.00     0.017 C 
BRANCH   8  10
HETATM   10  C   UNK N   1      29.501  22.888  -2.323  0.00  0.00     0.235 C 
HETATM   11  O   UNK N   1      30.321  23.061  -1.431  0.00  0.00    -0.306 OA
ENDBRANCH   8  10
ENDBRANCH   7   8
ENDBRANCH   1   7
BRANCH   4  12
HETATM   12  N   UNK N   1      25.622  28.673  -3.551  0.00  0.00    -0.380 N 
HETATM   13  H   UNK N   1      24.849  28.887  -2.979  0.00  0.00     0.158 HD
HETATM   14  H   UNK N   1      26.224  29.389  -3.855  0.00  0.00     0.158 HD
ENDBRANCH   4  12
TORSDOF 4
ENDMDL
MODEL 3
REMARK VINA RESULT:      -4.4      1.727      2.158
REMARK  4 active torsions:
REMARK  status: ('A' for Active; 'I' for Inactive)
REMARK    1  A    between atoms: C_1  and  C_3 
REMARK    2  A    between atoms: C_3  and  C_5 
REMARK    3  A    between atoms: C_5  and  C_6 
REMARK    4  A    between atoms: C_9  and  N_12 
ROOT
HETATM    1  C   UNK N   1      30.556  17.331   7.447  0.00  0.00     0.018 A 
HETATM    2  C   UNK N   1      31.168  17.805   8.633  0.00  0.00     0.078 A 
HETATM    3  S   UNK N   1      29.996  18.682   9.405  0.00  0.00    -0.064 SA
HETATM    4  C   UNK N   1      28.798  18.470   8.305  0.00  0.00     0.142 A 
HETATM    5  N   UNK N   1      29.238  17.708   7.277  0.00  0.00    -0.340 N 
ATOM      6  HN  UNK N   1      28.666  17.444   6.475  1.00  0.00     0.167 HD
ENDROOT
BRANCH   1   7
HETATM    7  C   UNK N   1      31.247  16.470   6.402  0.00  0.00     0.068 C 
BRANCH   7   8
HETATM    8  C   UNK N   1      32.264  17.067   5.394  0.00  0.00     0.048 C 
HETATM    9  C   UNK N   1      32.298  17.691   4.005  0.00  0.00     0.017 C 
BRANCH   8  10
HETATM   10  C   UNK N   1      33.680  17.029   5.908  0.00  0.00     0.235 C 
HETATM   11  O   UNK N   1      34.232  18.012   6.383  0.00  0.00    -0.306 OA
ENDBRANCH   8  10
ENDBRANCH   7   8
ENDBRANCH   1   7
BRANCH   4  12
HETATM   12  N   UNK N   1      27.494  18.997   8.399  0.00  0.00    -0.380 N 
HETATM   13  H   UNK N   1      27.348  19.967   8.309  0.00  0.00     0.158 HD
HETATM   14  H   UNK N   1      26.731  18.396   8.553  0.00  0.00     0.158 HD
ENDBRANCH   4  12
TORSDOF 4
ENDMDL
MODEL 4
REMARK VINA RESULT:      -4.4      5.352      6.568
REMARK  4 active torsions:
REMARK  status: ('A' for Active; 'I' for Inactive)
REMARK    1  A    between atoms: C_1  and  C_3 
REMARK    2  A    between atoms: C_3  and  C_5 
REMARK    3  A    between atoms: C_5  and  C_6 
REMARK    4  A    between atoms: C_9  and  N_12 
ROOT
HETATM    1  C   UNK N   1      35.354  15.680  11.076  0.00  0.00     0.018 A 
HETATM    2  C   UNK N   1      34.584  14.511  10.862  0.00  0.00     0.078 A 
HETATM    3  S   UNK N   1      35.055  13.457  12.049  0.00  0.00    -0.064 SA
HETATM    4  C   UNK N   1      36.159  14.425  12.781  0.00  0.00     0.142 A 
HETATM    5  N   UNK N   1      36.226  15.618  12.147  0.00  0.00    -0.340 N 
ATOM      6  HN  UNK N   1      36.844  16.380  12.425  1.00  0.00     0.167 HD
ENDROOT
BRANCH   1   7
HETATM    7  C   UNK N   1      35.273  16.937  10.227  0.00  0.00     0.068 C 
BRANCH   7   8
HETATM    8  C   UNK N   1      34.215  17.098   9.103  0.00  0.00     0.048 C 
HETATM    9  C   UNK N   1      32.969  16.403   8.568  0.00  0.00     0.017 C 
BRANCH   8  10
HETATM   10  C   UNK N   1      34.467  18.306   8.238  0.00  0.00     0.235 C 
HETATM   11  O   UNK N   1      35.309  19.148   8.516  0.00  0.00    -0.306 OA
ENDBRANCH   8  10
ENDBRANCH   7   8
ENDBRANCH   1   7
BRANCH   4  12
HETATM   12  N   UNK N   1      36.935  14.081  13.905  0.00  0.00    -0.380 N 
HETATM   13  H   UNK N   1      37.411  13.219  13.929  0.00  0.00     0.158 HD
HETATM   14  H   UNK N   1      37.001  14.701  14.666  0.00  0.00     0.158 HD
ENDBRANCH   4  12
TORSDOF 4
ENDMDL
MODEL 5
REMARK VINA RESULT:      -4.3      7.418      8.619
REMARK  4 active torsions:
REMARK  status: ('A' for Active; 'I' for Inactive)
REMARK    1  A    between atoms: C_1  and  C_3 
REMARK    2  A    between atoms: C_3  and  C_5 
REMARK    3  A    between atoms: C_5  and  C_6 
REMARK    4  A    between atoms: C_9  and  N_12 
ROOT
HETATM    1  C   UNK N   1      36.416  14.041  12.264  0.00  0.00     0.018 A 
HETATM    2  C   UNK N   1      36.839  13.623  10.979  0.00  0.00     0.078 A 
HETATM    3  S   UNK N   1      36.391  14.845   9.955  0.00  0.00    -0.064 SA
HETATM    4  C   UNK N   1      35.707  15.832  11.073  0.00  0.00     0.142 A 
HETATM    5  N   UNK N   1      35.788  15.272  12.301  0.00  0.00    -0.340 N 
ATOM      6  HN  UNK N   1      35.428  15.704  13.152  1.00  0.00     0.167 HD
ENDROOT
BRANCH   1   7
HETATM    7  C   UNK N   1      36.607  13.240  13.541  0.00  0.00     0.068 C 
BRANCH   7   8
HETATM    8  C   UNK N   1      36.536  13.905  14.941  0.00  0.00     0.048 C 
HETATM    9  C   UNK N   1      37.237  14.986  15.754  0.00  0.00     0.017 C 
BRANCH   8  10
HETATM   10  C   UNK N   1      35.449  13.320  15.806  0.00  0.00     0.235 C 
HETATM   11  O   UNK N   1      34.347  13.026  15.365  0.00  0.00    -0.306 OA
ENDBRANCH   8  10
ENDBRANCH   7   8
ENDBRANCH   1   7
BRANCH   4  12
HETATM   12  N   UNK N   1      35.118  17.084  10.810  0.00  0.00    -0.380 N 
HETATM   13  H   UNK N   1      35.684  17.855  10.577  0.00  0.00     0.158 HD
HETATM   14  H   UNK N   1      34.140  17.188  10.860  0.00  0.00     0.158 HD
ENDBRANCH   4  12
TORSDOF 4
ENDMDL
MODEL 6
REMARK VINA RESULT:      -4.3     10.452     11.350
REMARK  4 active torsions:
REMARK  status: ('A' for Active; 'I' for Inactive)
REMARK    1  A    between atoms: C_1  and  C_3 
REMARK    2  A    between atoms: C_3  and  C_5 
REMARK    3  A    between atoms: C_5  and  C_6 
REMARK    4  A    between atoms: C_9  and  N_12 
ROOT
HETATM    1  C   UNK N   1      35.139  12.942  15.648  0.00  0.00     0.018 A 
HETATM    2  C   UNK N   1      34.398  12.019  14.870  0.00  0.00     0.078 A 
HETATM    3  S   UNK N   1      34.955  12.209  13.323  0.00  0.00    -0.064 SA
HETATM    4  C   UNK N   1      36.060  13.383  13.627  0.00  0.00     0.142 A 
HETATM    5  N   UNK N   1      36.060  13.694  14.943  0.00  0.00    -0.340 N 
ATOM      6  HN  UNK N   1      36.666  14.397  15.365  1.00  0.00     0.167 HD
ENDROOT
BRANCH   1   7
HETATM    7  C   UNK N   1      34.977  13.137  17.146  0.00  0.00     0.068 C 
BRANCH   7   8
HETATM    8  C   UNK N   1      35.338  12.019  18.160  0.00  0.00     0.048 C 
HETATM    9  C   UNK N   1      35.725  10.546  18.180  0.00  0.00     0.017 C 
BRANCH   8  10
HETATM   10  C   UNK N   1      35.294  12.495  19.589  0.00  0.00     0.235 C 
HETATM   11  O   UNK N   1      34.838  13.586  19.903  0.00  0.00    -0.306 OA
ENDBRANCH   8  10
ENDBRANCH   7   8
ENDBRANCH   1   7
BRANCH   4  12
HETATM   12  N   UNK N   1      36.896  13.991  12.670  0.00  0.00    -0.380 N 
HETATM   13  H   UNK N   1      36.527  14.268  11.799  0.00  0.00     0.158 HD
HETATM   14  H   UNK N   1      37.848  14.139  12.870  0.00  0.00     0.158 HD
ENDBRANCH   4  12
TORSDOF 4
ENDMDL
MODEL 7
REMARK VINA RESULT:      -4.3     10.408     11.456
REMARK  4 active torsions:
REMARK  status: ('A' for Active; 'I' for Inactive)
REMARK    1  A    between atoms: C_1  and  C_3 
REMARK    2  A    between atoms: C_3  and  C_5 
REMARK    3  A    between atoms: C_5  and  C_6 
REMARK    4  A    between atoms: C_9  and  N_12 
ROOT
HETATM    1  C   UNK N   1      22.474  12.707   9.453  0.00  0.00     0.018 A 
HETATM    2  C   UNK N   1      23.885  12.658   9.355  0.00  0.00     0.078 A 
HETATM    3  S   UNK N   1      24.407  12.142  10.839  0.00  0.00    -0.064 SA
HETATM    4  C   UNK N   1      22.936  11.993  11.552  0.00  0.00     0.142 A 
HETATM    5  N   UNK N   1      21.959  12.334  10.681  0.00  0.00    -0.340 N 
ATOM      6  HN  UNK N   1      20.964  12.318  10.903  1.00  0.00     0.167 HD
ENDROOT
BRANCH   1   7
HETATM    7  C   UNK N   1      21.542  13.130   8.330  0.00  0.00     0.068 C 
BRANCH   7   8
HETATM    8  C   UNK N   1      21.068  14.599   8.171  0.00  0.00     0.048 C 
HETATM    9  C   UNK N   1      21.323  15.816   7.291  0.00  0.00     0.017 C 
BRANCH   8  10
HETATM   10  C   UNK N   1      20.035  14.989   9.196  0.00  0.00     0.235 C 
HETATM   11  O   UNK N   1      19.396  14.162   9.832  0.00  0.00    -0.306 OA
ENDBRANCH   8  10
ENDBRANCH   7   8
ENDBRANCH   1   7
BRANCH   4  12
HETATM   12  N   UNK N   1      22.705  11.572  12.876  0.00  0.00    -0.380 N 
HETATM   13  H   UNK N   1      23.228  11.961  13.614  0.00  0.00     0.158 HD
HETATM   14  H   UNK N   1      22.021  10.890  13.064  0.00  0.00     0.158 HD
ENDBRANCH   4  12
TORSDOF 4
ENDMDL
MODEL 8
REMARK VINA RESULT:      -4.3      8.883      9.917
REMARK  4 active torsions:
REMARK  status: ('A' for Active; 'I' for Inactive)
REMARK    1  A    between atoms: C_1  and  C_3 
REMARK    2  A    between atoms: C_3  and  C_5 
REMARK    3  A    between atoms: C_5  and  C_6 
REMARK    4  A    between atoms: C_9  and  N_12 
ROOT
HETATM    1  C   UNK N   1      36.161  13.756  14.004  0.00  0.00     0.018 A 
HETATM    2  C   UNK N   1      35.237  12.945  13.302  0.00  0.00     0.078 A 
HETATM    3  S   UNK N   1      35.073  13.658  11.817  0.00  0.00    -0.064 SA
HETATM    4  C   UNK N   1      36.107  14.910  12.056  0.00  0.00     0.142 A 
HETATM    5  N   UNK N   1      36.637  14.846  13.298  0.00  0.00    -0.340 N 
ATOM      6  HN  UNK N   1      37.307  15.519  13.670  1.00  0.00     0.167 HD
ENDROOT
BRANCH   1   7
HETATM    7  C   UNK N   1      36.631  13.501  15.426  0.00  0.00     0.068 C 
BRANCH   7   8
HETATM    8  C   UNK N   1      35.855  12.562  16.387  0.00  0.00     0.048 C 
HETATM    9  C   UNK N   1      35.734  11.081  16.723  0.00  0.00     0.017 C 
BRANCH   8  10
HETATM   10  C   UNK N   1      34.904  13.309  17.285  0.00  0.00     0.235 C 
HETATM   11  O   UNK N   1      35.220  13.693  18.403  0.00  0.00    -0.306 OA
ENDBRANCH   8  10
ENDBRANCH   7   8
ENDBRANCH   1   7
BRANCH   4  12
HETATM   12  N   UNK N   1      36.411  15.914  11.116  0.00  0.00    -0.380 N 
HETATM   13  H   UNK N   1      36.300  15.737  10.153  0.00  0.00     0.158 HD
HETATM   14  H   UNK N   1      36.734  16.792  11.420  0.00  0.00     0.158 HD
ENDBRANCH   4  12
TORSDOF 4
ENDMDL
MODEL 9
REMARK VINA RESULT:      -4.2     15.660     16.369
REMARK  4 active torsions:
REMARK  status: ('A' for Active; 'I' for Inactive)
REMARK    1  A    between atoms: C_1  and  C_3 
REMARK    2  A    between atoms: C_3  and  C_5 
REMARK    3  A    between atoms: C_5  and  C_6 
REMARK    4  A    between atoms: C_9  and  N_12 
ROOT
HETATM    1  C   UNK N   1      26.418  23.873  -5.577  0.00  0.00     0.018 A 
HETATM    2  C   UNK N   1      27.615  23.401  -6.170  0.00  0.00     0.078 A 
HETATM    3  S   UNK N   1      27.128  22.357  -7.359  0.00  0.00    -0.064 SA
HETATM    4  C   UNK N   1      25.510  22.500  -7.133  0.00  0.00     0.142 A 
HETATM    5  N   UNK N   1      25.255  23.363  -6.123  0.00  0.00    -0.340 N 
ATOM      6  HN  UNK N   1      24.318  23.608  -5.803  1.00  0.00     0.167 HD
ENDROOT
BRANCH   1   7
HETATM    7  C   UNK N   1      26.354  24.862  -4.426  0.00  0.00     0.068 C 
BRANCH   7   8
HETATM    8  C   UNK N   1      25.798  26.299  -4.613  0.00  0.00     0.048 C 
HETATM    9  C   UNK N   1      24.921  27.093  -5.572  0.00  0.00     0.017 C 
BRANCH   8  10
HETATM   10  C   UNK N   1      26.253  27.242  -3.528  0.00  0.00     0.235 C 
HETATM   11  O   UNK N   1      25.467  27.895  -2.855  0.00  0.00    -0.306 OA
ENDBRANCH   8  10
ENDBRANCH   7   8
ENDBRANCH   1   7
BRANCH   4  12
HETATM   12  N   UNK N   1      24.516  21.829  -7.871  0.00  0.00    -0.380 N 
HETATM   13  H   UNK N   1      24.017  22.308  -8.573  0.00  0.00     0.158 HD
HETATM   14  H   UNK N   1      24.319  20.883  -7.686  0.00  0.00     0.158 HD
ENDBRANCH   4  12
TORSDOF 4
ENDMDL
