MODEL 1
REMARK VINA RESULT:      -6.8      0.000      0.000
REMARK  1 active torsions:
REMARK  status: ('A' for Active; 'I' for Inactive)
REMARK       I    between atoms: N_11  and  C_22 
REMARK    1  A    between atoms: C_19  and  C_20 
ROOT
HETATM    1 Br   UNK N   1      31.948  16.811   2.977  0.00  0.00    -0.032 Br
HETATM    2  O   UNK N   1      27.636  18.483   6.142  0.00  0.00    -0.266 OA
HETATM    3  N   UNK N   1      29.962  17.541   5.000  0.00  0.00    -0.349 N 
ATOM      4  HN  UNK N   1      29.321  17.922   4.305  1.00  0.00     0.166 HD
HETATM    5  N   UNK N   1      28.290  18.007   8.214  0.00  0.00    -0.356 N 
HETATM    6  C   UNK N   1      31.214  16.981   4.730  0.00  0.00     0.077 A 
HETATM    7  C   UNK N   1      31.811  16.574   5.838  0.00  0.00     0.022 A 
HETATM    8  C   UNK N   1      30.908  16.873   7.017  0.00  0.00     0.076 A 
HETATM    9  C   UNK N   1      29.753  17.500   6.261  0.00  0.00     0.087 A 
HETATM   10  C   UNK N   1      28.500  18.018   6.870  0.00  0.00     0.264 C 
HETATM   11  C   UNK N   1      29.243  17.510   9.182  0.00  0.00     0.123 C 
HETATM   12  C   UNK N   1      30.536  18.324   9.114  0.00  0.00     0.032 C 
HETATM   13  C   UNK N   1      31.539  17.856   8.037  0.00  0.00     0.057 C 
HETATM   14  H   UNK N   1      27.433  18.358   8.549  0.00  0.00     0.162 HD
ENDROOT
BRANCH  13  15
HETATM   15  C   UNK N   1      32.784  17.264   8.672  0.00  0.00     0.100 A 
HETATM   16  N   UNK N   1      32.767  16.219   9.415  0.00  0.00    -0.190 N 
HETATM   17  C   UNK N   1      34.112  15.982   9.796  0.00  0.00     0.679 A 
ATOM     18  HN  UNK N   1      31.949  15.669   9.679  1.00  0.00     0.184 HD
HETATM   19  N   UNK N   1      34.928  16.838   9.298  0.00  0.00    -0.155 N 
HETATM   20  N   UNK N   1      34.514  14.924  10.640  0.00  0.00    -0.234 N 
HETATM   21  C   UNK N   1      34.184  17.686   8.571  0.00  0.00     0.283 A 
ATOM     22  HN  UNK N   1      35.939  16.868   9.428  1.00  0.00     0.187 HD
HETATM   23  O   UNK N   1      34.640  18.620   7.932  0.00  0.00    -0.265 OA
HETATM   24  H   UNK N   1      35.469  14.709  10.742  0.00  0.00     0.174 HD
HETATM   25  H   UNK N   1      33.839  14.399  11.127  0.00  0.00     0.174 HD
ENDBRANCH  13  15
TORSDOF 1
ENDMDL
MODEL 2
REMARK VINA RESULT:      -6.6      2.271      3.325
REMARK  1 active torsions:
REMARK  status: ('A' for Active; 'I' for Inactive)
REMARK       I    between atoms: N_11  and  C_22 
REMARK    1  A    between atoms: C_19  and  C_20 
ROOT
HETATM    1 Br   UNK N   1      28.002  17.643   9.106  0.00  0.00    -0.032 Br
HETATM    2  O   UNK N   1      29.920  16.420   3.985  0.00  0.00    -0.266 OA
HETATM    3  N   UNK N   1      29.437  17.076   6.619  0.00  0.00    -0.349 N 
ATOM      4  HN  UNK N   1      28.579  16.854   6.116  1.00  0.00     0.166 HD
HETATM    5  N   UNK N   1      32.125  16.627   4.187  0.00  0.00    -0.356 N 
HETATM    6  C   UNK N   1      29.518  17.454   7.962  0.00  0.00     0.077 A 
HETATM    7  C   UNK N   1      30.769  17.676   8.328  0.00  0.00     0.022 A 
HETATM    8  C   UNK N   1      31.676  17.430   7.140  0.00  0.00     0.076 A 
HETATM    9  C   UNK N   1      30.616  17.051   6.124  0.00  0.00     0.087 A 
HETATM   10  C   UNK N   1      30.869  16.688   4.705  0.00  0.00     0.264 C 
HETATM   11  C   UNK N   1      33.331  16.894   4.941  0.00  0.00     0.123 C 
HETATM   12  C   UNK N   1      33.462  15.897   6.092  0.00  0.00     0.032 C 
HETATM   13  C   UNK N   1      32.695  16.285   7.375  0.00  0.00     0.057 C 
HETATM   14  H   UNK N   1      32.220  16.388   3.236  0.00  0.00     0.162 HD
ENDROOT
BRANCH  13  15
HETATM   15  C   UNK N   1      33.653  16.626   8.502  0.00  0.00     0.100 A 
HETATM   16  N   UNK N   1      33.772  15.917   9.564  0.00  0.00    -0.190 N 
HETATM   17  C   UNK N   1      34.764  16.551  10.354  0.00  0.00     0.679 A 
ATOM     18  HN  UNK N   1      33.257  15.067   9.794  1.00  0.00     0.184 HD
HETATM   19  N   UNK N   1      35.247  17.602   9.797  0.00  0.00    -0.155 N 
HETATM   20  N   UNK N   1      35.174  16.085  11.622  0.00  0.00    -0.234 N 
HETATM   21  C   UNK N   1      34.610  17.730   8.622  0.00  0.00     0.283 A 
ATOM     22  HN  UNK N   1      35.969  18.216  10.172  1.00  0.00     0.187 HD
HETATM   23  O   UNK N   1      34.837  18.615   7.815  0.00  0.00    -0.265 OA
HETATM   24  H   UNK N   1      35.973  16.466  12.053  0.00  0.00     0.174 HD
HETATM   25  H   UNK N   1      34.662  15.378  12.076  0.00  0.00     0.174 HD
ENDBRANCH  13  15
TORSDOF 1
ENDMDL
MODEL 3
REMARK VINA RESULT:      -6.2      2.853      6.382
REMARK  1 active torsions:
REMARK  status: ('A' for Active; 'I' for Inactive)
REMARK       I    between atoms: N_11  and  C_22 
REMARK    1  A    between atoms: C_19  and  C_20 
ROOT
HETATM    1 Br   UNK N   1      29.593  18.341   9.705  0.00  0.00    -0.032 Br
HETATM    2  O   UNK N   1      34.541  17.881   7.118  0.00  0.00    -0.266 OA
HETATM    3  N   UNK N   1      31.929  17.898   8.000  0.00  0.00    -0.349 N 
ATOM      4  HN  UNK N   1      32.559  18.351   8.660  1.00  0.00     0.166 HD
HETATM    5  N   UNK N   1      34.040  16.869   5.201  0.00  0.00    -0.356 N 
HETATM    6  C   UNK N   1      30.551  17.740   8.169  0.00  0.00     0.077 A 
HETATM    7  C   UNK N   1      30.006  17.112   7.140  0.00  0.00     0.022 A 
HETATM    8  C   UNK N   1      31.091  16.792   6.134  0.00  0.00     0.076 A 
HETATM    9  C   UNK N   1      32.271  17.383   6.880  0.00  0.00     0.087 A 
HETATM   10  C   UNK N   1      33.680  17.386   6.407  0.00  0.00     0.264 C 
HETATM   11  C   UNK N   1      33.113  16.282   4.259  0.00  0.00     0.123 C 
HETATM   12  C   UNK N   1      32.084  17.321   3.815  0.00  0.00     0.032 C 
HETATM   13  C   UNK N   1      30.870  17.473   4.758  0.00  0.00     0.057 C 
HETATM   14  H   UNK N   1      34.993  16.897   4.955  0.00  0.00     0.162 HD
ENDROOT
BRANCH  13  15
HETATM   15  C   UNK N   1      29.599  16.973   4.096  0.00  0.00     0.100 A 
HETATM   16  N   UNK N   1      29.521  15.854   3.475  0.00  0.00    -0.190 N 
HETATM   17  C   UNK N   1      28.183  15.747   3.018  0.00  0.00     0.679 A 
ATOM     18  HN  UNK N   1      30.271  15.176   3.338  1.00  0.00     0.184 HD
HETATM   19  N   UNK N   1      27.461  16.753   3.353  0.00  0.00    -0.155 N 
HETATM   20  N   UNK N   1      27.695  14.656   2.266  0.00  0.00    -0.234 N 
HETATM   21  C   UNK N   1      28.266  17.580   4.040  0.00  0.00     0.283 A 
ATOM     22  HN  UNK N   1      26.474  16.897   3.142  1.00  0.00     0.187 HD
HETATM   23  O   UNK N   1      27.902  18.634   4.534  0.00  0.00    -0.265 OA
HETATM   24  H   UNK N   1      26.728  14.555   2.114  0.00  0.00     0.174 HD
HETATM   25  H   UNK N   1      28.322  13.995   1.895  0.00  0.00     0.174 HD
ENDBRANCH  13  15
TORSDOF 1
ENDMDL
MODEL 4
REMARK VINA RESULT:      -6.2     12.193     14.421
REMARK  1 active torsions:
REMARK  status: ('A' for Active; 'I' for Inactive)
REMARK       I    between atoms: N_11  and  C_22 
REMARK    1  A    between atoms: C_19  and  C_20 
ROOT
HETATM    1 Br   UNK N   1      31.388  28.731  -2.905  0.00  0.00    -0.032 Br
HETATM    2  O   UNK N   1      25.920  28.200  -4.004  0.00  0.00    -0.266 OA
HETATM    3  N   UNK N   1      28.638  28.001  -3.586  0.00  0.00    -0.349 N 
ATOM      4  HN  UNK N   1      28.280  28.925  -3.347  1.00  0.00     0.166 HD
HETATM    5  N   UNK N   1      25.719  26.085  -4.660  0.00  0.00    -0.356 N 
HETATM    6  C   UNK N   1      29.972  27.596  -3.492  0.00  0.00     0.077 A 
HETATM    7  C   UNK N   1      30.124  26.338  -3.873  0.00  0.00     0.022 A 
HETATM    8  C   UNK N   1      28.773  25.784  -4.275  0.00  0.00     0.076 A 
HETATM    9  C   UNK N   1      27.937  27.022  -4.019  0.00  0.00     0.087 A 
HETATM   10  C   UNK N   1      26.471  27.135  -4.233  0.00  0.00     0.264 C 
HETATM   11  C   UNK N   1      26.246  24.767  -4.939  0.00  0.00     0.123 C 
HETATM   12  C   UNK N   1      26.859  24.167  -3.673  0.00  0.00     0.032 C 
HETATM   13  C   UNK N   1      28.321  24.583  -3.403  0.00  0.00     0.057 C 
HETATM   14  H   UNK N   1      24.754  26.232  -4.790  0.00  0.00     0.162 HD
ENDROOT
BRANCH  13  15
HETATM   15  C   UNK N   1      29.263  23.404  -3.562  0.00  0.00     0.100 A 
HETATM   16  N   UNK N   1      29.432  22.782  -4.671  0.00  0.00    -0.190 N 
HETATM   17  C   UNK N   1      30.387  21.766  -4.413  0.00  0.00     0.679 A 
ATOM     18  HN  UNK N   1      28.971  22.978  -5.559  1.00  0.00     0.184 HD
HETATM   19  N   UNK N   1      30.801  21.769  -3.199  0.00  0.00    -0.155 N 
HETATM   20  N   UNK N   1      30.833  20.843  -5.384  0.00  0.00    -0.234 N 
HETATM   21  C   UNK N   1      30.150  22.769  -2.583  0.00  0.00     0.283 A 
ATOM     22  HN  UNK N   1      31.486  21.138  -2.784  1.00  0.00     0.187 HD
HETATM   23  O   UNK N   1      30.318  23.077  -1.415  0.00  0.00    -0.265 OA
HETATM   24  H   UNK N   1      31.609  20.267  -5.199  0.00  0.00     0.174 HD
HETATM   25  H   UNK N   1      30.367  20.775  -6.249  0.00  0.00     0.174 HD
ENDBRANCH  13  15
TORSDOF 1
ENDMDL
MODEL 5
REMARK VINA RESULT:      -6.2      9.914     11.063
REMARK  1 active torsions:
REMARK  status: ('A' for Active; 'I' for Inactive)
REMARK       I    between atoms: N_11  and  C_22 
REMARK    1  A    between atoms: C_19  and  C_20 
ROOT
HETATM    1 Br   UNK N   1      19.109  17.625   9.066  0.00  0.00    -0.032 Br
HETATM    2  O   UNK N   1      19.797  14.560   4.426  0.00  0.00    -0.266 OA
HETATM    3  N   UNK N   1      19.799  15.789   6.894  0.00  0.00    -0.349 N 
ATOM      4  HN  UNK N   1      19.092  16.180   6.272  1.00  0.00     0.166 HD
HETATM    5  N   UNK N   1      21.411  13.131   4.974  0.00  0.00    -0.356 N 
HETATM    6  C   UNK N   1      20.051  16.207   8.203  0.00  0.00     0.077 A 
HETATM    7  C   UNK N   1      21.029  15.508   8.755  0.00  0.00     0.022 A 
HETATM    8  C   UNK N   1      21.525  14.487   7.752  0.00  0.00     0.076 A 
HETATM    9  C   UNK N   1      20.599  14.833   6.604  0.00  0.00     0.087 A 
HETATM   10  C   UNK N   1      20.585  14.170   5.273  0.00  0.00     0.264 C 
HETATM   11  C   UNK N   1      22.367  12.560   5.898  0.00  0.00     0.123 C 
HETATM   12  C   UNK N   1      21.644  11.992   7.119  0.00  0.00     0.032 C 
HETATM   13  C   UNK N   1      21.342  13.023   8.229  0.00  0.00     0.057 C 
HETATM   14  H   UNK N   1      21.354  12.744   4.070  0.00  0.00     0.162 HD
ENDROOT
BRANCH  13  15
HETATM   15  C   UNK N   1      22.165  12.743   9.473  0.00  0.00     0.100 A 
HETATM   16  N   UNK N   1      21.675  12.230  10.541  0.00  0.00    -0.190 N 
HETATM   17  C   UNK N   1      22.753  12.117  11.456  0.00  0.00     0.679 A 
ATOM     18  HN  UNK N   1      20.706  11.957  10.701  1.00  0.00     0.184 HD
HETATM   19  N   UNK N   1      23.865  12.532  10.968  0.00  0.00    -0.155 N 
HETATM   20  N   UNK N   1      22.620  11.611  12.767  0.00  0.00    -0.234 N 
HETATM   21  C   UNK N   1      23.596  12.945   9.719  0.00  0.00     0.283 A 
ATOM     22  HN  UNK N   1      24.771  12.546  11.435  1.00  0.00     0.187 HD
HETATM   23  O   UNK N   1      24.434  13.383   8.949  0.00  0.00    -0.265 OA
HETATM   24  H   UNK N   1      23.421  11.405  13.301  0.00  0.00     0.174 HD
HETATM   25  H   UNK N   1      21.725  11.463  13.149  0.00  0.00     0.174 HD
ENDBRANCH  13  15
TORSDOF 1
ENDMDL
MODEL 6
REMARK VINA RESULT:      -6.1     15.955     17.285
REMARK  1 active torsions:
REMARK  status: ('A' for Active; 'I' for Inactive)
REMARK       I    between atoms: N_11  and  C_22 
REMARK    1  A    between atoms: C_19  and  C_20 
ROOT
HETATM    1 Br   UNK N   1      29.744  29.350  -8.771  0.00  0.00    -0.032 Br
HETATM    2  O   UNK N   1      27.123  30.968  -4.090  0.00  0.00    -0.266 OA
HETATM    3  N   UNK N   1      28.203  29.750  -6.316  0.00  0.00    -0.349 N 
ATOM      4  HN  UNK N   1      28.537  30.707  -6.203  1.00  0.00     0.166 HD
HETATM    5  N   UNK N   1      25.983  29.161  -3.475  0.00  0.00    -0.356 N 
HETATM    6  C   UNK N   1      28.560  28.882  -7.350  0.00  0.00     0.077 A 
HETATM    7  C   UNK N   1      27.963  27.707  -7.224  0.00  0.00     0.022 A 
HETATM    8  C   UNK N   1      27.099  27.731  -5.981  0.00  0.00     0.076 A 
HETATM    9  C   UNK N   1      27.390  29.149  -5.532  0.00  0.00     0.087 A 
HETATM   10  C   UNK N   1      26.820  29.810  -4.329  0.00  0.00     0.264 C 
HETATM   11  C   UNK N   1      25.570  27.783  -3.631  0.00  0.00     0.123 C 
HETATM   12  C   UNK N   1      26.787  26.859  -3.575  0.00  0.00     0.032 C 
HETATM   13  C   UNK N   1      27.527  26.683  -4.919  0.00  0.00     0.057 C 
HETATM   14  H   UNK N   1      25.635  29.662  -2.702  0.00  0.00     0.162 HD
ENDROOT
BRANCH  13  15
HETATM   15  C   UNK N   1      27.368  25.270  -5.449  0.00  0.00     0.100 A 
HETATM   16  N   UNK N   1      28.359  24.490  -5.682  0.00  0.00    -0.190 N 
HETATM   17  C   UNK N   1      27.802  23.271  -6.147  0.00  0.00     0.679 A 
ATOM     18  HN  UNK N   1      29.349  24.703  -5.558  1.00  0.00     0.184 HD
HETATM   19  N   UNK N   1      26.520  23.293  -6.187  0.00  0.00    -0.155 N 
HETATM   20  N   UNK N   1      28.573  22.153  -6.533  0.00  0.00    -0.234 N 
HETATM   21  C   UNK N   1      26.153  24.513  -5.762  0.00  0.00     0.283 A 
ATOM     22  HN  UNK N   1      25.903  22.537  -6.481  1.00  0.00     0.187 HD
HETATM   23  O   UNK N   1      24.994  24.877  -5.649  0.00  0.00    -0.265 OA
HETATM   24  H   UNK N   1      28.138  21.285  -6.693  0.00  0.00     0.174 HD
HETATM   25  H   UNK N   1      29.547  22.241  -6.643  0.00  0.00     0.174 HD
ENDBRANCH  13  15
TORSDOF 1
ENDMDL
MODEL 7
REMARK VINA RESULT:      -6.1      8.806     11.812
REMARK  1 active torsions:
REMARK  status: ('A' for Active; 'I' for Inactive)
REMARK       I    between atoms: N_11  and  C_22 
REMARK    1  A    between atoms: C_19  and  C_20 
ROOT
HETATM    1 Br   UNK N   1      37.084   7.647  15.613  0.00  0.00    -0.032 Br
HETATM    2  O   UNK N   1      34.861  10.448  19.927  0.00  0.00    -0.266 OA
HETATM    3  N   UNK N   1      36.007   9.501  17.605  0.00  0.00    -0.349 N 
ATOM      4  HN  UNK N   1      35.738   8.746  18.235  1.00  0.00     0.166 HD
HETATM    5  N   UNK N   1      34.997  12.577  19.297  0.00  0.00    -0.356 N 
HETATM    6  C   UNK N   1      36.619   9.341  16.360  0.00  0.00     0.077 A 
HETATM    7  C   UNK N   1      36.844  10.507  15.777  0.00  0.00     0.022 A 
HETATM    8  C   UNK N   1      36.344  11.610  16.686  0.00  0.00     0.076 A 
HETATM    9  C   UNK N   1      35.837  10.749  17.826  0.00  0.00     0.087 A 
HETATM   10  C   UNK N   1      35.210  11.252  19.077  0.00  0.00     0.264 C 
HETATM   11  C   UNK N   1      35.339  13.623  18.359  0.00  0.00     0.123 C 
HETATM   12  C   UNK N   1      34.563  13.436  17.055  0.00  0.00     0.032 C 
HETATM   13  C   UNK N   1      35.214  12.461  16.050  0.00  0.00     0.057 C 
HETATM   14  H   UNK N   1      34.584  12.840  20.152  0.00  0.00     0.162 HD
ENDROOT
BRANCH  13  15
HETATM   15  C   UNK N   1      35.708  13.197  14.818  0.00  0.00     0.100 A 
HETATM   16  N   UNK N   1      35.224  13.012  13.645  0.00  0.00    -0.190 N 
HETATM   17  C   UNK N   1      35.935  13.885  12.781  0.00  0.00     0.679 A 
ATOM     18  HN  UNK N   1      34.478  12.367  13.385  1.00  0.00     0.184 HD
HETATM   19  N   UNK N   1      36.812  14.589  13.399  0.00  0.00    -0.155 N 
HETATM   20  N   UNK N   1      35.709  13.967  11.390  0.00  0.00    -0.234 N 
HETATM   21  C   UNK N   1      36.743  14.228  14.690  0.00  0.00     0.283 A 
ATOM     22  HN  UNK N   1      37.437  15.283  12.990  1.00  0.00     0.187 HD
HETATM   23  O   UNK N   1      37.426  14.717  15.574  0.00  0.00    -0.265 OA
HETATM   24  H   UNK N   1      36.112  14.697  10.868  0.00  0.00     0.174 HD
HETATM   25  H   UNK N   1      35.148  13.295  10.942  0.00  0.00     0.174 HD
ENDBRANCH  13  15
TORSDOF 1
ENDMDL
MODEL 8
REMARK VINA RESULT:      -6.0     14.322     16.033
REMARK  1 active torsions:
REMARK  status: ('A' for Active; 'I' for Inactive)
REMARK       I    between atoms: N_11  and  C_22 
REMARK    1  A    between atoms: C_19  and  C_20 
ROOT
HETATM    1 Br   UNK N   1      30.405  22.603  -3.285  0.00  0.00    -0.032 Br
HETATM    2  O   UNK N   1      26.692  23.009  -7.462  0.00  0.00    -0.266 OA
HETATM    3  N   UNK N   1      28.330  23.220  -5.254  0.00  0.00    -0.349 N 
ATOM      4  HN  UNK N   1      28.556  22.405  -5.822  1.00  0.00     0.166 HD
HETATM    5  N   UNK N   1      25.584  24.882  -7.000  0.00  0.00    -0.356 N 
HETATM    6  C   UNK N   1      28.973  23.590  -4.070  0.00  0.00     0.077 A 
HETATM    7  C   UNK N   1      28.454  24.696  -3.562  0.00  0.00     0.022 A 
HETATM    8  C   UNK N   1      27.336  25.170  -4.466  0.00  0.00     0.076 A 
HETATM    9  C   UNK N   1      27.411  24.073  -5.510  0.00  0.00     0.087 A 
HETATM   10  C   UNK N   1      26.538  23.957  -6.708  0.00  0.00     0.264 C 
HETATM   11  C   UNK N   1      25.322  26.060  -6.203  0.00  0.00     0.123 C 
HETATM   12  C   UNK N   1      26.563  26.953  -6.159  0.00  0.00     0.032 C 
HETATM   13  C   UNK N   1      27.595  26.573  -5.075  0.00  0.00     0.057 C 
HETATM   14  H   UNK N   1      25.035  24.738  -7.805  0.00  0.00     0.162 HD
ENDROOT
BRANCH  13  15
HETATM   15  C   UNK N   1      27.666  27.636  -3.994  0.00  0.00     0.100 A 
HETATM   16  N   UNK N   1      28.736  28.286  -3.714  0.00  0.00    -0.190 N 
HETATM   17  C   UNK N   1      28.392  29.183  -2.671  0.00  0.00     0.679 A 
ATOM     18  HN  UNK N   1      29.649  28.179  -4.154  1.00  0.00     0.184 HD
HETATM   19  N   UNK N   1      27.158  29.099  -2.329  0.00  0.00    -0.155 N 
HETATM   20  N   UNK N   1      29.308  30.069  -2.065  0.00  0.00    -0.234 N 
HETATM   21  C   UNK N   1      26.616  28.151  -3.110  0.00  0.00     0.283 A 
ATOM     22  HN  UNK N   1      26.684  29.644  -1.609  1.00  0.00     0.187 HD
HETATM   23  O   UNK N   1      25.442  27.823  -3.072  0.00  0.00    -0.265 OA
HETATM   24  H   UNK N   1      28.986  30.778  -1.463  0.00  0.00     0.174 HD
HETATM   25  H   UNK N   1      30.272  29.980  -2.245  0.00  0.00     0.174 HD
ENDBRANCH  13  15
TORSDOF 1
ENDMDL
MODEL 9
REMARK VINA RESULT:      -6.0      2.985      5.658
REMARK  1 active torsions:
REMARK  status: ('A' for Active; 'I' for Inactive)
REMARK       I    between atoms: N_11  and  C_22 
REMARK    1  A    between atoms: C_19  and  C_20 
ROOT
HETATM    1 Br   UNK N   1      33.463  11.692   7.420  0.00  0.00    -0.032 Br
HETATM    2  O   UNK N   1      35.339  15.895  10.616  0.00  0.00    -0.266 OA
HETATM    3  N   UNK N   1      34.290  14.171   8.737  0.00  0.00    -0.349 N 
ATOM      4  HN  UNK N   1      34.614  13.679   9.569  1.00  0.00     0.166 HD
HETATM    5  N   UNK N   1      34.915  17.709   9.400  0.00  0.00    -0.356 N 
HETATM    6  C   UNK N   1      33.722  13.573   7.609  0.00  0.00     0.077 A 
HETATM    7  C   UNK N   1      33.403  14.472   6.693  0.00  0.00     0.022 A 
HETATM    8  C   UNK N   1      33.772  15.847   7.210  0.00  0.00     0.076 A 
HETATM    9  C   UNK N   1      34.337  15.437   8.555  0.00  0.00     0.087 A 
HETATM   10  C   UNK N   1      34.896  16.360   9.577  0.00  0.00     0.264 C 
HETATM   11  C   UNK N   1      34.398  18.383   8.230  0.00  0.00     0.123 C 
HETATM   12  C   UNK N   1      32.901  18.110   8.084  0.00  0.00     0.032 C 
HETATM   13  C   UNK N   1      32.552  16.794   7.355  0.00  0.00     0.057 C 
HETATM   14  H   UNK N   1      35.308  18.261  10.115  0.00  0.00     0.162 HD
ENDROOT
BRANCH  13  15
HETATM   15  C   UNK N   1      31.909  17.070   6.008  0.00  0.00     0.100 A 
HETATM   16  N   UNK N   1      30.666  16.868   5.766  0.00  0.00    -0.190 N 
HETATM   17  C   UNK N   1      30.457  17.256   4.418  0.00  0.00     0.679 A 
ATOM     18  HN  UNK N   1      29.968  16.503   6.413  1.00  0.00     0.184 HD
HETATM   19  N   UNK N   1      31.524  17.691   3.855  0.00  0.00    -0.155 N 
HETATM   20  N   UNK N   1      29.211  17.167   3.760  0.00  0.00    -0.234 N 
HETATM   21  C   UNK N   1      32.495  17.615   4.780  0.00  0.00     0.283 A 
ATOM     22  HN  UNK N   1      31.618  18.028   2.897  1.00  0.00     0.187 HD
HETATM   23  O   UNK N   1      33.646  17.972   4.593  0.00  0.00    -0.265 OA
HETATM   24  H   UNK N   1      29.084  17.596   2.883  0.00  0.00     0.174 HD
HETATM   25  H   UNK N   1      28.468  16.676   4.178  0.00  0.00     0.174 HD
ENDBRANCH  13  15
TORSDOF 1
ENDMDL
