REMARK  1 active torsions:
REMARK  status: ('A' for Active; 'I' for Inactive)
REMARK       I    between atoms: N_11  and  C_22 
REMARK    1  A    between atoms: C_19  and  C_20 
ROOT
HETATM    1 Br   UNK N   1      -4.957  -1.615   0.612  0.00  0.00    -0.032 Br
HETATM    2  O   UNK N   1       0.043  -4.113   0.215  0.00  0.00    -0.266 OA
HETATM    3  N   UNK N   1      -2.183  -2.487   0.284  0.00  0.00    -0.349 N 
ATOM      4  HN  UNK N   1      -2.397  -3.442   0.570  1.00  0.00     0.166 HD
HETATM    5  N   UNK N   1       1.402  -2.470  -0.418  0.00  0.00    -0.356 N 
HETATM    6  C   UNK N   1      -3.101  -1.437   0.206  0.00  0.00     0.077 A 
HETATM    7  C   UNK N   1      -2.523  -0.317  -0.196  0.00  0.00     0.022 A 
HETATM    8  C   UNK N   1      -1.050  -0.584  -0.425  0.00  0.00     0.076 A 
HETATM    9  C   UNK N   1      -1.029  -2.055  -0.060  0.00  0.00     0.087 A 
HETATM   10  C   UNK N   1       0.168  -2.936  -0.086  0.00  0.00     0.264 C 
HETATM   11  C   UNK N   1       1.686  -1.095  -0.766  0.00  0.00     0.123 C 
HETATM   12  C   UNK N   1       1.354  -0.175   0.409  0.00  0.00     0.032 C 
HETATM   13  C   UNK N   1      -0.126   0.258   0.493  0.00  0.00     0.057 C 
HETATM   14  H   UNK N   1       2.150  -3.111  -0.423  0.00  0.00     0.162 HD
ENDROOT
BRANCH  13  15
HETATM   15  C   UNK N   1      -0.277   1.742   0.211  0.00  0.00     0.100 A 
HETATM   16  N   UNK N   1      -1.403   2.355   0.248  0.00  0.00    -0.190 N 
HETATM   17  C   UNK N   1      -1.125   3.712  -0.056  0.00  0.00     0.679 A 
ATOM     18  HN  UNK N   1      -2.315   1.948   0.455  1.00  0.00     0.184 HD
HETATM   19  N   UNK N   1       0.123   3.930  -0.260  0.00  0.00    -0.155 N 
HETATM   20  N   UNK N   1      -2.113   4.717  -0.135  0.00  0.00    -0.234 N 
HETATM   21  C   UNK N   1       0.740   2.747  -0.111  0.00  0.00     0.283 A 
ATOM     22  HN  UNK N   1       0.559   4.823  -0.489  1.00  0.00     0.187 HD
HETATM   23  O   UNK N   1       1.945   2.587  -0.212  0.00  0.00    -0.265 OA
HETATM   24  H   UNK N   1      -1.851   5.664  -0.189  0.00  0.00     0.174 HD
HETATM   25  H   UNK N   1      -3.066   4.471  -0.135  0.00  0.00     0.174 HD
ENDBRANCH  13  15
TORSDOF 1
