MODEL 1
REMARK VINA RESULT:      -7.6      0.000      0.000
REMARK  1 active torsions:
REMARK  status: ('A' for Active; 'I' for Inactive)
REMARK    1  A    between atoms: C_2  and  O_19 
ROOT
HETATM    1  C   UNK N   1      25.032  21.323  -7.780  0.00  0.00     0.033 C 
HETATM    2  C   UNK N   1      25.780  21.612  -9.082  0.00  0.00     0.122 C 
HETATM    3  C   UNK N   1      25.522  23.033  -9.577  0.00  0.00     0.066 C 
HETATM    4  C   UNK N   1      25.765  24.049  -8.490  0.00  0.00    -0.072 C 
HETATM    5  C   UNK N   1      26.149  23.575  -7.090  0.00  0.00    -0.017 C 
HETATM    6  C   UNK N   1      25.241  22.396  -6.692  0.00  0.00     0.016 C 
HETATM    7  C   UNK N   1      25.647  25.350  -8.800  0.00  0.00    -0.023 C 
HETATM    8  C   UNK N   1      25.902  26.468  -7.820  0.00  0.00     0.033 C 
HETATM    9  C   UNK N   1      26.625  26.016  -6.544  0.00  0.00    -0.001 C 
HETATM   10  C   UNK N   1      25.972  24.706  -6.037  0.00  0.00     0.003 C 
HETATM   11  C   UNK N   1      26.480  27.095  -5.456  0.00  0.00     0.001 C 
HETATM   12  C   UNK N   1      27.113  26.667  -4.137  0.00  0.00    -0.014 C 
HETATM   13  C   UNK N   1      26.406  25.415  -3.612  0.00  0.00     0.012 C 
HETATM   14  C   UNK N   1      26.517  24.284  -4.649  0.00  0.00     0.007 C 
HETATM   15  C   UNK N   1      27.115  28.449  -5.714  0.00  0.00     0.008 C 
HETATM   16  C   UNK N   1      27.279  29.050  -4.305  0.00  0.00     0.033 C 
HETATM   17  C   UNK N   1      26.951  27.931  -3.299  0.00  0.00     0.126 C 
HETATM   18  C   UNK N   1      27.602  23.096  -7.134  0.00  0.00     0.020 C 
HETATM   19  C   UNK N   1      28.616  26.372  -4.264  0.00  0.00     0.018 C 
HETATM   20  O   UNK N   1      25.622  28.088  -2.888  0.00  0.00    -0.395 OA
HETATM   21  H   UNK N   1      24.691  28.272  -2.688  0.00  0.00     0.210 HD
ENDROOT
BRANCH   2  22
HETATM   22  O   UNK N   1      25.400  20.693 -10.059  0.00  0.00    -0.395 OA
HETATM   23  H   UNK N   1      25.596  19.750  -9.945  0.00  0.00     0.210 HD
ENDBRANCH   2  22
TORSDOF 1
ENDMDL
MODEL 2
REMARK VINA RESULT:      -7.3     26.640     28.810
REMARK  1 active torsions:
REMARK  status: ('A' for Active; 'I' for Inactive)
REMARK    1  A    between atoms: C_2  and  O_19 
ROOT
HETATM    1  C   UNK N   1      36.538   9.577  20.215  0.00  0.00     0.033 C 
HETATM    2  C   UNK N   1      35.202  10.160  20.675  0.00  0.00     0.122 C 
HETATM    3  C   UNK N   1      35.043  11.615  20.240  0.00  0.00     0.066 C 
HETATM    4  C   UNK N   1      35.314  11.785  18.767  0.00  0.00    -0.072 C 
HETATM    5  C   UNK N   1      35.754  10.579  17.940  0.00  0.00    -0.017 C 
HETATM    6  C   UNK N   1      36.834   9.804  18.718  0.00  0.00     0.016 C 
HETATM    7  C   UNK N   1      35.141  13.002  18.226  0.00  0.00    -0.023 C 
HETATM    8  C   UNK N   1      35.337  13.299  16.761  0.00  0.00     0.033 C 
HETATM    9  C   UNK N   1      35.425  12.043  15.883  0.00  0.00    -0.001 C 
HETATM   10  C   UNK N   1      36.355  11.015  16.573  0.00  0.00     0.003 C 
HETATM   11  C   UNK N   1      36.021  12.409  14.513  0.00  0.00     0.001 C 
HETATM   12  C   UNK N   1      36.204  11.185  13.623  0.00  0.00    -0.014 C 
HETATM   13  C   UNK N   1      37.185  10.213  14.284  0.00  0.00     0.012 C 
HETATM   14  C   UNK N   1      36.649   9.795  15.664  0.00  0.00     0.007 C 
HETATM   15  C   UNK N   1      35.231  13.356  13.627  0.00  0.00     0.008 C 
HETATM   16  C   UNK N   1      35.772  13.072  12.214  0.00  0.00     0.033 C 
HETATM   17  C   UNK N   1      36.669  11.825  12.319  0.00  0.00     0.126 C 
HETATM   18  C   UNK N   1      34.537   9.675  17.735  0.00  0.00     0.020 C 
HETATM   19  C   UNK N   1      34.886  10.446  13.345  0.00  0.00     0.018 C 
HETATM   20  O   UNK N   1      37.999  12.249  12.420  0.00  0.00    -0.395 OA
HETATM   21  H   UNK N   1      38.879  12.648  12.507  0.00  0.00     0.210 HD
ENDROOT
BRANCH   2  22
HETATM   22  O   UNK N   1      35.097  10.064  22.061  0.00  0.00    -0.395 OA
HETATM   23  H   UNK N   1      35.877   9.853  22.597  0.00  0.00     0.210 HD
ENDBRANCH   2  22
TORSDOF 1
ENDMDL
MODEL 3
REMARK VINA RESULT:      -7.2      4.429      6.690
REMARK  1 active torsions:
REMARK  status: ('A' for Active; 'I' for Inactive)
REMARK    1  A    between atoms: C_2  and  O_19 
ROOT
HETATM    1  C   UNK N   1      26.027  23.952  -6.440  0.00  0.00     0.033 C 
HETATM    2  C   UNK N   1      26.112  25.227  -5.600  0.00  0.00     0.122 C 
HETATM    3  C   UNK N   1      26.484  24.923  -4.151  0.00  0.00     0.066 C 
HETATM    4  C   UNK N   1      27.708  24.047  -4.067  0.00  0.00    -0.072 C 
HETATM    5  C   UNK N   1      28.359  23.538  -5.352  0.00  0.00    -0.017 C 
HETATM    6  C   UNK N   1      27.259  23.035  -6.305  0.00  0.00     0.016 C 
HETATM    7  C   UNK N   1      28.198  23.756  -2.851  0.00  0.00    -0.023 C 
HETATM    8  C   UNK N   1      29.437  22.927  -2.627  0.00  0.00     0.033 C 
HETATM    9  C   UNK N   1      30.279  22.722  -3.893  0.00  0.00    -0.001 C 
HETATM   10  C   UNK N   1      29.337  22.362  -5.068  0.00  0.00     0.003 C 
HETATM   11  C   UNK N   1      31.267  21.562  -3.678  0.00  0.00     0.001 C 
HETATM   12  C   UNK N   1      32.079  21.260  -4.932  0.00  0.00    -0.014 C 
HETATM   13  C   UNK N   1      31.138  20.833  -6.062  0.00  0.00     0.012 C 
HETATM   14  C   UNK N   1      30.121  21.953  -6.340  0.00  0.00     0.007 C 
HETATM   15  C   UNK N   1      32.337  21.731  -2.614  0.00  0.00     0.008 C 
HETATM   16  C   UNK N   1      33.425  20.722  -3.026  0.00  0.00     0.033 C 
HETATM   17  C   UNK N   1      33.042  20.194  -4.420  0.00  0.00     0.126 C 
HETATM   18  C   UNK N   1      29.093  24.709  -6.008  0.00  0.00     0.020 C 
HETATM   19  C   UNK N   1      32.911  22.461  -5.407  0.00  0.00     0.018 C 
HETATM   20  O   UNK N   1      32.386  18.968  -4.260  0.00  0.00    -0.395 OA
HETATM   21  H   UNK N   1      31.926  18.143  -4.037  0.00  0.00     0.210 HD
ENDROOT
BRANCH   2  22
HETATM   22  O   UNK N   1      24.895  25.905  -5.646  0.00  0.00    -0.395 OA
HETATM   23  H   UNK N   1      24.871  26.851  -5.860  0.00  0.00     0.210 HD
ENDBRANCH   2  22
TORSDOF 1
ENDMDL
MODEL 4
REMARK VINA RESULT:      -7.1     25.087     27.155
REMARK  1 active torsions:
REMARK  status: ('A' for Active; 'I' for Inactive)
REMARK    1  A    between atoms: C_2  and  O_19 
ROOT
HETATM    1  C   UNK N   1      36.426   9.466  18.025  0.00  0.00     0.033 C 
HETATM    2  C   UNK N   1      35.148  10.127  18.546  0.00  0.00     0.122 C 
HETATM    3  C   UNK N   1      35.201  11.646  18.401  0.00  0.00     0.066 C 
HETATM    4  C   UNK N   1      35.578  12.054  17.000  0.00  0.00    -0.072 C 
HETATM    5  C   UNK N   1      35.911  10.980  15.967  0.00  0.00    -0.017 C 
HETATM    6  C   UNK N   1      36.836   9.931  16.614  0.00  0.00     0.016 C 
HETATM    7  C   UNK N   1      35.593  13.364  16.703  0.00  0.00    -0.023 C 
HETATM    8  C   UNK N   1      35.913  13.906  15.333  0.00  0.00     0.033 C 
HETATM    9  C   UNK N   1      35.893  12.840  14.228  0.00  0.00    -0.001 C 
HETATM   10  C   UNK N   1      36.643  11.583  14.733  0.00  0.00     0.003 C 
HETATM   11  C   UNK N   1      36.610  13.376  12.977  0.00  0.00     0.001 C 
HETATM   12  C   UNK N   1      36.690  12.330  11.871  0.00  0.00    -0.014 C 
HETATM   13  C   UNK N   1      37.499  11.126  12.361  0.00  0.00     0.012 C 
HETATM   14  C   UNK N   1      36.833  10.530  13.613  0.00  0.00     0.007 C 
HETATM   15  C   UNK N   1      36.001  14.572  12.269  0.00  0.00     0.008 C 
HETATM   16  C   UNK N   1      36.585  14.492  10.847  0.00  0.00     0.033 C 
HETATM   17  C   UNK N   1      37.309  13.138  10.735  0.00  0.00     0.126 C 
HETATM   18  C   UNK N   1      34.604  10.305  15.548  0.00  0.00     0.020 C 
HETATM   19  C   UNK N   1      35.308  11.844  11.409  0.00  0.00     0.018 C 
HETATM   20  O   UNK N   1      38.674  13.351  10.962  0.00  0.00    -0.395 OA
HETATM   21  H   UNK N   1      39.590  13.603  11.155  0.00  0.00     0.210 HD
ENDROOT
BRANCH   2  22
HETATM   22  O   UNK N   1      34.949   9.784  19.882  0.00  0.00    -0.395 OA
HETATM   23  H   UNK N   1      34.825  10.474  20.551  0.00  0.00     0.210 HD
ENDBRANCH   2  22
TORSDOF 1
ENDMDL
MODEL 5
REMARK VINA RESULT:      -7.1     17.309     18.977
REMARK  1 active torsions:
REMARK  status: ('A' for Active; 'I' for Inactive)
REMARK    1  A    between atoms: C_2  and  O_19 
ROOT
HETATM    1  C   UNK N   1      31.848  15.422   4.202  0.00  0.00     0.033 C 
HETATM    2  C   UNK N   1      32.627  16.646   3.721  0.00  0.00     0.122 C 
HETATM    3  C   UNK N   1      32.721  17.716   4.806  0.00  0.00     0.066 C 
HETATM    4  C   UNK N   1      33.222  17.141   6.106  0.00  0.00    -0.072 C 
HETATM    5  C   UNK N   1      33.495  15.642   6.211  0.00  0.00    -0.017 C 
HETATM    6  C   UNK N   1      32.329  14.873   5.561  0.00  0.00     0.016 C 
HETATM    7  C   UNK N   1      33.425  17.981   7.134  0.00  0.00    -0.023 C 
HETATM    8  C   UNK N   1      33.961  17.544   8.475  0.00  0.00     0.033 C 
HETATM    9  C   UNK N   1      34.565  16.134   8.468  0.00  0.00    -0.001 C 
HETATM   10  C   UNK N   1      33.616  15.187   7.693  0.00  0.00     0.003 C 
HETATM   11  C   UNK N   1      34.705  15.622   9.912  0.00  0.00     0.001 C 
HETATM   12  C   UNK N   1      35.230  14.192   9.964  0.00  0.00    -0.014 C 
HETATM   13  C   UNK N   1      34.243  13.257   9.260  0.00  0.00     0.012 C 
HETATM   14  C   UNK N   1      34.057  13.706   7.800  0.00  0.00     0.007 C 
HETATM   15  C   UNK N   1      35.652  16.364  10.838  0.00  0.00     0.008 C 
HETATM   16  C   UNK N   1      35.977  15.332  11.933  0.00  0.00     0.033 C 
HETATM   17  C   UNK N   1      35.396  13.985  11.467  0.00  0.00     0.126 C 
HETATM   18  C   UNK N   1      34.784  15.342   5.442  0.00  0.00     0.020 C 
HETATM   19  C   UNK N   1      36.611  14.038   9.310  0.00  0.00     0.018 C 
HETATM   20  O   UNK N   1      34.152  13.806  12.084  0.00  0.00    -0.395 OA
HETATM   21  H   UNK N   1      33.298  13.793  12.543  0.00  0.00     0.210 HD
ENDROOT
BRANCH   2  22
HETATM   22  O   UNK N   1      32.019  17.175   2.583  0.00  0.00    -0.395 OA
HETATM   23  H   UNK N   1      32.560  17.534   1.862  0.00  0.00     0.210 HD
ENDBRANCH   2  22
TORSDOF 1
ENDMDL
MODEL 6
REMARK VINA RESULT:      -7.1     23.666     25.775
REMARK  1 active torsions:
REMARK  status: ('A' for Active; 'I' for Inactive)
REMARK    1  A    between atoms: C_2  and  O_19 
ROOT
HETATM    1  C   UNK N   1      35.163  12.415  17.711  0.00  0.00     0.033 C 
HETATM    2  C   UNK N   1      35.462  10.916  17.679  0.00  0.00     0.122 C 
HETATM    3  C   UNK N   1      34.630  10.198  16.621  0.00  0.00     0.066 C 
HETATM    4  C   UNK N   1      34.739  10.875  15.279  0.00  0.00    -0.072 C 
HETATM    5  C   UNK N   1      35.559  12.157  15.147  0.00  0.00    -0.017 C 
HETATM    6  C   UNK N   1      35.222  13.090  16.326  0.00  0.00     0.016 C 
HETATM    7  C   UNK N   1      34.116  10.311  14.231  0.00  0.00    -0.023 C 
HETATM    8  C   UNK N   1      34.178  10.862  12.828  0.00  0.00     0.033 C 
HETATM    9  C   UNK N   1      35.272  11.920  12.629  0.00  0.00    -0.001 C 
HETATM   10  C   UNK N   1      35.237  12.906  13.823  0.00  0.00     0.003 C 
HETATM   11  C   UNK N   1      35.005  12.704  11.332  0.00  0.00     0.001 C 
HETATM   12  C   UNK N   1      36.018  13.823  11.121  0.00  0.00    -0.014 C 
HETATM   13  C   UNK N   1      35.918  14.829  12.270  0.00  0.00     0.012 C 
HETATM   14  C   UNK N   1      36.182  14.114  13.607  0.00  0.00     0.007 C 
HETATM   15  C   UNK N   1      35.063  11.942  10.020  0.00  0.00     0.008 C 
HETATM   16  C   UNK N   1      35.313  13.040   8.970  0.00  0.00     0.033 C 
HETATM   17  C   UNK N   1      35.618  14.337   9.741  0.00  0.00     0.126 C 
HETATM   18  C   UNK N   1      37.040  11.781  15.214  0.00  0.00     0.020 C 
HETATM   19  C   UNK N   1      37.464  13.311  11.034  0.00  0.00     0.018 C 
HETATM   20  O   UNK N   1      34.441  15.091   9.815  0.00  0.00    -0.395 OA
HETATM   21  H   UNK N   1      33.571  15.519   9.828  0.00  0.00     0.210 HD
ENDROOT
BRANCH   2  22
HETATM   22  O   UNK N   1      35.219  10.359  18.934  0.00  0.00    -0.395 OA
HETATM   23  H   UNK N   1      34.310  10.268  19.260  0.00  0.00     0.210 HD
ENDBRANCH   2  22
TORSDOF 1
ENDMDL
MODEL 7
REMARK VINA RESULT:      -7.0      3.597      6.332
REMARK  1 active torsions:
REMARK  status: ('A' for Active; 'I' for Inactive)
REMARK    1  A    between atoms: C_2  and  O_19 
ROOT
HETATM    1  C   UNK N   1      30.397  22.430  -2.521  0.00  0.00     0.033 C 
HETATM    2  C   UNK N   1      31.681  21.913  -3.171  0.00  0.00     0.122 C 
HETATM    3  C   UNK N   1      31.388  20.851  -4.228  0.00  0.00     0.066 C 
HETATM    4  C   UNK N   1      30.349  21.322  -5.211  0.00  0.00    -0.072 C 
HETATM    5  C   UNK N   1      29.695  22.689  -5.018  0.00  0.00    -0.017 C 
HETATM    6  C   UNK N   1      29.316  22.858  -3.534  0.00  0.00     0.016 C 
HETATM    7  C   UNK N   1      30.042  20.520  -6.244  0.00  0.00    -0.023 C 
HETATM    8  C   UNK N   1      29.051  20.886  -7.320  0.00  0.00     0.033 C 
HETATM    9  C   UNK N   1      28.671  22.373  -7.327  0.00  0.00    -0.001 C 
HETATM   10  C   UNK N   1      28.402  22.828  -5.872  0.00  0.00     0.003 C 
HETATM   11  C   UNK N   1      27.389  22.577  -8.155  0.00  0.00     0.001 C 
HETATM   12  C   UNK N   1      26.919  24.027  -8.134  0.00  0.00    -0.014 C 
HETATM   13  C   UNK N   1      26.585  24.437  -6.697  0.00  0.00     0.012 C 
HETATM   14  C   UNK N   1      27.829  24.266  -5.808  0.00  0.00     0.007 C 
HETATM   15  C   UNK N   1      27.447  22.260  -9.638  0.00  0.00     0.008 C 
HETATM   16  C   UNK N   1      26.273  23.063 -10.229  0.00  0.00     0.033 C 
HETATM   17  C   UNK N   1      25.746  23.979  -9.109  0.00  0.00     0.126 C 
HETATM   18  C   UNK N   1      30.717  23.761  -5.400  0.00  0.00     0.020 C 
HETATM   19  C   UNK N   1      27.964  25.002  -8.698  0.00  0.00     0.018 C 
HETATM   20  O   UNK N   1      24.637  23.358  -8.521  0.00  0.00    -0.395 OA
HETATM   21  H   UNK N   1      23.899  22.835  -8.173  0.00  0.00     0.210 HD
ENDROOT
BRANCH   2  22
HETATM   22  O   UNK N   1      32.527  21.390  -2.194  0.00  0.00    -0.395 OA
HETATM   23  H   UNK N   1      32.215  20.690  -1.600  0.00  0.00     0.210 HD
ENDBRANCH   2  22
TORSDOF 1
ENDMDL
MODEL 8
REMARK VINA RESULT:      -6.9      4.904      6.503
REMARK  1 active torsions:
REMARK  status: ('A' for Active; 'I' for Inactive)
REMARK    1  A    between atoms: C_2  and  O_19 
ROOT
HETATM    1  C   UNK N   1      33.650  20.777  -2.948  0.00  0.00     0.033 C 
HETATM    2  C   UNK N   1      34.193  20.486  -4.348  0.00  0.00     0.122 C 
HETATM    3  C   UNK N   1      33.113  19.915  -5.263  0.00  0.00     0.066 C 
HETATM    4  C   UNK N   1      31.870  20.767  -5.250  0.00  0.00    -0.072 C 
HETATM    5  C   UNK N   1      31.804  21.987  -4.334  0.00  0.00    -0.017 C 
HETATM    6  C   UNK N   1      32.348  21.602  -2.945  0.00  0.00     0.016 C 
HETATM    7  C   UNK N   1      30.859  20.426  -6.066  0.00  0.00    -0.023 C 
HETATM    8  C   UNK N   1      29.578  21.214  -6.181  0.00  0.00     0.033 C 
HETATM    9  C   UNK N   1      29.653  22.610  -5.546  0.00  0.00    -0.001 C 
HETATM   10  C   UNK N   1      30.343  22.494  -4.164  0.00  0.00     0.003 C 
HETATM   11  C   UNK N   1      28.233  23.166  -5.345  0.00  0.00     0.001 C 
HETATM   12  C   UNK N   1      28.242  24.520  -4.645  0.00  0.00    -0.014 C 
HETATM   13  C   UNK N   1      28.857  24.373  -3.252  0.00  0.00     0.012 C 
HETATM   14  C   UNK N   1      30.290  23.825  -3.374  0.00  0.00     0.007 C 
HETATM   15  C   UNK N   1      27.394  23.429  -6.583  0.00  0.00     0.008 C 
HETATM   16  C   UNK N   1      26.342  24.446  -6.102  0.00  0.00     0.033 C 
HETATM   17  C   UNK N   1      26.763  24.894  -4.691  0.00  0.00     0.126 C 
HETATM   18  C   UNK N   1      32.692  23.078  -4.935  0.00  0.00     0.020 C 
HETATM   19  C   UNK N   1      29.024  25.589  -5.424  0.00  0.00     0.018 C 
HETATM   20  O   UNK N   1      26.033  24.147  -3.758  0.00  0.00    -0.395 OA
HETATM   21  H   UNK N   1      25.496  23.564  -3.200  0.00  0.00     0.210 HD
ENDROOT
BRANCH   2  22
HETATM   22  O   UNK N   1      35.264  19.598  -4.264  0.00  0.00    -0.395 OA
HETATM   23  H   UNK N   1      35.158  18.677  -4.548  0.00  0.00     0.210 HD
ENDBRANCH   2  22
TORSDOF 1
ENDMDL
MODEL 9
REMARK VINA RESULT:      -6.9     26.459     28.431
REMARK  1 active torsions:
REMARK  status: ('A' for Active; 'I' for Inactive)
REMARK    1  A    between atoms: C_2  and  O_19 
ROOT
HETATM    1  C   UNK N   1      35.822  12.148  12.279  0.00  0.00     0.033 C 
HETATM    2  C   UNK N   1      36.813  13.272  12.583  0.00  0.00     0.122 C 
HETATM    3  C   UNK N   1      36.351  14.125  13.762  0.00  0.00     0.066 C 
HETATM    4  C   UNK N   1      36.000  13.274  14.956  0.00  0.00    -0.072 C 
HETATM    5  C   UNK N   1      36.073  11.753  14.843  0.00  0.00    -0.017 C 
HETATM    6  C   UNK N   1      35.424  11.317  13.515  0.00  0.00     0.016 C 
HETATM    7  C   UNK N   1      35.647  13.893  16.094  0.00  0.00    -0.023 C 
HETATM    8  C   UNK N   1      35.312  13.164  17.371  0.00  0.00     0.033 C 
HETATM    9  C   UNK N   1      35.726  11.686  17.364  0.00  0.00    -0.001 C 
HETATM   10  C   UNK N   1      35.315  11.058  16.010  0.00  0.00     0.003 C 
HETATM   11  C   UNK N   1      35.001  10.940  18.497  0.00  0.00     0.001 C 
HETATM   12  C   UNK N   1      35.314   9.448  18.491  0.00  0.00    -0.014 C 
HETATM   13  C   UNK N   1      34.833   8.827  17.177  0.00  0.00     0.012 C 
HETATM   14  C   UNK N   1      35.525   9.523  15.993  0.00  0.00     0.007 C 
HETATM   15  C   UNK N   1      35.312  11.346  19.926  0.00  0.00     0.008 C 
HETATM   16  C   UNK N   1      34.902  10.114  20.754  0.00  0.00     0.033 C 
HETATM   17  C   UNK N   1      34.598   8.983  19.756  0.00  0.00     0.126 C 
HETATM   18  C   UNK N   1      37.549  11.349  14.836  0.00  0.00     0.020 C 
HETATM   19  C   UNK N   1      36.812   9.152  18.661  0.00  0.00     0.018 C 
HETATM   20  O   UNK N   1      33.213   8.938  19.554  0.00  0.00    -0.395 OA
HETATM   21  H   UNK N   1      32.249   9.007  19.469  0.00  0.00     0.210 HD
ENDROOT
BRANCH   2  22
HETATM   22  O   UNK N   1      36.980  14.072  11.454  0.00  0.00    -0.395 OA
HETATM   23  H   UNK N   1      37.738  13.934  10.865  0.00  0.00     0.210 HD
ENDBRANCH   2  22
TORSDOF 1
ENDMDL
