MODEL 1
REMARK VINA RESULT:      -7.2      0.000      0.000
REMARK  3 active torsions:
REMARK  status: ('A' for Active; 'I' for Inactive)
REMARK    1  A    between atoms: C_1  and  O_17 
REMARK    2  A    between atoms: C_4  and  N_19 
REMARK    3  A    between atoms: C_11  and  O_18 
ROOT
HETATM    1  C   UNK N   1      21.295  17.532   4.218  0.00  0.00     0.081 A 
HETATM    2  C   UNK N   1      22.503  18.244   4.008  0.00  0.00     0.065 A 
HETATM    3  C   UNK N   1      22.534  19.344   3.080  0.00  0.00     0.065 A 
HETATM    4  C   UNK N   1      21.299  19.692   2.377  0.00  0.00     0.118 A 
HETATM    5  C   UNK N   1      20.152  18.930   2.650  0.00  0.00     0.040 A 
HETATM    6  C   UNK N   1      20.146  17.882   3.543  0.00  0.00     0.040 A 
HETATM    7  C   UNK N   1      23.865  20.051   2.915  0.00  0.00     0.197 A 
HETATM    8  C   UNK N   1      25.064  19.629   3.666  0.00  0.00     0.032 A 
HETATM    9  C   UNK N   1      25.022  18.557   4.566  0.00  0.00     0.062 A 
HETATM   10  C   UNK N   1      23.739  17.835   4.762  0.00  0.00     0.199 A 
HETATM   11  C   UNK N   1      26.207  18.196   5.262  0.00  0.00     0.080 A 
HETATM   12  C   UNK N   1      27.393  18.905   5.045  0.00  0.00     0.037 A 
HETATM   13  C   UNK N   1      27.423  19.968   4.149  0.00  0.00     0.004 A 
HETATM   14  C   UNK N   1      26.267  20.326   3.465  0.00  0.00     0.017 A 
HETATM   15  O   UNK N   1      23.695  16.900   5.546  0.00  0.00    -0.286 OA
HETATM   16  O   UNK N   1      24.001  20.990   2.161  0.00  0.00    -0.286 OA
ENDROOT
BRANCH   4  17
HETATM   17  N   UNK N   1      21.107  20.753   1.408  0.00  0.00    -0.115 N 
HETATM   18  O   UNK N   1      21.210  20.574   0.116  0.00  0.00    -0.532 OA
HETATM   19  O   UNK N   1      20.840  21.850   1.796  0.00  0.00    -0.532 OA
ENDBRANCH   4  17
BRANCH   1  20
HETATM   20  O   UNK N   1      21.228  16.499   5.077  0.00  0.00    -0.360 OA
HETATM   21  H   UNK N   1      22.010  16.173   5.479  0.00  0.00     0.217 HD
ENDBRANCH   1  20
BRANCH  11  22
HETATM   22  O   UNK N   1      26.221  17.175   6.136  0.00  0.00    -0.360 OA
HETATM   23  H   UNK N   1      26.905  16.536   6.099  0.00  0.00     0.217 HD
ENDBRANCH  11  22
TORSDOF 3
ENDMDL
MODEL 2
REMARK VINA RESULT:      -6.8      6.028      8.075
REMARK  3 active torsions:
REMARK  status: ('A' for Active; 'I' for Inactive)
REMARK    1  A    between atoms: C_1  and  O_17 
REMARK    2  A    between atoms: C_4  and  N_19 
REMARK    3  A    between atoms: C_11  and  O_18 
ROOT
HETATM    1  C   UNK N   1      24.169  14.718   6.650  0.00  0.00     0.081 A 
HETATM    2  C   UNK N   1      23.391  14.188   7.710  0.00  0.00     0.065 A 
HETATM    3  C   UNK N   1      21.957  14.313   7.679  0.00  0.00     0.065 A 
HETATM    4  C   UNK N   1      21.347  14.994   6.537  0.00  0.00     0.118 A 
HETATM    5  C   UNK N   1      22.198  15.487   5.535  0.00  0.00     0.040 A 
HETATM    6  C   UNK N   1      23.567  15.354   5.586  0.00  0.00     0.040 A 
HETATM    7  C   UNK N   1      21.201  13.719   8.851  0.00  0.00     0.197 A 
HETATM    8  C   UNK N   1      21.901  13.049   9.964  0.00  0.00     0.032 A 
HETATM    9  C   UNK N   1      23.297  12.933   9.984  0.00  0.00     0.062 A 
HETATM   10  C   UNK N   1      24.080  13.499   8.856  0.00  0.00     0.199 A 
HETATM   11  C   UNK N   1      23.917  12.277  11.082  0.00  0.00     0.080 A 
HETATM   12  C   UNK N   1      23.139  11.759  12.122  0.00  0.00     0.037 A 
HETATM   13  C   UNK N   1      21.754  11.880  12.092  0.00  0.00     0.004 A 
HETATM   14  C   UNK N   1      21.141  12.520  11.021  0.00  0.00     0.017 A 
HETATM   15  O   UNK N   1      25.298  13.400   8.867  0.00  0.00    -0.286 OA
HETATM   16  O   UNK N   1      19.992  13.767   8.922  0.00  0.00    -0.286 OA
ENDROOT
BRANCH   4  17
HETATM   17  N   UNK N   1      19.936  15.231   6.305  0.00  0.00    -0.115 N 
HETATM   18  O   UNK N   1      19.296  16.276   6.763  0.00  0.00    -0.532 OA
HETATM   19  O   UNK N   1      19.314  14.438   5.663  0.00  0.00    -0.532 OA
ENDBRANCH   4  17
BRANCH   1  20
HETATM   20  O   UNK N   1      25.511  14.619   6.646  0.00  0.00    -0.360 OA
HETATM   21  H   UNK N   1      25.918  13.775   6.640  0.00  0.00     0.217 HD
ENDBRANCH   1  20
BRANCH  11  22
HETATM   22  O   UNK N   1      25.252  12.139  11.150  0.00  0.00    -0.360 OA
HETATM   23  H   UNK N   1      25.646  11.755  11.909  0.00  0.00     0.217 HD
ENDBRANCH  11  22
TORSDOF 3
ENDMDL
MODEL 3
REMARK VINA RESULT:      -6.7      5.767      8.524
REMARK  3 active torsions:
REMARK  status: ('A' for Active; 'I' for Inactive)
REMARK    1  A    between atoms: C_1  and  O_17 
REMARK    2  A    between atoms: C_4  and  N_19 
REMARK    3  A    between atoms: C_11  and  O_18 
ROOT
HETATM    1  C   UNK N   1      30.431  17.114   8.796  0.00  0.00     0.081 A 
HETATM    2  C   UNK N   1      29.794  17.626   7.638  0.00  0.00     0.065 A 
HETATM    3  C   UNK N   1      30.217  17.188   6.333  0.00  0.00     0.065 A 
HETATM    4  C   UNK N   1      31.307  16.216   6.250  0.00  0.00     0.118 A 
HETATM    5  C   UNK N   1      31.878  15.765   7.451  0.00  0.00     0.040 A 
HETATM    6  C   UNK N   1      31.455  16.198   8.687  0.00  0.00     0.040 A 
HETATM    7  C   UNK N   1      29.482  17.784   5.149  0.00  0.00     0.197 A 
HETATM    8  C   UNK N   1      28.392  18.763   5.328  0.00  0.00     0.032 A 
HETATM    9  C   UNK N   1      27.989  19.182   6.602  0.00  0.00     0.062 A 
HETATM   10  C   UNK N   1      28.679  18.624   7.792  0.00  0.00     0.199 A 
HETATM   11  C   UNK N   1      26.933  20.127   6.713  0.00  0.00     0.080 A 
HETATM   12  C   UNK N   1      26.312  20.626   5.563  0.00  0.00     0.037 A 
HETATM   13  C   UNK N   1      26.721  20.203   4.304  0.00  0.00     0.004 A 
HETATM   14  C   UNK N   1      27.753  19.279   4.188  0.00  0.00     0.017 A 
HETATM   15  O   UNK N   1      28.331  18.985   8.907  0.00  0.00    -0.286 OA
HETATM   16  O   UNK N   1      29.758  17.483   4.008  0.00  0.00    -0.286 OA
ENDROOT
BRANCH   4  17
HETATM   17  N   UNK N   1      31.887  15.645   5.051  0.00  0.00    -0.115 N 
HETATM   18  O   UNK N   1      32.872  16.201   4.392  0.00  0.00    -0.532 OA
HETATM   19  O   UNK N   1      31.453  14.614   4.632  0.00  0.00    -0.532 OA
ENDBRANCH   4  17
BRANCH   1  20
HETATM   20  O   UNK N   1      30.063  17.500  10.031  0.00  0.00    -0.360 OA
HETATM   21  H   UNK N   1      29.413  17.013  10.499  0.00  0.00     0.217 HD
ENDBRANCH   1  20
BRANCH  11  22
HETATM   22  O   UNK N   1      26.508  20.563   7.911  0.00  0.00    -0.360 OA
HETATM   23  H   UNK N   1      26.725  20.085   8.688  0.00  0.00     0.217 HD
ENDBRANCH  11  22
TORSDOF 3
ENDMDL
MODEL 4
REMARK VINA RESULT:      -6.7      7.033      9.924
REMARK  3 active torsions:
REMARK  status: ('A' for Active; 'I' for Inactive)
REMARK    1  A    between atoms: C_1  and  O_17 
REMARK    2  A    between atoms: C_4  and  N_19 
REMARK    3  A    between atoms: C_11  and  O_18 
ROOT
HETATM    1  C   UNK N   1      31.064  16.655   3.480  0.00  0.00     0.081 A 
HETATM    2  C   UNK N   1      30.910  16.879   4.872  0.00  0.00     0.065 A 
HETATM    3  C   UNK N   1      31.963  16.505   5.779  0.00  0.00     0.065 A 
HETATM    4  C   UNK N   1      33.173  15.898   5.222  0.00  0.00     0.118 A 
HETATM    5  C   UNK N   1      33.235  15.716   3.831  0.00  0.00     0.040 A 
HETATM    6  C   UNK N   1      32.215  16.082   2.983  0.00  0.00     0.040 A 
HETATM    7  C   UNK N   1      31.717  16.778   7.249  0.00  0.00     0.197 A 
HETATM    8  C   UNK N   1      30.463  17.395   7.723  0.00  0.00     0.032 A 
HETATM    9  C   UNK N   1      29.444  17.754   6.831  0.00  0.00     0.062 A 
HETATM   10  C   UNK N   1      29.641  17.506   5.380  0.00  0.00     0.199 A 
HETATM   11  C   UNK N   1      28.258  18.344   7.344  0.00  0.00     0.080 A 
HETATM   12  C   UNK N   1      28.117  18.559   8.718  0.00  0.00     0.037 A 
HETATM   13  C   UNK N   1      29.134  18.198   9.595  0.00  0.00     0.004 A 
HETATM   14  C   UNK N   1      30.298  17.620   9.100  0.00  0.00     0.017 A 
HETATM   15  O   UNK N   1      28.757  17.818   4.597  0.00  0.00    -0.286 OA
HETATM   16  O   UNK N   1      32.540  16.504   8.097  0.00  0.00    -0.286 OA
ENDROOT
BRANCH   4  17
HETATM   17  N   UNK N   1      34.345  15.449   5.946  0.00  0.00    -0.115 N 
HETATM   18  O   UNK N   1      34.456  14.253   6.466  0.00  0.00    -0.532 OA
HETATM   19  O   UNK N   1      35.264  16.199   6.083  0.00  0.00    -0.532 OA
ENDBRANCH   4  17
BRANCH   1  20
HETATM   20  O   UNK N   1      30.101  16.992   2.603  0.00  0.00    -0.360 OA
HETATM   21  H   UNK N   1      29.462  16.357   2.343  0.00  0.00     0.217 HD
ENDBRANCH   1  20
BRANCH  11  22
HETATM   22  O   UNK N   1      27.250  18.708   6.532  0.00  0.00    -0.360 OA
HETATM   23  H   UNK N   1      27.342  18.621   5.603  0.00  0.00     0.217 HD
ENDBRANCH  11  22
TORSDOF 3
ENDMDL
MODEL 5
REMARK VINA RESULT:      -6.6      1.839      3.684
REMARK  3 active torsions:
REMARK  status: ('A' for Active; 'I' for Inactive)
REMARK    1  A    between atoms: C_1  and  O_17 
REMARK    2  A    between atoms: C_4  and  N_19 
REMARK    3  A    between atoms: C_11  and  O_18 
ROOT
HETATM    1  C   UNK N   1      21.166  20.385   2.833  0.00  0.00     0.081 A 
HETATM    2  C   UNK N   1      22.187  19.471   3.200  0.00  0.00     0.065 A 
HETATM    3  C   UNK N   1      21.854  18.099   3.480  0.00  0.00     0.065 A 
HETATM    4  C   UNK N   1      20.453  17.691   3.373  0.00  0.00     0.118 A 
HETATM    5  C   UNK N   1      19.513  18.666   3.003  0.00  0.00     0.040 A 
HETATM    6  C   UNK N   1      19.855  19.973   2.740  0.00  0.00     0.040 A 
HETATM    7  C   UNK N   1      23.004  17.190   3.865  0.00  0.00     0.197 A 
HETATM    8  C   UNK N   1      24.391  17.689   3.949  0.00  0.00     0.032 A 
HETATM    9  C   UNK N   1      24.703  19.027   3.675  0.00  0.00     0.062 A 
HETATM   10  C   UNK N   1      23.608  19.954   3.293  0.00  0.00     0.199 A 
HETATM   11  C   UNK N   1      26.055  19.451   3.773  0.00  0.00     0.080 A 
HETATM   12  C   UNK N   1      27.053  18.541   4.137  0.00  0.00     0.037 A 
HETATM   13  C   UNK N   1      26.732  17.216   4.406  0.00  0.00     0.004 A 
HETATM   14  C   UNK N   1      25.411  16.794   4.313  0.00  0.00     0.017 A 
HETATM   15  O   UNK N   1      23.874  21.122   3.051  0.00  0.00    -0.286 OA
HETATM   16  O   UNK N   1      22.835  16.017   4.118  0.00  0.00    -0.286 OA
ENDROOT
BRANCH   4  17
HETATM   17  N   UNK N   1      19.900  16.372   3.609  0.00  0.00    -0.115 N 
HETATM   18  O   UNK N   1      19.874  15.431   2.700  0.00  0.00    -0.532 OA
HETATM   19  O   UNK N   1      19.443  16.119   4.682  0.00  0.00    -0.532 OA
ENDBRANCH   4  17
BRANCH   1  20
HETATM   20  O   UNK N   1      21.440  21.674   2.565  0.00  0.00    -0.360 OA
HETATM   21  H   UNK N   1      21.947  22.180   3.169  0.00  0.00     0.217 HD
ENDBRANCH   1  20
BRANCH  11  22
HETATM   22  O   UNK N   1      26.409  20.723   3.520  0.00  0.00    -0.360 OA
HETATM   23  H   UNK N   1      25.908  21.429   3.880  0.00  0.00     0.217 HD
ENDBRANCH  11  22
TORSDOF 3
ENDMDL
MODEL 6
REMARK VINA RESULT:      -6.5     10.156     11.215
REMARK  3 active torsions:
REMARK  status: ('A' for Active; 'I' for Inactive)
REMARK    1  A    between atoms: C_1  and  O_17 
REMARK    2  A    between atoms: C_4  and  N_19 
REMARK    3  A    between atoms: C_11  and  O_18 
ROOT
HETATM    1  C   UNK N   1      26.570  24.844  -4.335  0.00  0.00     0.081 A 
HETATM    2  C   UNK N   1      27.657  23.972  -4.596  0.00  0.00     0.065 A 
HETATM    3  C   UNK N   1      27.818  23.400  -5.907  0.00  0.00     0.065 A 
HETATM    4  C   UNK N   1      26.838  23.744  -6.938  0.00  0.00     0.118 A 
HETATM    5  C   UNK N   1      25.795  24.616  -6.586  0.00  0.00     0.040 A 
HETATM    6  C   UNK N   1      25.662  25.151  -5.325  0.00  0.00     0.040 A 
HETATM    7  C   UNK N   1      29.006  22.479  -6.101  0.00  0.00     0.197 A 
HETATM    8  C   UNK N   1      29.946  22.185  -5.001  0.00  0.00     0.032 A 
HETATM    9  C   UNK N   1      29.779  22.747  -3.729  0.00  0.00     0.062 A 
HETATM   10  C   UNK N   1      28.629  23.657  -3.492  0.00  0.00     0.199 A 
HETATM   11  C   UNK N   1      30.715  22.429  -2.708  0.00  0.00     0.080 A 
HETATM   12  C   UNK N   1      31.782  21.567  -2.978  0.00  0.00     0.037 A 
HETATM   13  C   UNK N   1      31.938  21.014  -4.244  0.00  0.00     0.004 A 
HETATM   14  C   UNK N   1      31.026  21.322  -5.247  0.00  0.00     0.017 A 
HETATM   15  O   UNK N   1      28.479  24.151  -2.385  0.00  0.00    -0.286 OA
HETATM   16  O   UNK N   1      29.235  21.946  -7.166  0.00  0.00    -0.286 OA
ENDROOT
BRANCH   4  17
HETATM   17  N   UNK N   1      26.809  23.286  -8.312  0.00  0.00    -0.115 N 
HETATM   18  O   UNK N   1      27.457  23.879  -9.282  0.00  0.00    -0.532 OA
HETATM   19  O   UNK N   1      26.165  22.318  -8.587  0.00  0.00    -0.532 OA
ENDBRANCH   4  17
BRANCH   1  20
HETATM   20  O   UNK N   1      26.388  25.396  -3.122  0.00  0.00    -0.360 OA
HETATM   21  H   UNK N   1      26.335  24.850  -2.362  0.00  0.00     0.217 HD
ENDBRANCH   1  20
BRANCH  11  22
HETATM   22  O   UNK N   1      30.601  22.941  -1.471  0.00  0.00    -0.360 OA
HETATM   23  H   UNK N   1      30.256  23.804  -1.350  0.00  0.00     0.217 HD
ENDBRANCH  11  22
TORSDOF 3
ENDMDL
MODEL 7
REMARK VINA RESULT:      -6.4     11.811     14.181
REMARK  3 active torsions:
REMARK  status: ('A' for Active; 'I' for Inactive)
REMARK    1  A    between atoms: C_1  and  O_17 
REMARK    2  A    between atoms: C_4  and  N_19 
REMARK    3  A    between atoms: C_11  and  O_18 
ROOT
HETATM    1  C   UNK N   1      34.838  14.145   7.057  0.00  0.00     0.081 A 
HETATM    2  C   UNK N   1      35.102  14.447   8.417  0.00  0.00     0.065 A 
HETATM    3  C   UNK N   1      34.952  15.797   8.895  0.00  0.00     0.065 A 
HETATM    4  C   UNK N   1      34.524  16.824   7.944  0.00  0.00     0.118 A 
HETATM    5  C   UNK N   1      34.285  16.430   6.617  0.00  0.00     0.040 A 
HETATM    6  C   UNK N   1      34.436  15.132   6.184  0.00  0.00     0.040 A 
HETATM    7  C   UNK N   1      35.255  16.033  10.361  0.00  0.00     0.197 A 
HETATM    8  C   UNK N   1      35.683  14.934  11.249  0.00  0.00     0.032 A 
HETATM    9  C   UNK N   1      35.827  13.625  10.774  0.00  0.00     0.062 A 
HETATM   10  C   UNK N   1      35.540  13.346   9.344  0.00  0.00     0.199 A 
HETATM   11  C   UNK N   1      36.242  12.607  11.675  0.00  0.00     0.080 A 
HETATM   12  C   UNK N   1      36.502  12.917  13.013  0.00  0.00     0.037 A 
HETATM   13  C   UNK N   1      36.356  14.221  13.475  0.00  0.00     0.004 A 
HETATM   14  C   UNK N   1      35.950  15.221  12.599  0.00  0.00     0.017 A 
HETATM   15  O   UNK N   1      35.662  12.205   8.923  0.00  0.00    -0.286 OA
HETATM   16  O   UNK N   1      35.158  17.130  10.865  0.00  0.00    -0.286 OA
ENDROOT
BRANCH   4  17
HETATM   17  N   UNK N   1      34.312  18.232   8.207  0.00  0.00    -0.115 N 
HETATM   18  O   UNK N   1      35.284  19.073   8.456  0.00  0.00    -0.532 OA
HETATM   19  O   UNK N   1      33.197  18.662   8.198  0.00  0.00    -0.532 OA
ENDBRANCH   4  17
BRANCH   1  20
HETATM   20  O   UNK N   1      34.968  12.896   6.576  0.00  0.00    -0.360 OA
HETATM   21  H   UNK N   1      35.628  12.328   6.922  0.00  0.00     0.217 HD
ENDBRANCH   1  20
BRANCH  11  22
HETATM   22  O   UNK N   1      36.395  11.335  11.270  0.00  0.00    -0.360 OA
HETATM   23  H   UNK N   1      35.644  10.813  11.069  0.00  0.00     0.217 HD
ENDBRANCH  11  22
TORSDOF 3
ENDMDL
MODEL 8
REMARK VINA RESULT:      -6.4      5.257      7.265
REMARK  3 active torsions:
REMARK  status: ('A' for Active; 'I' for Inactive)
REMARK    1  A    between atoms: C_1  and  O_17 
REMARK    2  A    between atoms: C_4  and  N_19 
REMARK    3  A    between atoms: C_11  and  O_18 
ROOT
HETATM    1  C   UNK N   1      20.167  16.000   6.717  0.00  0.00     0.081 A 
HETATM    2  C   UNK N   1      21.120  15.179   7.372  0.00  0.00     0.065 A 
HETATM    3  C   UNK N   1      22.470  15.114   6.878  0.00  0.00     0.065 A 
HETATM    4  C   UNK N   1      22.815  15.909   5.698  0.00  0.00     0.118 A 
HETATM    5  C   UNK N   1      21.804  16.691   5.117  0.00  0.00     0.040 A 
HETATM    6  C   UNK N   1      20.520  16.738   5.608  0.00  0.00     0.040 A 
HETATM    7  C   UNK N   1      23.425  14.213   7.636  0.00  0.00     0.197 A 
HETATM    8  C   UNK N   1      22.989  13.444   8.818  0.00  0.00     0.032 A 
HETATM    9  C   UNK N   1      21.672  13.515   9.290  0.00  0.00     0.062 A 
HETATM   10  C   UNK N   1      20.701  14.386   8.579  0.00  0.00     0.199 A 
HETATM   11  C   UNK N   1      21.308  12.753  10.433  0.00  0.00     0.080 A 
HETATM   12  C   UNK N   1      22.257  11.946  11.070  0.00  0.00     0.037 A 
HETATM   13  C   UNK N   1      23.561  11.883  10.593  0.00  0.00     0.004 A 
HETATM   14  C   UNK N   1      23.923  12.627   9.476  0.00  0.00     0.017 A 
HETATM   15  O   UNK N   1      19.551  14.453   8.986  0.00  0.00    -0.286 OA
HETATM   16  O   UNK N   1      24.584  14.087   7.306  0.00  0.00    -0.286 OA
ENDROOT
BRANCH   4  17
HETATM   17  N   UNK N   1      24.102  15.991   5.038  0.00  0.00    -0.115 N 
HETATM   18  O   UNK N   1      25.032  16.847   5.378  0.00  0.00    -0.532 OA
HETATM   19  O   UNK N   1      24.340  15.244   4.137  0.00  0.00    -0.532 OA
ENDBRANCH   4  17
BRANCH   1  20
HETATM   20  O   UNK N   1      18.896  16.085   7.150  0.00  0.00    -0.360 OA
HETATM   21  H   UNK N   1      18.721  16.225   8.060  0.00  0.00     0.217 HD
ENDBRANCH   1  20
BRANCH  11  22
HETATM   22  O   UNK N   1      20.059  12.785  10.926  0.00  0.00    -0.360 OA
HETATM   23  H   UNK N   1      19.914  13.020  11.822  0.00  0.00     0.217 HD
ENDBRANCH  11  22
TORSDOF 3
ENDMDL
MODEL 9
REMARK VINA RESULT:      -6.3     10.545     13.281
REMARK  3 active torsions:
REMARK  status: ('A' for Active; 'I' for Inactive)
REMARK    1  A    between atoms: C_1  and  O_17 
REMARK    2  A    between atoms: C_4  and  N_19 
REMARK    3  A    between atoms: C_11  and  O_18 
ROOT
HETATM    1  C   UNK N   1      34.443  17.662   8.116  0.00  0.00     0.081 A 
HETATM    2  C   UNK N   1      34.462  16.370   8.700  0.00  0.00     0.065 A 
HETATM    3  C   UNK N   1      33.793  15.277   8.045  0.00  0.00     0.065 A 
HETATM    4  C   UNK N   1      33.106  15.543   6.781  0.00  0.00     0.118 A 
HETATM    5  C   UNK N   1      33.142  16.854   6.279  0.00  0.00     0.040 A 
HETATM    6  C   UNK N   1      33.789  17.884   6.924  0.00  0.00     0.040 A 
HETATM    7  C   UNK N   1      33.862  13.930   8.737  0.00  0.00     0.197 A 
HETATM    8  C   UNK N   1      34.577  13.753  10.016  0.00  0.00     0.032 A 
HETATM    9  C   UNK N   1      35.225  14.824  10.645  0.00  0.00     0.062 A 
HETATM   10  C   UNK N   1      35.185  16.162  10.003  0.00  0.00     0.199 A 
HETATM   11  C   UNK N   1      35.898  14.594  11.875  0.00  0.00     0.080 A 
HETATM   12  C   UNK N   1      35.909  13.316  12.442  0.00  0.00     0.037 A 
HETATM   13  C   UNK N   1      35.263  12.260  11.810  0.00  0.00     0.004 A 
HETATM   14  C   UNK N   1      34.603  12.477  10.606  0.00  0.00     0.017 A 
HETATM   15  O   UNK N   1      35.748  17.101  10.546  0.00  0.00    -0.286 OA
HETATM   16  O   UNK N   1      33.335  12.943   8.270  0.00  0.00    -0.286 OA
ENDROOT
BRANCH   4  17
HETATM   17  N   UNK N   1      32.376  14.599   5.960  0.00  0.00    -0.115 N 
HETATM   18  O   UNK N   1      31.143  14.234   6.206  0.00  0.00    -0.532 OA
HETATM   19  O   UNK N   1      32.914  14.121   5.007  0.00  0.00    -0.532 OA
ENDBRANCH   4  17
BRANCH   1  20
HETATM   20  O   UNK N   1      35.057  18.707   8.700  0.00  0.00    -0.360 OA
HETATM   21  H   UNK N   1      35.824  18.568   9.221  0.00  0.00     0.217 HD
ENDBRANCH   1  20
BRANCH  11  22
HETATM   22  O   UNK N   1      36.535  15.587  12.520  0.00  0.00    -0.360 OA
HETATM   23  H   UNK N   1      37.149  16.125  12.061  0.00  0.00     0.217 HD
ENDBRANCH  11  22
TORSDOF 3
ENDMDL
