REMARK  3 active torsions:
REMARK  status: ('A' for Active; 'I' for Inactive)
REMARK    1  A    between atoms: C_1  and  O_17 
REMARK    2  A    between atoms: C_4  and  N_19 
REMARK    3  A    between atoms: C_11  and  O_18 
ROOT
HETATM    1  C   UNK N   1       2.579  -1.510   0.001  0.00  0.00     0.081 A 
HETATM    2  C   UNK N   1       1.321  -0.856   0.000  0.00  0.00     0.065 A 
HETATM    3  C   UNK N   1       1.260   0.582  -0.001  0.00  0.00     0.065 A 
HETATM    4  C   UNK N   1       2.519   1.328  -0.000  0.00  0.00     0.118 A 
HETATM    5  C   UNK N   1       3.716   0.594   0.001  0.00  0.00     0.040 A 
HETATM    6  C   UNK N   1       3.749  -0.782   0.001  0.00  0.00     0.040 A 
HETATM    7  C   UNK N   1      -0.124   1.200  -0.002  0.00  0.00     0.197 A 
HETATM    8  C   UNK N   1      -1.343   0.368  -0.001  0.00  0.00     0.032 A 
HETATM    9  C   UNK N   1      -1.272  -1.031   0.000  0.00  0.00     0.062 A 
HETATM   10  C   UNK N   1       0.063  -1.681   0.000  0.00  0.00     0.199 A 
HETATM   11  C   UNK N   1      -2.479  -1.781   0.001  0.00  0.00     0.080 A 
HETATM   12  C   UNK N   1      -3.714  -1.125   0.001  0.00  0.00     0.037 A 
HETATM   13  C   UNK N   1      -3.773   0.264   0.000  0.00  0.00     0.004 A 
HETATM   14  C   UNK N   1      -2.596   1.004  -0.001  0.00  0.00     0.017 A 
HETATM   15  O   UNK N   1       0.132  -2.901   0.000  0.00  0.00    -0.286 OA
HETATM   16  O   UNK N   1      -0.288   2.401  -0.005  0.00  0.00    -0.286 OA
ENDROOT
BRANCH   4  17
HETATM   17  N   UNK N   1       2.689   2.767  -0.000  0.00  0.00    -0.115 N 
HETATM   18  O   UNK N   1       1.688   3.610   0.002  0.00  0.00    -0.532 OA
HETATM   19  O   UNK N   1       3.794   3.220  -0.001  0.00  0.00    -0.532 OA
ENDBRANCH   4  17
BRANCH   1  20
HETATM   20  O   UNK N   1       2.674  -2.852   0.002  0.00  0.00    -0.360 OA
HETATM   21  H   UNK N   1       1.897  -3.376   0.002  0.00  0.00     0.217 HD
ENDBRANCH   1  20
BRANCH  11  22
HETATM   22  O   UNK N   1      -2.467  -3.125   0.002  0.00  0.00    -0.360 OA
HETATM   23  H   UNK N   1      -3.274  -3.601   0.002  0.00  0.00     0.217 HD
ENDBRANCH  11  22
TORSDOF 3
