MODEL 1
REMARK VINA RESULT:      -7.0      0.000      0.000
REMARK  6 active torsions:
REMARK  status: ('A' for Active; 'I' for Inactive)
REMARK    1  A    between atoms: C_3  and  O_4 
REMARK    2  A    between atoms: C_10  and  O_11 
REMARK    3  A    between atoms: C_15  and  C_17 
REMARK    4  A    between atoms: C_17  and  C_18 
REMARK    5  A    between atoms: C_18  and  C_19 
REMARK    6  A    between atoms: C_19  and  O_21 
ROOT
HETATM    1  C   UNK N   1      30.979  18.266   8.934  0.00  0.00     0.013 A 
HETATM    2  C   UNK N   1      29.712  18.493   9.477  0.00  0.00     0.037 A 
HETATM    3  C   UNK N   1      28.575  18.006   8.829  0.00  0.00     0.068 A 
HETATM    4  C   UNK N   1      28.703  17.291   7.634  0.00  0.00     0.074 A 
HETATM    5  C   UNK N   1      29.968  17.059   7.082  0.00  0.00     0.085 A 
HETATM    6  O   UNK N   1      30.066  16.363   5.922  0.00  0.00    -0.310 OA
HETATM    7  C   UNK N   1      31.241  16.084   5.296  0.00  0.00     0.085 A 
HETATM    8  C   UNK N   1      31.221  15.359   4.098  0.00  0.00     0.074 A 
HETATM    9  C   UNK N   1      32.413  15.059   3.434  0.00  0.00     0.068 A 
HETATM   10  C   UNK N   1      33.630  15.483   3.962  0.00  0.00     0.037 A 
HETATM   11  C   UNK N   1      33.656  16.205   5.152  0.00  0.00     0.013 A 
HETATM   12  C   UNK N   1      32.471  16.514   5.835  0.00  0.00    -0.015 A 
HETATM   13  C   UNK N   1      32.470  17.294   7.135  0.00  0.00     0.058 A 
HETATM   14  C   UNK N   1      31.116  17.550   7.738  0.00  0.00    -0.015 A 
ENDROOT
BRANCH  13  15
HETATM   15  C   UNK N   1      33.716  17.860   7.854  0.00  0.00     0.025 C 
BRANCH  15  16
HETATM   16  C   UNK N   1      34.667  16.797   8.388  0.00  0.00     0.111 C 
BRANCH  16  17
HETATM   17  C   UNK N   1      34.861  16.827   9.867  0.00  0.00     0.139 C 
HETATM   18  O   UNK N   1      35.653  17.621  10.344  0.00  0.00    -0.650 OA
BRANCH  17  19
HETATM   19  O   UNK N   1      34.181  15.992  10.675  0.00  0.00    -0.776 OA
HETATM   20  H   UNK N   1      33.421  15.547  10.357  0.00  0.00     0.167 HD
ENDBRANCH  17  19
ENDBRANCH  16  17
ENDBRANCH  15  16
ENDBRANCH  13  15
BRANCH   9  21
HETATM   21  O   UNK N   1      32.390  14.363   2.286  0.00  0.00    -0.361 OA
HETATM   22  H   UNK N   1      31.894  13.570   2.229  0.00  0.00     0.217 HD
ENDBRANCH   9  21
BRANCH   3  23
HETATM   23  O   UNK N   1      27.357  18.224   9.352  0.00  0.00    -0.361 OA
HETATM   24  H   UNK N   1      26.601  18.215   8.799  0.00  0.00     0.217 HD
ENDBRANCH   3  23
TORSDOF 6
ENDMDL
MODEL 2
REMARK VINA RESULT:      -6.9     13.962     15.983
REMARK  6 active torsions:
REMARK  status: ('A' for Active; 'I' for Inactive)
REMARK    1  A    between atoms: C_3  and  O_4 
REMARK    2  A    between atoms: C_10  and  O_11 
REMARK    3  A    between atoms: C_15  and  C_17 
REMARK    4  A    between atoms: C_17  and  C_18 
REMARK    5  A    between atoms: C_18  and  C_19 
REMARK    6  A    between atoms: C_19  and  O_21 
ROOT
HETATM    1  C   UNK N   1      27.861  22.085  -7.178  0.00  0.00     0.013 A 
HETATM    2  C   UNK N   1      27.146  21.353  -8.130  0.00  0.00     0.037 A 
HETATM    3  C   UNK N   1      25.863  21.759  -8.504  0.00  0.00     0.068 A 
HETATM    4  C   UNK N   1      25.292  22.897  -7.927  0.00  0.00     0.074 A 
HETATM    5  C   UNK N   1      26.000  23.636  -6.973  0.00  0.00     0.085 A 
HETATM    6  O   UNK N   1      25.425  24.736  -6.427  0.00  0.00    -0.310 OA
HETATM    7  C   UNK N   1      26.019  25.524  -5.491  0.00  0.00     0.085 A 
HETATM    8  C   UNK N   1      25.326  26.635  -4.995  0.00  0.00     0.074 A 
HETATM    9  C   UNK N   1      25.913  27.461  -4.032  0.00  0.00     0.068 A 
HETATM   10  C   UNK N   1      27.193  27.179  -3.559  0.00  0.00     0.037 A 
HETATM   11  C   UNK N   1      27.886  26.076  -4.048  0.00  0.00     0.013 A 
HETATM   12  C   UNK N   1      27.315  25.236  -5.016  0.00  0.00    -0.015 A 
HETATM   13  C   UNK N   1      28.049  24.030  -5.570  0.00  0.00     0.058 A 
HETATM   14  C   UNK N   1      27.297  23.227  -6.595  0.00  0.00    -0.015 A 
ENDROOT
BRANCH  13  15
HETATM   15  C   UNK N   1      29.459  23.555  -5.150  0.00  0.00     0.025 C 
BRANCH  15  16
HETATM   16  C   UNK N   1      29.500  22.821  -3.817  0.00  0.00     0.111 C 
BRANCH  16  17
HETATM   17  C   UNK N   1      30.265  23.526  -2.746  0.00  0.00     0.139 C 
HETATM   18  O   UNK N   1      30.782  24.601  -2.998  0.00  0.00    -0.650 OA
BRANCH  17  19
HETATM   19  O   UNK N   1      30.392  22.993  -1.517  0.00  0.00    -0.776 OA
HETATM   20  H   UNK N   1      30.586  22.082  -1.418  0.00  0.00     0.167 HD
ENDBRANCH  17  19
ENDBRANCH  16  17
ENDBRANCH  15  16
ENDBRANCH  13  15
BRANCH   9  21
HETATM   21  O   UNK N   1      25.247  28.526  -3.560  0.00  0.00    -0.361 OA
HETATM   22  H   UNK N   1      25.522  28.937  -2.764  0.00  0.00     0.217 HD
ENDBRANCH   9  21
BRANCH   3  23
HETATM   23  O   UNK N   1      25.176  21.055  -9.419  0.00  0.00    -0.361 OA
HETATM   24  H   UNK N   1      25.195  21.312 -10.320  0.00  0.00     0.217 HD
ENDBRANCH   3  23
TORSDOF 6
ENDMDL
MODEL 3
REMARK VINA RESULT:      -6.9     13.993     15.405
REMARK  6 active torsions:
REMARK  status: ('A' for Active; 'I' for Inactive)
REMARK    1  A    between atoms: C_3  and  O_4 
REMARK    2  A    between atoms: C_10  and  O_11 
REMARK    3  A    between atoms: C_15  and  C_17 
REMARK    4  A    between atoms: C_17  and  C_18 
REMARK    5  A    between atoms: C_18  and  C_19 
REMARK    6  A    between atoms: C_19  and  O_21 
ROOT
HETATM    1  C   UNK N   1      27.870  26.049  -4.107  0.00  0.00     0.013 A 
HETATM    2  C   UNK N   1      27.174  27.156  -3.616  0.00  0.00     0.037 A 
HETATM    3  C   UNK N   1      25.887  27.436  -4.082  0.00  0.00     0.068 A 
HETATM    4  C   UNK N   1      25.295  26.610  -5.040  0.00  0.00     0.074 A 
HETATM    5  C   UNK N   1      25.984  25.498  -5.539  0.00  0.00     0.085 A 
HETATM    6  O   UNK N   1      25.388  24.711  -6.468  0.00  0.00    -0.310 OA
HETATM    7  C   UNK N   1      25.966  23.612  -7.023  0.00  0.00     0.085 A 
HETATM    8  C   UNK N   1      25.255  22.876  -7.978  0.00  0.00     0.074 A 
HETATM    9  C   UNK N   1      25.826  21.742  -8.564  0.00  0.00     0.068 A 
HETATM   10  C   UNK N   1      27.108  21.340  -8.199  0.00  0.00     0.037 A 
HETATM   11  C   UNK N   1      27.820  22.068  -7.250  0.00  0.00     0.013 A 
HETATM   12  C   UNK N   1      27.264  23.208  -6.649  0.00  0.00    -0.015 A 
HETATM   13  C   UNK N   1      28.014  24.017  -5.609  0.00  0.00     0.058 A 
HETATM   14  C   UNK N   1      27.283  25.215  -5.067  0.00  0.00    -0.015 A 
ENDROOT
BRANCH  13  15
HETATM   15  C   UNK N   1      29.446  23.734  -5.099  0.00  0.00     0.025 C 
BRANCH  15  16
HETATM   16  C   UNK N   1      29.503  22.913  -3.818  0.00  0.00     0.111 C 
BRANCH  16  17
HETATM   17  C   UNK N   1      30.271  23.550  -2.708  0.00  0.00     0.139 C 
HETATM   18  O   UNK N   1      30.775  24.645  -2.889  0.00  0.00    -0.650 OA
BRANCH  17  19
HETATM   19  O   UNK N   1      30.415  22.934  -1.520  0.00  0.00    -0.776 OA
HETATM   20  H   UNK N   1      30.046  23.314  -0.747  0.00  0.00     0.167 HD
ENDBRANCH  17  19
ENDBRANCH  16  17
ENDBRANCH  15  16
ENDBRANCH  13  15
BRANCH   9  21
HETATM   21  O   UNK N   1      25.141  21.038  -9.479  0.00  0.00    -0.361 OA
HETATM   22  H   UNK N   1      24.212  20.940  -9.397  0.00  0.00     0.217 HD
ENDBRANCH   9  21
BRANCH   3  23
HETATM   23  O   UNK N   1      25.219  28.501  -3.609  0.00  0.00    -0.361 OA
HETATM   24  H   UNK N   1      25.617  29.349  -3.626  0.00  0.00     0.217 HD
ENDBRANCH   3  23
TORSDOF 6
ENDMDL
MODEL 4
REMARK VINA RESULT:      -6.9     13.661     16.236
REMARK  6 active torsions:
REMARK  status: ('A' for Active; 'I' for Inactive)
REMARK    1  A    between atoms: C_3  and  O_4 
REMARK    2  A    between atoms: C_10  and  O_11 
REMARK    3  A    between atoms: C_15  and  C_17 
REMARK    4  A    between atoms: C_17  and  C_18 
REMARK    5  A    between atoms: C_18  and  C_19 
REMARK    6  A    between atoms: C_19  and  O_21 
ROOT
HETATM    1  C   UNK N   1      29.456  22.072  -5.244  0.00  0.00     0.013 A 
HETATM    2  C   UNK N   1      30.480  21.634  -4.401  0.00  0.00     0.037 A 
HETATM    3  C   UNK N   1      30.782  22.347  -3.238  0.00  0.00     0.068 A 
HETATM    4  C   UNK N   1      30.061  23.501  -2.918  0.00  0.00     0.074 A 
HETATM    5  C   UNK N   1      29.034  23.948  -3.756  0.00  0.00     0.085 A 
HETATM    6  O   UNK N   1      28.349  25.070  -3.424  0.00  0.00    -0.310 OA
HETATM    7  C   UNK N   1      27.338  25.596  -4.167  0.00  0.00     0.085 A 
HETATM    8  C   UNK N   1      26.704  26.764  -3.726  0.00  0.00     0.074 A 
HETATM    9  C   UNK N   1      25.662  27.325  -4.470  0.00  0.00     0.068 A 
HETATM   10  C   UNK N   1      25.251  26.724  -5.657  0.00  0.00     0.037 A 
HETATM   11  C   UNK N   1      25.878  25.563  -6.100  0.00  0.00     0.013 A 
HETATM   12  C   UNK N   1      26.924  24.983  -5.367  0.00  0.00    -0.015 A 
HETATM   13  C   UNK N   1      27.622  23.716  -5.823  0.00  0.00     0.058 A 
HETATM   14  C   UNK N   1      28.728  23.227  -4.930  0.00  0.00    -0.015 A 
ENDROOT
BRANCH  13  15
HETATM   15  C   UNK N   1      27.315  22.928  -7.117  0.00  0.00     0.025 C 
BRANCH  15  16
HETATM   16  C   UNK N   1      25.989  22.180  -7.095  0.00  0.00     0.111 C 
BRANCH  16  17
HETATM   17  C   UNK N   1      25.178  22.321  -8.338  0.00  0.00     0.139 C 
HETATM   18  O   UNK N   1      24.590  23.368  -8.547  0.00  0.00    -0.650 OA
BRANCH  17  19
HETATM   19  O   UNK N   1      25.085  21.313  -9.226  0.00  0.00    -0.776 OA
HETATM   20  H   UNK N   1      25.666  20.582  -9.168  0.00  0.00     0.167 HD
ENDBRANCH  17  19
ENDBRANCH  16  17
ENDBRANCH  15  16
ENDBRANCH  13  15
BRANCH   9  21
HETATM   21  O   UNK N   1      25.055  28.445  -4.044  0.00  0.00    -0.361 OA
HETATM   22  H   UNK N   1      25.298  28.825  -3.222  0.00  0.00     0.217 HD
ENDBRANCH   9  21
BRANCH   3  23
HETATM   23  O   UNK N   1      31.767  21.925  -2.428  0.00  0.00    -0.361 OA
HETATM   24  H   UNK N   1      32.129  22.506  -1.788  0.00  0.00     0.217 HD
ENDBRANCH   3  23
TORSDOF 6
ENDMDL
MODEL 5
REMARK VINA RESULT:      -6.8     13.559     15.775
REMARK  6 active torsions:
REMARK  status: ('A' for Active; 'I' for Inactive)
REMARK    1  A    between atoms: C_3  and  O_4 
REMARK    2  A    between atoms: C_10  and  O_11 
REMARK    3  A    between atoms: C_15  and  C_17 
REMARK    4  A    between atoms: C_17  and  C_18 
REMARK    5  A    between atoms: C_18  and  C_19 
REMARK    6  A    between atoms: C_19  and  O_21 
ROOT
HETATM    1  C   UNK N   1      26.032  25.499  -6.174  0.00  0.00     0.013 A 
HETATM    2  C   UNK N   1      25.385  26.609  -5.625  0.00  0.00     0.037 A 
HETATM    3  C   UNK N   1      25.730  27.060  -4.349  0.00  0.00     0.068 A 
HETATM    4  C   UNK N   1      26.723  26.400  -3.619  0.00  0.00     0.074 A 
HETATM    5  C   UNK N   1      27.377  25.287  -4.159  0.00  0.00     0.085 A 
HETATM    6  O   UNK N   1      28.336  24.664  -3.431  0.00  0.00    -0.310 OA
HETATM    7  C   UNK N   1      29.030  23.574  -3.855  0.00  0.00     0.085 A 
HETATM    8  C   UNK N   1      29.997  23.011  -3.015  0.00  0.00     0.074 A 
HETATM    9  C   UNK N   1      30.725  21.890  -3.426  0.00  0.00     0.068 A 
HETATM   10  C   UNK N   1      30.487  21.326  -4.677  0.00  0.00     0.037 A 
HETATM   11  C   UNK N   1      29.526  21.882  -5.517  0.00  0.00     0.013 A 
HETATM   12  C   UNK N   1      28.787  23.008  -5.124  0.00  0.00    -0.015 A 
HETATM   13  C   UNK N   1      27.738  23.636  -6.020  0.00  0.00     0.058 A 
HETATM   14  C   UNK N   1      27.028  24.832  -5.449  0.00  0.00    -0.015 A 
ENDROOT
BRANCH  13  15
HETATM   15  C   UNK N   1      27.328  23.137  -7.424  0.00  0.00     0.025 C 
BRANCH  15  16
HETATM   16  C   UNK N   1      26.264  22.048  -7.415  0.00  0.00     0.111 C 
BRANCH  16  17
HETATM   17  C   UNK N   1      25.216  22.196  -8.467  0.00  0.00     0.139 C 
HETATM   18  O   UNK N   1      24.507  23.188  -8.461  0.00  0.00    -0.650 OA
BRANCH  17  19
HETATM   19  O   UNK N   1      25.044  21.255  -9.414  0.00  0.00    -0.776 OA
HETATM   20  H   UNK N   1      24.181  20.965  -9.635  0.00  0.00     0.167 HD
ENDBRANCH  17  19
ENDBRANCH  16  17
ENDBRANCH  15  16
ENDBRANCH  13  15
BRANCH   9  21
HETATM   21  O   UNK N   1      31.652  21.354  -2.617  0.00  0.00    -0.361 OA
HETATM   22  H   UNK N   1      31.863  20.444  -2.684  0.00  0.00     0.217 HD
ENDBRANCH   9  21
BRANCH   3  23
HETATM   23  O   UNK N   1      25.108  28.128  -3.823  0.00  0.00    -0.361 OA
HETATM   24  H   UNK N   1      24.800  28.813  -4.382  0.00  0.00     0.217 HD
ENDBRANCH   3  23
TORSDOF 6
ENDMDL
MODEL 6
REMARK VINA RESULT:      -6.7      7.685     11.315
REMARK  6 active torsions:
REMARK  status: ('A' for Active; 'I' for Inactive)
REMARK    1  A    between atoms: C_3  and  O_4 
REMARK    2  A    between atoms: C_10  and  O_11 
REMARK    3  A    between atoms: C_15  and  C_17 
REMARK    4  A    between atoms: C_17  and  C_18 
REMARK    5  A    between atoms: C_18  and  C_19 
REMARK    6  A    between atoms: C_19  and  O_21 
ROOT
HETATM    1  C   UNK N   1      24.236  20.215   3.259  0.00  0.00     0.013 A 
HETATM    2  C   UNK N   1      25.602  20.477   3.119  0.00  0.00     0.037 A 
HETATM    3  C   UNK N   1      26.542  19.602   3.670  0.00  0.00     0.068 A 
HETATM    4  C   UNK N   1      26.117  18.465   4.362  0.00  0.00     0.074 A 
HETATM    5  C   UNK N   1      24.753  18.193   4.507  0.00  0.00     0.085 A 
HETATM    6  O   UNK N   1      24.366  17.083   5.183  0.00  0.00    -0.310 OA
HETATM    7  C   UNK N   1      23.070  16.726   5.388  0.00  0.00     0.085 A 
HETATM    8  C   UNK N   1      22.789  15.557   6.105  0.00  0.00     0.074 A 
HETATM    9  C   UNK N   1      21.466  15.166   6.331  0.00  0.00     0.068 A 
HETATM   10  C   UNK N   1      20.418  15.943   5.842  0.00  0.00     0.037 A 
HETATM   11  C   UNK N   1      20.691  17.107   5.129  0.00  0.00     0.013 A 
HETATM   12  C   UNK N   1      22.012  17.515   4.890  0.00  0.00    -0.015 A 
HETATM   13  C   UNK N   1      22.338  18.774   4.112  0.00  0.00     0.058 A 
HETATM   14  C   UNK N   1      23.803  19.076   3.951  0.00  0.00    -0.015 A 
ENDROOT
BRANCH  13  15
HETATM   15  C   UNK N   1      21.312  19.764   3.516  0.00  0.00     0.025 C 
BRANCH  15  16
HETATM   16  C   UNK N   1      20.809  19.385   2.130  0.00  0.00     0.111 C 
BRANCH  16  17
HETATM   17  C   UNK N   1      20.836  20.497   1.136  0.00  0.00     0.139 C 
HETATM   18  O   UNK N   1      21.083  21.628   1.519  0.00  0.00    -0.650 OA
BRANCH  17  19
HETATM   19  O   UNK N   1      20.591  20.270  -0.168  0.00  0.00    -0.776 OA
HETATM   20  H   UNK N   1      20.046  20.857  -0.652  0.00  0.00     0.167 HD
ENDBRANCH  17  19
ENDBRANCH  16  17
ENDBRANCH  15  16
ENDBRANCH  13  15
BRANCH   9  21
HETATM   21  O   UNK N   1      21.201  14.044   7.018  0.00  0.00    -0.361 OA
HETATM   22  H   UNK N   1      21.642  13.875   7.827  0.00  0.00     0.217 HD
ENDBRANCH   9  21
BRANCH   3  23
HETATM   23  O   UNK N   1      27.854  19.855   3.535  0.00  0.00    -0.361 OA
HETATM   24  H   UNK N   1      28.151  20.455   2.878  0.00  0.00     0.217 HD
ENDBRANCH   3  23
TORSDOF 6
ENDMDL
MODEL 7
REMARK VINA RESULT:      -6.4     13.251     15.337
REMARK  6 active torsions:
REMARK  status: ('A' for Active; 'I' for Inactive)
REMARK    1  A    between atoms: C_3  and  O_4 
REMARK    2  A    between atoms: C_10  and  O_11 
REMARK    3  A    between atoms: C_15  and  C_17 
REMARK    4  A    between atoms: C_17  and  C_18 
REMARK    5  A    between atoms: C_18  and  C_19 
REMARK    6  A    between atoms: C_19  and  O_21 
ROOT
HETATM    1  C   UNK N   1      29.212  23.630  -2.614  0.00  0.00     0.013 A 
HETATM    2  C   UNK N   1      30.340  22.990  -2.095  0.00  0.00     0.037 A 
HETATM    3  C   UNK N   1      31.052  22.080  -2.881  0.00  0.00     0.068 A 
HETATM    4  C   UNK N   1      30.635  21.808  -4.187  0.00  0.00     0.074 A 
HETATM    5  C   UNK N   1      29.506  22.444  -4.716  0.00  0.00     0.085 A 
HETATM    6  O   UNK N   1      29.121  22.163  -5.985  0.00  0.00    -0.310 OA
HETATM    7  C   UNK N   1      28.040  22.717  -6.597  0.00  0.00     0.085 A 
HETATM    8  C   UNK N   1      27.736  22.349  -7.912  0.00  0.00     0.074 A 
HETATM    9  C   UNK N   1      26.631  22.903  -8.564  0.00  0.00     0.068 A 
HETATM   10  C   UNK N   1      25.824  23.826  -7.903  0.00  0.00     0.037 A 
HETATM   11  C   UNK N   1      26.121  24.196  -6.595  0.00  0.00     0.013 A 
HETATM   12  C   UNK N   1      27.227  23.653  -5.924  0.00  0.00    -0.015 A 
HETATM   13  C   UNK N   1      27.576  24.041  -4.501  0.00  0.00     0.058 A 
HETATM   14  C   UNK N   1      28.788  23.363  -3.922  0.00  0.00    -0.015 A 
ENDROOT
BRANCH  13  15
HETATM   15  C   UNK N   1      26.788  25.028  -3.610  0.00  0.00     0.025 C 
BRANCH  15  16
HETATM   16  C   UNK N   1      27.040  26.496  -3.928  0.00  0.00     0.111 C 
BRANCH  16  17
HETATM   17  C   UNK N   1      25.817  27.351  -3.919  0.00  0.00     0.139 C 
HETATM   18  O   UNK N   1      25.481  27.892  -2.880  0.00  0.00    -0.650 OA
BRANCH  17  19
HETATM   19  O   UNK N   1      25.085  27.528  -5.035  0.00  0.00    -0.776 OA
HETATM   20  H   UNK N   1      24.571  28.304  -5.139  0.00  0.00     0.167 HD
ENDBRANCH  17  19
ENDBRANCH  16  17
ENDBRANCH  15  16
ENDBRANCH  13  15
BRANCH   9  21
HETATM   21  O   UNK N   1      26.343  22.548  -9.826  0.00  0.00    -0.361 OA
HETATM   22  H   UNK N   1      25.821  21.787  -9.992  0.00  0.00     0.217 HD
ENDBRANCH   9  21
BRANCH   3  23
HETATM   23  O   UNK N   1      32.136  21.465  -2.381  0.00  0.00    -0.361 OA
HETATM   24  H   UNK N   1      32.388  20.623  -2.704  0.00  0.00     0.217 HD
ENDBRANCH   3  23
TORSDOF 6
ENDMDL
MODEL 8
REMARK VINA RESULT:      -6.4      8.039     11.159
REMARK  6 active torsions:
REMARK  status: ('A' for Active; 'I' for Inactive)
REMARK    1  A    between atoms: C_3  and  O_4 
REMARK    2  A    between atoms: C_10  and  O_11 
REMARK    3  A    between atoms: C_15  and  C_17 
REMARK    4  A    between atoms: C_17  and  C_18 
REMARK    5  A    between atoms: C_18  and  C_19 
REMARK    6  A    between atoms: C_19  and  O_21 
ROOT
HETATM    1  C   UNK N   1      20.801  13.685   9.698  0.00  0.00     0.013 A 
HETATM    2  C   UNK N   1      21.136  12.673  10.601  0.00  0.00     0.037 A 
HETATM    3  C   UNK N   1      22.410  12.100  10.569  0.00  0.00     0.068 A 
HETATM    4  C   UNK N   1      23.350  12.537   9.632  0.00  0.00     0.074 A 
HETATM    5  C   UNK N   1      23.025  13.549   8.722  0.00  0.00     0.085 A 
HETATM    6  O   UNK N   1      23.954  13.956   7.823  0.00  0.00    -0.310 OA
HETATM    7  C   UNK N   1      23.744  14.926   6.893  0.00  0.00     0.085 A 
HETATM    8  C   UNK N   1      24.779  15.261   6.011  0.00  0.00     0.074 A 
HETATM    9  C   UNK N   1      24.590  16.254   5.045  0.00  0.00     0.068 A 
HETATM   10  C   UNK N   1      23.367  16.915   4.955  0.00  0.00     0.037 A 
HETATM   11  C   UNK N   1      22.335  16.585   5.829  0.00  0.00     0.013 A 
HETATM   12  C   UNK N   1      22.505  15.593   6.807  0.00  0.00    -0.015 A 
HETATM   13  C   UNK N   1      21.400  15.217   7.774  0.00  0.00     0.058 A 
HETATM   14  C   UNK N   1      21.739  14.129   8.756  0.00  0.00    -0.015 A 
ENDROOT
BRANCH  13  15
HETATM   15  C   UNK N   1      19.979  15.825   7.809  0.00  0.00     0.025 C 
BRANCH  15  16
HETATM   16  C   UNK N   1      19.858  17.084   8.657  0.00  0.00     0.111 C 
BRANCH  16  17
HETATM   17  C   UNK N   1      18.484  17.354   9.172  0.00  0.00     0.139 C 
HETATM   18  O   UNK N   1      17.608  16.528   8.983  0.00  0.00    -0.650 OA
BRANCH  17  19
HETATM   19  O   UNK N   1      18.201  18.491   9.836  0.00  0.00    -0.776 OA
HETATM   20  H   UNK N   1      18.843  18.878  10.397  0.00  0.00     0.167 HD
ENDBRANCH  17  19
ENDBRANCH  16  17
ENDBRANCH  15  16
ENDBRANCH  13  15
BRANCH   9  21
HETATM   21  O   UNK N   1      25.584  16.574   4.202  0.00  0.00    -0.361 OA
HETATM   22  H   UNK N   1      26.009  17.406   4.273  0.00  0.00     0.217 HD
ENDBRANCH   9  21
BRANCH   3  23
HETATM   23  O   UNK N   1      22.731  11.127  11.438  0.00  0.00    -0.361 OA
HETATM   24  H   UNK N   1      22.063  10.721  11.954  0.00  0.00     0.217 HD
ENDBRANCH   3  23
TORSDOF 6
ENDMDL
MODEL 9
REMARK VINA RESULT:      -6.4      1.955      5.313
REMARK  6 active torsions:
REMARK  status: ('A' for Active; 'I' for Inactive)
REMARK    1  A    between atoms: C_3  and  O_4 
REMARK    2  A    between atoms: C_10  and  O_11 
REMARK    3  A    between atoms: C_15  and  C_17 
REMARK    4  A    between atoms: C_17  and  C_18 
REMARK    5  A    between atoms: C_18  and  C_19 
REMARK    6  A    between atoms: C_19  and  O_21 
ROOT
HETATM    1  C   UNK N   1      33.654  17.333   6.259  0.00  0.00     0.013 A 
HETATM    2  C   UNK N   1      34.383  17.336   7.450  0.00  0.00     0.037 A 
HETATM    3  C   UNK N   1      33.718  17.368   8.678  0.00  0.00     0.068 A 
HETATM    4  C   UNK N   1      32.321  17.397   8.716  0.00  0.00     0.074 A 
HETATM    5  C   UNK N   1      31.581  17.394   7.528  0.00  0.00     0.085 A 
HETATM    6  O   UNK N   1      30.227  17.423   7.591  0.00  0.00    -0.310 OA
HETATM    7  C   UNK N   1      29.411  17.428   6.503  0.00  0.00     0.085 A 
HETATM    8  C   UNK N   1      28.024  17.462   6.689  0.00  0.00     0.074 A 
HETATM    9  C   UNK N   1      27.163  17.468   5.587  0.00  0.00     0.068 A 
HETATM   10  C   UNK N   1      27.684  17.441   4.296  0.00  0.00     0.037 A 
HETATM   11  C   UNK N   1      29.063  17.407   4.105  0.00  0.00     0.013 A 
HETATM   12  C   UNK N   1      29.943  17.399   5.197  0.00  0.00    -0.015 A 
HETATM   13  C   UNK N   1      31.448  17.357   5.017  0.00  0.00     0.058 A 
HETATM   14  C   UNK N   1      32.253  17.361   6.288  0.00  0.00    -0.015 A 
ENDROOT
BRANCH  13  15
HETATM   15  C   UNK N   1      32.201  17.345   3.668  0.00  0.00     0.025 C 
BRANCH  15  16
HETATM   16  C   UNK N   1      32.198  15.995   2.962  0.00  0.00     0.111 C 
BRANCH  16  17
HETATM   17  C   UNK N   1      33.531  15.328   2.897  0.00  0.00     0.139 C 
HETATM   18  O   UNK N   1      33.991  14.822   3.907  0.00  0.00    -0.650 OA
BRANCH  17  19
HETATM   19  O   UNK N   1      34.230  15.281   1.747  0.00  0.00    -0.776 OA
HETATM   20  H   UNK N   1      34.933  14.670   1.650  0.00  0.00     0.167 HD
ENDBRANCH  17  19
ENDBRANCH  16  17
ENDBRANCH  15  16
ENDBRANCH  13  15
BRANCH   9  21
HETATM   21  O   UNK N   1      25.834  17.500   5.771  0.00  0.00    -0.361 OA
HETATM   22  H   UNK N   1      25.369  16.711   5.971  0.00  0.00     0.217 HD
ENDBRANCH   9  21
BRANCH   3  23
HETATM   23  O   UNK N   1      34.420  17.371   9.823  0.00  0.00    -0.361 OA
HETATM   24  H   UNK N   1      35.346  17.230   9.805  0.00  0.00     0.217 HD
ENDBRANCH   3  23
TORSDOF 6
ENDMDL
