MODEL 1
REMARK VINA RESULT:      -7.0      0.000      0.000
REMARK  6 active torsions:
REMARK  status: ('A' for Active; 'I' for Inactive)
REMARK    1  A    between atoms: O_2  and  C_3 
REMARK    2  A    between atoms: N_9  and  C_17 
REMARK    3  A    between atoms: C_11  and  C_12 
REMARK    4  A    between atoms: C_12  and  C_13 
REMARK    5  A    between atoms: C_13  and  O_14 
REMARK    6  A    between atoms: C_17  and  C_18 
ROOT
HETATM    1  C   UNK N   1      31.657  14.341   5.132  0.00  0.00     0.069 A 
HETATM    2  C   UNK N   1      32.271  15.151   6.098  0.00  0.00     0.051 A 
HETATM    3  C   UNK N   1      31.504  16.103   6.768  0.00  0.00     0.002 A 
HETATM    4  C   UNK N   1      30.162  16.266   6.491  0.00  0.00     0.046 A 
HETATM    5  C   UNK N   1      29.524  15.492   5.520  0.00  0.00     0.033 A 
HETATM    6  C   UNK N   1      30.280  14.521   4.840  0.00  0.00     0.039 A 
HETATM    7  N   UNK N   1      29.633  17.238   7.279  0.00  0.00    -0.345 N 
HETATM    8  C   UNK N   1      30.654  17.695   8.043  0.00  0.00     0.016 A 
HETATM    9  C   UNK N   1      31.835  17.019   7.761  0.00  0.00    -0.013 A 
HETATM   10  C   UNK N   1      30.512  18.781   9.061  0.00  0.00     0.069 C 
ENDROOT
BRANCH   7  11
HETATM   11  C   UNK N   1      28.269  17.779   7.412  0.00  0.00     0.167 C 
BRANCH  11  12
HETATM   12  C   UNK N   1      27.834  18.898   6.517  0.00  0.00    -0.040 A 
HETATM   13  C   UNK N   1      27.400  20.094   7.101  0.00  0.00     0.009 A 
HETATM   14  C   UNK N   1      26.864  21.112   6.306  0.00  0.00     0.001 A 
HETATM   15  C   UNK N   1      26.757  20.936   4.924  0.00  0.00     0.000 A 
HETATM   16  C   UNK N   1      27.179  19.739   4.338  0.00  0.00     0.001 A 
HETATM   17  C   UNK N   1      27.696  18.712   5.135  0.00  0.00     0.009 A 
ENDBRANCH  11  12
ENDBRANCH   7  11
BRANCH   9  18
HETATM   18  C   UNK N   1      33.132  17.347   8.472  0.00  0.00     0.151 C 
BRANCH  18  19
HETATM   19  C   UNK N   1      34.273  18.083   7.822  0.00  0.00     0.143 C 
HETATM   20  O   UNK N   1      34.563  17.806   6.670  0.00  0.00    -0.650 OA
BRANCH  19  21
HETATM   21  O   UNK N   1      34.944  19.062   8.446  0.00  0.00    -0.776 OA
HETATM   22  H   UNK N   1      35.009  19.918   8.070  0.00  0.00     0.167 HD
ENDBRANCH  19  21
ENDBRANCH  18  19
ENDBRANCH   9  18
BRANCH   1  23
HETATM   23  O   UNK N   1      32.401  13.398   4.506  0.00  0.00    -0.356 OA
HETATM   24  C   UNK N   1      32.150  12.963   3.225  0.00  0.00     0.210 C 
ENDBRANCH   1  23
TORSDOF 6
ENDMDL
MODEL 2
REMARK VINA RESULT:      -6.9      1.815      4.284
REMARK  6 active torsions:
REMARK  status: ('A' for Active; 'I' for Inactive)
REMARK    1  A    between atoms: O_2  and  C_3 
REMARK    2  A    between atoms: N_9  and  C_17 
REMARK    3  A    between atoms: C_11  and  C_12 
REMARK    4  A    between atoms: C_12  and  C_13 
REMARK    5  A    between atoms: C_13  and  O_14 
REMARK    6  A    between atoms: C_17  and  C_18 
ROOT
HETATM    1  C   UNK N   1      33.304  17.692   7.959  0.00  0.00     0.069 A 
HETATM    2  C   UNK N   1      33.452  17.373   6.601  0.00  0.00     0.051 A 
HETATM    3  C   UNK N   1      32.312  17.181   5.824  0.00  0.00     0.002 A 
HETATM    4  C   UNK N   1      31.047  17.288   6.368  0.00  0.00     0.046 A 
HETATM    5  C   UNK N   1      30.863  17.582   7.720  0.00  0.00     0.033 A 
HETATM    6  C   UNK N   1      32.003  17.788   8.518  0.00  0.00     0.039 A 
HETATM    7  N   UNK N   1      30.105  17.073   5.413  0.00  0.00    -0.345 N 
HETATM    8  C   UNK N   1      30.784  16.815   4.270  0.00  0.00     0.016 A 
HETATM    9  C   UNK N   1      32.157  16.872   4.477  0.00  0.00    -0.013 A 
HETATM   10  C   UNK N   1      30.128  16.519   2.959  0.00  0.00     0.069 C 
ENDROOT
BRANCH   7  11
HETATM   11  C   UNK N   1      28.632  17.099   5.445  0.00  0.00     0.167 C 
BRANCH  11  12
HETATM   12  C   UNK N   1      27.921  18.415   5.412  0.00  0.00    -0.040 A 
HETATM   13  C   UNK N   1      27.528  18.935   4.173  0.00  0.00     0.009 A 
HETATM   14  C   UNK N   1      26.980  20.218   4.088  0.00  0.00     0.001 A 
HETATM   15  C   UNK N   1      26.825  20.989   5.243  0.00  0.00     0.000 A 
HETATM   16  C   UNK N   1      27.227  20.480   6.481  0.00  0.00     0.001 A 
HETATM   17  C   UNK N   1      27.794  19.204   6.564  0.00  0.00     0.009 A 
ENDBRANCH  11  12
ENDBRANCH   7  11
BRANCH   9  18
HETATM   18  C   UNK N   1      33.145  16.611   3.357  0.00  0.00     0.151 C 
BRANCH  18  19
HETATM   19  C   UNK N   1      33.605  15.234   2.960  0.00  0.00     0.143 C 
HETATM   20  O   UNK N   1      33.352  14.299   3.702  0.00  0.00    -0.650 OA
BRANCH  19  21
HETATM   21  O   UNK N   1      34.234  14.995   1.800  0.00  0.00    -0.776 OA
HETATM   22  H   UNK N   1      34.740  15.662   1.378  0.00  0.00     0.167 HD
ENDBRANCH  19  21
ENDBRANCH  18  19
ENDBRANCH   9  18
BRANCH   1  23
HETATM   23  O   UNK N   1      34.416  17.908   8.702  0.00  0.00    -0.356 OA
HETATM   24  C   UNK N   1      34.895  17.007   9.625  0.00  0.00     0.210 C 
ENDBRANCH   1  23
TORSDOF 6
ENDMDL
MODEL 3
REMARK VINA RESULT:      -6.4     12.262     15.008
REMARK  6 active torsions:
REMARK  status: ('A' for Active; 'I' for Inactive)
REMARK    1  A    between atoms: O_2  and  C_3 
REMARK    2  A    between atoms: N_9  and  C_17 
REMARK    3  A    between atoms: C_11  and  C_12 
REMARK    4  A    between atoms: C_12  and  C_13 
REMARK    5  A    between atoms: C_13  and  O_14 
REMARK    6  A    between atoms: C_17  and  C_18 
ROOT
HETATM    1  C   UNK N   1      35.252  13.756  18.472  0.00  0.00     0.069 A 
HETATM    2  C   UNK N   1      35.346  13.084  17.245  0.00  0.00     0.051 A 
HETATM    3  C   UNK N   1      35.327  11.690  17.235  0.00  0.00     0.002 A 
HETATM    4  C   UNK N   1      35.229  10.967  18.407  0.00  0.00     0.046 A 
HETATM    5  C   UNK N   1      35.157  11.603  19.647  0.00  0.00     0.033 A 
HETATM    6  C   UNK N   1      35.165  13.009  19.675  0.00  0.00     0.039 A 
HETATM    7  N   UNK N   1      35.216   9.635  18.137  0.00  0.00    -0.345 N 
HETATM    8  C   UNK N   1      35.322   9.526  16.791  0.00  0.00     0.016 A 
HETATM    9  C   UNK N   1      35.393  10.776  16.190  0.00  0.00    -0.013 A 
HETATM   10  C   UNK N   1      35.348   8.221  16.060  0.00  0.00     0.069 C 
ENDROOT
BRANCH   7  11
HETATM   11  C   UNK N   1      35.098   8.446  19.000  0.00  0.00     0.167 C 
BRANCH  11  12
HETATM   12  C   UNK N   1      33.752   7.828  19.215  0.00  0.00    -0.040 A 
HETATM   13  C   UNK N   1      32.714   8.631  19.703  0.00  0.00     0.009 A 
HETATM   14  C   UNK N   1      31.482   8.063  20.040  0.00  0.00     0.001 A 
HETATM   15  C   UNK N   1      31.283   6.688  19.894  0.00  0.00     0.000 A 
HETATM   16  C   UNK N   1      32.321   5.879  19.419  0.00  0.00     0.001 A 
HETATM   17  C   UNK N   1      33.560   6.444  19.101  0.00  0.00     0.009 A 
ENDBRANCH  11  12
ENDBRANCH   7  11
BRANCH   9  18
HETATM   18  C   UNK N   1      35.526  10.933  14.688  0.00  0.00     0.151 C 
BRANCH  18  19
HETATM   19  C   UNK N   1      34.436  11.485  13.811  0.00  0.00     0.143 C 
HETATM   20  O   UNK N   1      34.465  12.670  13.521  0.00  0.00    -0.650 OA
BRANCH  19  21
HETATM   21  O   UNK N   1      33.467  10.713  13.297  0.00  0.00    -0.776 OA
HETATM   22  H   UNK N   1      32.917  10.195  13.853  0.00  0.00     0.167 HD
ENDBRANCH  19  21
ENDBRANCH  18  19
ENDBRANCH   9  18
BRANCH   1  23
HETATM   23  O   UNK N   1      35.240  15.111  18.472  0.00  0.00    -0.356 OA
HETATM   24  C   UNK N   1      36.253  15.876  17.943  0.00  0.00     0.210 C 
ENDBRANCH   1  23
TORSDOF 6
ENDMDL
MODEL 4
REMARK VINA RESULT:      -6.4     12.005     14.672
REMARK  6 active torsions:
REMARK  status: ('A' for Active; 'I' for Inactive)
REMARK    1  A    between atoms: O_2  and  C_3 
REMARK    2  A    between atoms: N_9  and  C_17 
REMARK    3  A    between atoms: C_11  and  C_12 
REMARK    4  A    between atoms: C_12  and  C_13 
REMARK    5  A    between atoms: C_13  and  O_14 
REMARK    6  A    between atoms: C_17  and  C_18 
ROOT
HETATM    1  C   UNK N   1      26.060  24.112  -6.599  0.00  0.00     0.069 A 
HETATM    2  C   UNK N   1      27.075  23.680  -5.734  0.00  0.00     0.051 A 
HETATM    3  C   UNK N   1      27.987  24.612  -5.243  0.00  0.00     0.002 A 
HETATM    4  C   UNK N   1      27.912  25.944  -5.599  0.00  0.00     0.046 A 
HETATM    5  C   UNK N   1      26.928  26.405  -6.475  0.00  0.00     0.033 A 
HETATM    6  C   UNK N   1      25.994  25.479  -6.974  0.00  0.00     0.039 A 
HETATM    7  N   UNK N   1      28.894  26.652  -4.983  0.00  0.00    -0.345 N 
HETATM    8  C   UNK N   1      29.596  25.755  -4.250  0.00  0.00     0.016 A 
HETATM    9  C   UNK N   1      29.068  24.477  -4.379  0.00  0.00    -0.013 A 
HETATM   10  C   UNK N   1      30.779  26.111  -3.406  0.00  0.00     0.069 C 
ENDROOT
BRANCH   7  11
HETATM   11  C   UNK N   1      29.243  28.083  -4.990  0.00  0.00     0.167 C 
BRANCH  11  12
HETATM   12  C   UNK N   1      28.388  29.050  -4.231  0.00  0.00    -0.040 A 
HETATM   13  C   UNK N   1      27.496  29.860  -4.944  0.00  0.00     0.009 A 
HETATM   14  C   UNK N   1      26.777  30.864  -4.287  0.00  0.00     0.001 A 
HETATM   15  C   UNK N   1      26.949  31.062  -2.915  0.00  0.00     0.000 A 
HETATM   16  C   UNK N   1      27.847  30.263  -2.201  0.00  0.00     0.001 A 
HETATM   17  C   UNK N   1      28.582  29.273  -2.861  0.00  0.00     0.009 A 
ENDBRANCH  11  12
ENDBRANCH   7  11
BRANCH   9  18
HETATM   18  C   UNK N   1      29.677  23.285  -3.667  0.00  0.00     0.151 C 
BRANCH  18  19
HETATM   19  C   UNK N   1      29.485  23.008  -2.200  0.00  0.00     0.143 C 
HETATM   20  O   UNK N   1      30.473  22.851  -1.503  0.00  0.00    -0.650 OA
BRANCH  19  21
HETATM   21  O   UNK N   1      28.272  22.979  -1.628  0.00  0.00    -0.776 OA
HETATM   22  H   UNK N   1      28.142  23.292  -0.754  0.00  0.00     0.167 HD
ENDBRANCH  19  21
ENDBRANCH  18  19
ENDBRANCH   9  18
BRANCH   1  23
HETATM   23  O   UNK N   1      25.158  23.206  -7.049  0.00  0.00    -0.356 OA
HETATM   24  C   UNK N   1      25.428  21.861  -7.155  0.00  0.00     0.210 C 
ENDBRANCH   1  23
TORSDOF 6
ENDMDL
MODEL 5
REMARK VINA RESULT:      -6.4      9.757     11.631
REMARK  6 active torsions:
REMARK  status: ('A' for Active; 'I' for Inactive)
REMARK    1  A    between atoms: O_2  and  C_3 
REMARK    2  A    between atoms: N_9  and  C_17 
REMARK    3  A    between atoms: C_11  and  C_12 
REMARK    4  A    between atoms: C_12  and  C_13 
REMARK    5  A    between atoms: C_13  and  O_14 
REMARK    6  A    between atoms: C_17  and  C_18 
ROOT
HETATM    1  C   UNK N   1      20.943  16.809   6.181  0.00  0.00     0.069 A 
HETATM    2  C   UNK N   1      20.736  17.770   5.181  0.00  0.00     0.051 A 
HETATM    3  C   UNK N   1      20.563  17.349   3.864  0.00  0.00     0.002 A 
HETATM    4  C   UNK N   1      20.601  16.010   3.529  0.00  0.00     0.046 A 
HETATM    5  C   UNK N   1      20.828  15.029   4.495  0.00  0.00     0.033 A 
HETATM    6  C   UNK N   1      20.996  15.435   5.831  0.00  0.00     0.039 A 
HETATM    7  N   UNK N   1      20.393  15.853   2.196  0.00  0.00    -0.345 N 
HETATM    8  C   UNK N   1      20.237  17.101   1.693  0.00  0.00     0.016 A 
HETATM    9  C   UNK N   1      20.334  18.061   2.692  0.00  0.00    -0.013 A 
HETATM   10  C   UNK N   1      19.985  17.392   0.247  0.00  0.00     0.069 C 
ENDROOT
BRANCH   7  11
HETATM   11  C   UNK N   1      20.305  14.659   1.337  0.00  0.00     0.167 C 
BRANCH  11  12
HETATM   12  C   UNK N   1      21.545  13.872   1.046  0.00  0.00    -0.040 A 
HETATM   13  C   UNK N   1      22.769  14.547   0.986  0.00  0.00     0.009 A 
HETATM   14  C   UNK N   1      23.928  13.872   0.590  0.00  0.00     0.001 A 
HETATM   15  C   UNK N   1      23.865  12.519   0.249  0.00  0.00     0.000 A 
HETATM   16  C   UNK N   1      22.642  11.843   0.296  0.00  0.00     0.001 A 
HETATM   17  C   UNK N   1      21.479  12.523   0.672  0.00  0.00     0.009 A 
ENDBRANCH  11  12
ENDBRANCH   7  11
BRANCH   9  18
HETATM   18  C   UNK N   1      20.207  19.542   2.392  0.00  0.00     0.151 C 
BRANCH  18  19
HETATM   19  C   UNK N   1      21.353  20.395   1.920  0.00  0.00     0.143 C 
HETATM   20  O   UNK N   1      21.529  20.522   0.719  0.00  0.00    -0.650 OA
BRANCH  19  21
HETATM   21  O   UNK N   1      22.152  21.057   2.770  0.00  0.00    -0.776 OA
HETATM   22  H   UNK N   1      21.796  21.634   3.417  0.00  0.00     0.167 HD
ENDBRANCH  19  21
ENDBRANCH  18  19
ENDBRANCH   9  18
BRANCH   1  23
HETATM   23  O   UNK N   1      21.080  17.223   7.464  0.00  0.00    -0.356 OA
HETATM   24  C   UNK N   1      20.504  16.576   8.533  0.00  0.00     0.210 C 
ENDBRANCH   1  23
TORSDOF 6
ENDMDL
MODEL 6
REMARK VINA RESULT:      -6.3      8.470     11.054
REMARK  6 active torsions:
REMARK  status: ('A' for Active; 'I' for Inactive)
REMARK    1  A    between atoms: O_2  and  C_3 
REMARK    2  A    between atoms: N_9  and  C_17 
REMARK    3  A    between atoms: C_11  and  C_12 
REMARK    4  A    between atoms: C_12  and  C_13 
REMARK    5  A    between atoms: C_13  and  O_14 
REMARK    6  A    between atoms: C_17  and  C_18 
ROOT
HETATM    1  C   UNK N   1      19.376  16.870   8.615  0.00  0.00     0.069 A 
HETATM    2  C   UNK N   1      20.265  17.360   7.648  0.00  0.00     0.051 A 
HETATM    3  C   UNK N   1      21.275  16.525   7.173  0.00  0.00     0.002 A 
HETATM    4  C   UNK N   1      21.417  15.235   7.643  0.00  0.00     0.046 A 
HETATM    5  C   UNK N   1      20.564  14.722   8.620  0.00  0.00     0.033 A 
HETATM    6  C   UNK N   1      19.534  15.548   9.105  0.00  0.00     0.039 A 
HETATM    7  N   UNK N   1      22.457  14.619   7.020  0.00  0.00    -0.345 N 
HETATM    8  C   UNK N   1      22.975  15.535   6.168  0.00  0.00     0.016 A 
HETATM    9  C   UNK N   1      22.273  16.733   6.228  0.00  0.00    -0.013 A 
HETATM   10  C   UNK N   1      24.147  15.274   5.275  0.00  0.00     0.069 C 
ENDROOT
BRANCH   7  11
HETATM   11  C   UNK N   1      23.012  13.259   7.121  0.00  0.00     0.167 C 
BRANCH  11  12
HETATM   12  C   UNK N   1      23.499  12.762   8.447  0.00  0.00    -0.040 A 
HETATM   13  C   UNK N   1      22.669  11.917   9.193  0.00  0.00     0.009 A 
HETATM   14  C   UNK N   1      23.031  11.538  10.489  0.00  0.00     0.001 A 
HETATM   15  C   UNK N   1      24.224  12.006  11.046  0.00  0.00     0.000 A 
HETATM   16  C   UNK N   1      25.051  12.860  10.309  0.00  0.00     0.001 A 
HETATM   17  C   UNK N   1      24.679  13.256   9.020  0.00  0.00     0.009 A 
ENDBRANCH  11  12
ENDBRANCH   7  11
BRANCH   9  18
HETATM   18  C   UNK N   1      22.658  17.928   5.378  0.00  0.00     0.151 C 
BRANCH  18  19
HETATM   19  C   UNK N   1      21.686  18.671   4.502  0.00  0.00     0.143 C 
HETATM   20  O   UNK N   1      21.048  19.590   4.989  0.00  0.00    -0.650 OA
BRANCH  19  21
HETATM   21  O   UNK N   1      21.535  18.391   3.199  0.00  0.00    -0.776 OA
HETATM   22  H   UNK N   1      22.276  18.200   2.657  0.00  0.00     0.167 HD
ENDBRANCH  19  21
ENDBRANCH  18  19
ENDBRANCH   9  18
BRANCH   1  23
HETATM   23  O   UNK N   1      18.378  17.677   9.050  0.00  0.00    -0.356 OA
HETATM   24  C   UNK N   1      17.110  17.225   9.334  0.00  0.00     0.210 C 
ENDBRANCH   1  23
TORSDOF 6
ENDMDL
MODEL 7
REMARK VINA RESULT:      -6.3      5.412      8.481
REMARK  6 active torsions:
REMARK  status: ('A' for Active; 'I' for Inactive)
REMARK    1  A    between atoms: O_2  and  C_3 
REMARK    2  A    between atoms: N_9  and  C_17 
REMARK    3  A    between atoms: C_11  and  C_12 
REMARK    4  A    between atoms: C_12  and  C_13 
REMARK    5  A    between atoms: C_13  and  O_14 
REMARK    6  A    between atoms: C_17  and  C_18 
ROOT
HETATM    1  C   UNK N   1      23.582  20.334   3.093  0.00  0.00     0.069 A 
HETATM    2  C   UNK N   1      23.160  19.207   3.814  0.00  0.00     0.051 A 
HETATM    3  C   UNK N   1      24.118  18.321   4.302  0.00  0.00     0.002 A 
HETATM    4  C   UNK N   1      25.465  18.528   4.082  0.00  0.00     0.046 A 
HETATM    5  C   UNK N   1      25.918  19.627   3.351  0.00  0.00     0.033 A 
HETATM    6  C   UNK N   1      24.966  20.537   2.858  0.00  0.00     0.039 A 
HETATM    7  N   UNK N   1      26.195  17.542   4.665  0.00  0.00    -0.345 N 
HETATM    8  C   UNK N   1      25.298  16.705   5.241  0.00  0.00     0.016 A 
HETATM    9  C   UNK N   1      23.996  17.149   5.042  0.00  0.00    -0.013 A 
HETATM   10  C   UNK N   1      25.675  15.472   5.998  0.00  0.00     0.069 C 
ENDROOT
BRANCH   7  11
HETATM   11  C   UNK N   1      27.645  17.300   4.761  0.00  0.00     0.167 C 
BRANCH  11  12
HETATM   12  C   UNK N   1      28.374  17.700   6.006  0.00  0.00    -0.040 A 
HETATM   13  C   UNK N   1      29.468  16.931   6.420  0.00  0.00     0.009 A 
HETATM   14  C   UNK N   1      30.092  17.193   7.643  0.00  0.00     0.001 A 
HETATM   15  C   UNK N   1      29.622  18.224   8.460  0.00  0.00     0.000 A 
HETATM   16  C   UNK N   1      28.522  18.988   8.057  0.00  0.00     0.001 A 
HETATM   17  C   UNK N   1      27.885  18.713   6.843  0.00  0.00     0.009 A 
ENDBRANCH  11  12
ENDBRANCH   7  11
BRANCH   9  18
HETATM   18  C   UNK N   1      22.801  16.386   5.578  0.00  0.00     0.151 C 
BRANCH  18  19
HETATM   19  C   UNK N   1      21.830  16.958   6.575  0.00  0.00     0.143 C 
HETATM   20  O   UNK N   1      21.119  16.190   7.202  0.00  0.00    -0.650 OA
BRANCH  19  21
HETATM   21  O   UNK N   1      21.757  18.272   6.833  0.00  0.00    -0.776 OA
HETATM   22  H   UNK N   1      21.499  18.881   6.168  0.00  0.00     0.167 HD
ENDBRANCH  19  21
ENDBRANCH  18  19
ENDBRANCH   9  18
BRANCH   1  23
HETATM   23  O   UNK N   1      22.647  21.209   2.648  0.00  0.00    -0.356 OA
HETATM   24  C   UNK N   1      21.318  20.885   2.504  0.00  0.00     0.210 C 
ENDBRANCH   1  23
TORSDOF 6
ENDMDL
MODEL 8
REMARK VINA RESULT:      -6.3     13.139     16.214
REMARK  6 active torsions:
REMARK  status: ('A' for Active; 'I' for Inactive)
REMARK    1  A    between atoms: O_2  and  C_3 
REMARK    2  A    between atoms: N_9  and  C_17 
REMARK    3  A    between atoms: C_11  and  C_12 
REMARK    4  A    between atoms: C_12  and  C_13 
REMARK    5  A    between atoms: C_13  and  O_14 
REMARK    6  A    between atoms: C_17  and  C_18 
ROOT
HETATM    1  C   UNK N   1      26.046  27.506  -3.955  0.00  0.00     0.069 A 
HETATM    2  C   UNK N   1      26.961  26.450  -3.844  0.00  0.00     0.051 A 
HETATM    3  C   UNK N   1      26.985  25.470  -4.834  0.00  0.00     0.002 A 
HETATM    4  C   UNK N   1      26.121  25.517  -5.910  0.00  0.00     0.046 A 
HETATM    5  C   UNK N   1      25.183  26.542  -6.040  0.00  0.00     0.033 A 
HETATM    6  C   UNK N   1      25.150  27.545  -5.055  0.00  0.00     0.039 A 
HETATM    7  N   UNK N   1      26.346  24.466  -6.742  0.00  0.00    -0.345 N 
HETATM    8  C   UNK N   1      27.346  23.750  -6.174  0.00  0.00     0.016 A 
HETATM    9  C   UNK N   1      27.774  24.335  -4.989  0.00  0.00    -0.013 A 
HETATM   10  C   UNK N   1      27.912  22.497  -6.763  0.00  0.00     0.069 C 
ENDROOT
BRANCH   7  11
HETATM   11  C   UNK N   1      25.740  24.063  -8.022  0.00  0.00     0.167 C 
BRANCH  11  12
HETATM   12  C   UNK N   1      25.983  24.895  -9.243  0.00  0.00    -0.040 A 
HETATM   13  C   UNK N   1      27.242  25.483  -9.414  0.00  0.00     0.009 A 
HETATM   14  C   UNK N   1      27.468  26.371 -10.470  0.00  0.00     0.001 A 
HETATM   15  C   UNK N   1      26.433  26.678 -11.358  0.00  0.00     0.000 A 
HETATM   16  C   UNK N   1      25.170  26.103 -11.184  0.00  0.00     0.001 A 
HETATM   17  C   UNK N   1      24.939  25.230 -10.115  0.00  0.00     0.009 A 
ENDBRANCH  11  12
ENDBRANCH   7  11
BRANCH   9  18
HETATM   18  C   UNK N   1      28.879  23.725  -4.151  0.00  0.00     0.151 C 
BRANCH  18  19
HETATM   19  C   UNK N   1      28.757  23.473  -2.672  0.00  0.00     0.143 C 
HETATM   20  O   UNK N   1      29.777  23.401  -2.007  0.00  0.00    -0.650 OA
BRANCH  19  21
HETATM   21  O   UNK N   1      27.569  23.377  -2.056  0.00  0.00    -0.776 OA
HETATM   22  H   UNK N   1      26.769  23.500  -2.529  0.00  0.00     0.167 HD
ENDBRANCH  19  21
ENDBRANCH  18  19
ENDBRANCH   9  18
BRANCH   1  23
HETATM   23  O   UNK N   1      26.049  28.472  -3.004  0.00  0.00    -0.356 OA
HETATM   24  C   UNK N   1      26.660  29.694  -3.170  0.00  0.00     0.210 C 
ENDBRANCH   1  23
TORSDOF 6
ENDMDL
MODEL 9
REMARK VINA RESULT:      -6.3     12.085     14.140
REMARK  6 active torsions:
REMARK  status: ('A' for Active; 'I' for Inactive)
REMARK    1  A    between atoms: O_2  and  C_3 
REMARK    2  A    between atoms: N_9  and  C_17 
REMARK    3  A    between atoms: C_11  and  C_12 
REMARK    4  A    between atoms: C_12  and  C_13 
REMARK    5  A    between atoms: C_13  and  O_14 
REMARK    6  A    between atoms: C_17  and  C_18 
ROOT
HETATM    1  C   UNK N   1      30.424  20.489  -7.137  0.00  0.00     0.069 A 
HETATM    2  C   UNK N   1      30.630  21.361  -6.058  0.00  0.00     0.051 A 
HETATM    3  C   UNK N   1      29.618  22.252  -5.707  0.00  0.00     0.002 A 
HETATM    4  C   UNK N   1      28.428  22.296  -6.405  0.00  0.00     0.046 A 
HETATM    5  C   UNK N   1      28.198  21.458  -7.497  0.00  0.00     0.033 A 
HETATM    6  C   UNK N   1      29.205  20.546  -7.860  0.00  0.00     0.039 A 
HETATM    7  N   UNK N   1      27.600  23.230  -5.866  0.00  0.00    -0.345 N 
HETATM    8  C   UNK N   1      28.284  23.782  -4.835  0.00  0.00     0.016 A 
HETATM    9  C   UNK N   1      29.540  23.206  -4.698  0.00  0.00    -0.013 A 
HETATM   10  C   UNK N   1      27.739  24.866  -3.959  0.00  0.00     0.069 C 
ENDROOT
BRANCH   7  11
HETATM   11  C   UNK N   1      26.229  23.654  -6.197  0.00  0.00     0.167 C 
BRANCH  11  12
HETATM   12  C   UNK N   1      25.992  24.468  -7.431  0.00  0.00    -0.040 A 
HETATM   13  C   UNK N   1      25.401  23.850  -8.539  0.00  0.00     0.009 A 
HETATM   14  C   UNK N   1      25.282  24.539  -9.751  0.00  0.00     0.001 A 
HETATM   15  C   UNK N   1      25.758  25.848  -9.859  0.00  0.00     0.000 A 
HETATM   16  C   UNK N   1      26.360  26.466  -8.758  0.00  0.00     0.001 A 
HETATM   17  C   UNK N   1      26.497  25.770  -7.552  0.00  0.00     0.009 A 
ENDBRANCH  11  12
ENDBRANCH   7  11
BRANCH   9  18
HETATM   18  C   UNK N   1      30.511  23.654  -3.623  0.00  0.00     0.151 C 
BRANCH  18  19
HETATM   19  C   UNK N   1      30.822  22.841  -2.395  0.00  0.00     0.143 C 
HETATM   20  O   UNK N   1      30.179  23.050  -1.380  0.00  0.00    -0.650 OA
BRANCH  19  21
HETATM   21  O   UNK N   1      31.743  21.865  -2.394  0.00  0.00    -0.776 OA
HETATM   22  H   UNK N   1      32.270  21.698  -3.151  0.00  0.00     0.167 HD
ENDBRANCH  19  21
ENDBRANCH  18  19
ENDBRANCH   9  18
BRANCH   1  23
HETATM   23  O   UNK N   1      31.400  19.604  -7.454  0.00  0.00    -0.356 OA
HETATM   24  C   UNK N   1      32.726  19.799  -7.144  0.00  0.00     0.210 C 
ENDBRANCH   1  23
TORSDOF 6
ENDMDL
