REMARK  6 active torsions:
REMARK  status: ('A' for Active; 'I' for Inactive)
REMARK    1  A    between atoms: O_2  and  C_3 
REMARK    2  A    between atoms: N_9  and  C_17 
REMARK    3  A    between atoms: C_11  and  C_12 
REMARK    4  A    between atoms: C_12  and  C_13 
REMARK    5  A    between atoms: C_13  and  O_14 
REMARK    6  A    between atoms: C_17  and  C_18 
ROOT
HETATM    1  C   UNK N   1       2.385  -1.524   0.236  0.00  0.00     0.069 A 
HETATM    2  C   UNK N   1       1.141  -2.165   0.144  0.00  0.00     0.051 A 
HETATM    3  C   UNK N   1      -0.015  -1.390   0.077  0.00  0.00     0.002 A 
HETATM    4  C   UNK N   1       0.044  -0.011   0.109  0.00  0.00     0.046 A 
HETATM    5  C   UNK N   1       1.263   0.659   0.222  0.00  0.00     0.033 A 
HETATM    6  C   UNK N   1       2.441  -0.107   0.282  0.00  0.00     0.039 A 
HETATM    7  N   UNK N   1      -1.205   0.516   0.015  0.00  0.00    -0.345 N 
HETATM    8  C   UNK N   1      -2.050  -0.540  -0.061  0.00  0.00     0.016 A 
HETATM    9  C   UNK N   1      -1.356  -1.743  -0.027  0.00  0.00    -0.013 A 
HETATM   10  C   UNK N   1      -3.536  -0.412  -0.176  0.00  0.00     0.069 C 
ENDROOT
BRANCH   7  11
HETATM   11  C   UNK N   1      -1.699   1.903  -0.029  0.00  0.00     0.167 C 
BRANCH  11  12
HETATM   12  C   UNK N   1      -0.715   3.031  -0.060  0.00  0.00    -0.040 A 
HETATM   13  C   UNK N   1      -0.882   4.092   0.838  0.00  0.00     0.009 A 
HETATM   14  C   UNK N   1      -0.064   5.223   0.753  0.00  0.00     0.001 A 
HETATM   15  C   UNK N   1       0.923   5.298  -0.233  0.00  0.00     0.000 A 
HETATM   16  C   UNK N   1       1.086   4.246  -1.140  0.00  0.00     0.001 A 
HETATM   17  C   UNK N   1       0.254   3.124  -1.068  0.00  0.00     0.009 A 
ENDBRANCH  11  12
ENDBRANCH   7  11
BRANCH   9  18
HETATM   18  C   UNK N   1      -2.070  -3.079  -0.087  0.00  0.00     0.151 C 
BRANCH  18  19
HETATM   19  C   UNK N   1      -1.354  -4.402  -0.123  0.00  0.00     0.143 C 
HETATM   20  O   UNK N   1      -2.007  -5.422   0.023  0.00  0.00    -0.650 OA
BRANCH  19  21
HETATM   21  O   UNK N   1      -0.037  -4.499  -0.360  0.00  0.00    -0.776 OA
HETATM   22  H   UNK N   1       0.364  -5.330  -0.525  0.00  0.00     0.167 HD
ENDBRANCH  19  21
ENDBRANCH  18  19
ENDBRANCH   9  18
BRANCH   1  23
HETATM   23  O   UNK N   1       3.507  -2.283   0.270  0.00  0.00    -0.356 OA
HETATM   24  C   UNK N   1       4.776  -1.754   0.322  0.00  0.00     0.210 C 
ENDBRANCH   1  23
TORSDOF 6
