MODEL 1
REMARK VINA RESULT:      -6.3      0.000      0.000
REMARK  5 active torsions:
REMARK  status: ('A' for Active; 'I' for Inactive)
REMARK    1  A    between atoms: C_10  and  C_11 
REMARK    2  A    between atoms: C_11  and  O_12 
REMARK    3  A    between atoms: C_11  and  P_13 
REMARK    4  A    between atoms: P_13  and  O_15 
REMARK    5  A    between atoms: P_13  and  O_16 
ROOT
HETATM    1  C   UNK N   1      34.305  10.427  15.763  0.00  0.00     0.001 A 
HETATM    2  C   UNK N   1      35.154  11.427  16.234  0.00  0.00     0.012 A 
HETATM    3  C   UNK N   1      35.569  12.459  15.386  0.00  0.00    -0.025 A 
HETATM    4  C   UNK N   1      35.137  12.497  14.030  0.00  0.00    -0.017 A 
HETATM    5  C   UNK N   1      34.287  11.478  13.587  0.00  0.00     0.013 A 
HETATM    6  C   UNK N   1      33.869  10.454  14.440  0.00  0.00     0.001 A 
HETATM    7  C   UNK N   1      36.408  13.449  15.888  0.00  0.00     0.012 A 
HETATM    8  C   UNK N   1      36.822  14.494  15.073  0.00  0.00     0.002 A 
HETATM    9  C   UNK N   1      36.406  14.552  13.744  0.00  0.00     0.011 A 
HETATM   10  C   UNK N   1      35.573  13.566  13.183  0.00  0.00    -0.007 A 
ENDROOT
BRANCH  10  11
HETATM   11  C   UNK N   1      35.245  13.769  11.697  0.00  0.00     0.263 C 
BRANCH  11  12
HETATM   12  O   UNK N   1      34.079  14.534  11.612  0.00  0.00    -0.379 OA
HETATM   13  H   UNK N   1      33.422  14.838  10.966  0.00  0.00     0.211 HD
ENDBRANCH  11  12
BRANCH  11  14
HETATM   14  P   UNK N   1      36.492  14.580  10.554  0.00  0.00     0.270 P 
HETATM   15  O   UNK N   1      36.077  14.488   9.061  0.00  0.00    -0.652 OA
BRANCH  14  16
HETATM   16  O   UNK N   1      36.687  16.282  10.824  0.00  0.00    -0.327 OA
HETATM   17  H   UNK N   1      36.316  16.919  10.194  0.00  0.00     0.220 HD
ENDBRANCH  14  16
BRANCH  14  18
HETATM   18  O   UNK N   1      38.088  13.900  10.625  0.00  0.00    -0.327 OA
HETATM   19  H   UNK N   1      38.626  13.101  10.732  0.00  0.00     0.220 HD
ENDBRANCH  14  18
ENDBRANCH  11  14
ENDBRANCH  10  11
TORSDOF 5
ENDMDL
MODEL 2
REMARK VINA RESULT:      -6.2      2.315      3.722
REMARK  5 active torsions:
REMARK  status: ('A' for Active; 'I' for Inactive)
REMARK    1  A    between atoms: C_10  and  C_11 
REMARK    2  A    between atoms: C_11  and  O_12 
REMARK    3  A    between atoms: C_11  and  P_13 
REMARK    4  A    between atoms: P_13  and  O_15 
REMARK    5  A    between atoms: P_13  and  O_16 
ROOT
HETATM    1  C   UNK N   1      34.997  12.256  19.651  0.00  0.00     0.001 A 
HETATM    2  C   UNK N   1      35.387  11.167  18.873  0.00  0.00     0.012 A 
HETATM    3  C   UNK N   1      35.799  11.356  17.550  0.00  0.00    -0.025 A 
HETATM    4  C   UNK N   1      35.820  12.660  16.979  0.00  0.00    -0.017 A 
HETATM    5  C   UNK N   1      35.422  13.732  17.786  0.00  0.00     0.013 A 
HETATM    6  C   UNK N   1      35.018  13.539  19.109  0.00  0.00     0.001 A 
HETATM    7  C   UNK N   1      36.192  10.251  16.801  0.00  0.00     0.012 A 
HETATM    8  C   UNK N   1      36.623  10.413  15.490  0.00  0.00     0.002 A 
HETATM    9  C   UNK N   1      36.655  11.682  14.916  0.00  0.00     0.011 A 
HETATM   10  C   UNK N   1      36.250  12.828  15.624  0.00  0.00    -0.007 A 
ENDROOT
BRANCH  10  11
HETATM   11  C   UNK N   1      36.317  14.137  14.824  0.00  0.00     0.263 C 
BRANCH  11  12
HETATM   12  O   UNK N   1      37.573  14.710  15.036  0.00  0.00    -0.379 OA
HETATM   13  H   UNK N   1      38.020  15.358  15.603  0.00  0.00     0.211 HD
ENDBRANCH  11  12
BRANCH  11  14
HETATM   14  P   UNK N   1      36.049  14.126  12.968  0.00  0.00     0.270 P 
HETATM   15  O   UNK N   1      35.915  15.556  12.378  0.00  0.00    -0.652 OA
BRANCH  14  16
HETATM   16  O   UNK N   1      37.363  13.432  12.073  0.00  0.00    -0.327 OA
HETATM   17  H   UNK N   1      38.276  13.561  12.374  0.00  0.00     0.220 HD
ENDBRANCH  14  16
BRANCH  14  18
HETATM   18  O   UNK N   1      34.621  13.285  12.447  0.00  0.00    -0.327 OA
HETATM   19  H   UNK N   1      33.714  13.356  12.111  0.00  0.00     0.220 HD
ENDBRANCH  14  18
ENDBRANCH  11  14
ENDBRANCH  10  11
TORSDOF 5
ENDMDL
MODEL 3
REMARK VINA RESULT:      -6.0      7.221      9.211
REMARK  5 active torsions:
REMARK  status: ('A' for Active; 'I' for Inactive)
REMARK    1  A    between atoms: C_10  and  C_11 
REMARK    2  A    between atoms: C_11  and  O_12 
REMARK    3  A    between atoms: C_11  and  P_13 
REMARK    4  A    between atoms: P_13  and  O_15 
REMARK    5  A    between atoms: P_13  and  O_16 
ROOT
HETATM    1  C   UNK N   1      31.698  16.815   3.266  0.00  0.00     0.001 A 
HETATM    2  C   UNK N   1      30.730  16.976   4.257  0.00  0.00     0.012 A 
HETATM    3  C   UNK N   1      31.109  17.201   5.585  0.00  0.00    -0.025 A 
HETATM    4  C   UNK N   1      32.486  17.261   5.942  0.00  0.00    -0.017 A 
HETATM    5  C   UNK N   1      33.433  17.094   4.925  0.00  0.00     0.013 A 
HETATM    6  C   UNK N   1      33.049  16.877   3.600  0.00  0.00     0.001 A 
HETATM    7  C   UNK N   1      30.121  17.368   6.549  0.00  0.00     0.012 A 
HETATM    8  C   UNK N   1      30.469  17.610   7.872  0.00  0.00     0.002 A 
HETATM    9  C   UNK N   1      31.811  17.678   8.241  0.00  0.00     0.011 A 
HETATM   10  C   UNK N   1      32.848  17.497   7.307  0.00  0.00    -0.007 A 
ENDROOT
BRANCH  10  11
HETATM   11  C   UNK N   1      34.265  17.568   7.896  0.00  0.00     0.263 C 
BRANCH  11  12
HETATM   12  O   UNK N   1      34.506  18.887   8.283  0.00  0.00    -0.379 OA
HETATM   13  H   UNK N   1      35.134  19.614   8.137  0.00  0.00     0.211 HD
ENDBRANCH  11  12
BRANCH  11  14
HETATM   14  P   UNK N   1      34.737  16.493   9.359  0.00  0.00     0.270 P 
HETATM   15  O   UNK N   1      35.630  15.291   8.950  0.00  0.00    -0.652 OA
BRANCH  14  16
HETATM   16  O   UNK N   1      35.679  17.317  10.559  0.00  0.00    -0.327 OA
HETATM   17  H   UNK N   1      36.186  18.108  10.319  0.00  0.00     0.220 HD
ENDBRANCH  14  16
BRANCH  14  18
HETATM   18  O   UNK N   1      33.393  15.793  10.207  0.00  0.00    -0.327 OA
HETATM   19  H   UNK N   1      32.536  15.942  10.634  0.00  0.00     0.220 HD
ENDBRANCH  14  18
ENDBRANCH  11  14
ENDBRANCH  10  11
TORSDOF 5
ENDMDL
MODEL 4
REMARK VINA RESULT:      -6.0      1.234      2.942
REMARK  5 active torsions:
REMARK  status: ('A' for Active; 'I' for Inactive)
REMARK    1  A    between atoms: C_10  and  C_11 
REMARK    2  A    between atoms: C_11  and  O_12 
REMARK    3  A    between atoms: C_11  and  P_13 
REMARK    4  A    between atoms: P_13  and  O_15 
REMARK    5  A    between atoms: P_13  and  O_16 
ROOT
HETATM    1  C   UNK N   1      34.904  11.150  16.808  0.00  0.00     0.001 A 
HETATM    2  C   UNK N   1      34.512  10.411  15.693  0.00  0.00     0.012 A 
HETATM    3  C   UNK N   1      34.624  10.956  14.409  0.00  0.00    -0.025 A 
HETATM    4  C   UNK N   1      35.133  12.272  14.225  0.00  0.00    -0.017 A 
HETATM    5  C   UNK N   1      35.517  12.989  15.365  0.00  0.00     0.013 A 
HETATM    6  C   UNK N   1      35.410  12.438  16.643  0.00  0.00     0.001 A 
HETATM    7  C   UNK N   1      34.234  10.190  13.315  0.00  0.00     0.012 A 
HETATM    8  C   UNK N   1      34.352  10.700  12.028  0.00  0.00     0.002 A 
HETATM    9  C   UNK N   1      34.852  11.985  11.828  0.00  0.00     0.011 A 
HETATM   10  C   UNK N   1      35.242  12.806  12.901  0.00  0.00    -0.007 A 
ENDROOT
BRANCH  10  11
HETATM   11  C   UNK N   1      35.735  14.204  12.498  0.00  0.00     0.263 C 
BRANCH  11  12
HETATM   12  O   UNK N   1      37.071  14.095  12.108  0.00  0.00    -0.379 OA
HETATM   13  H   UNK N   1      37.683  14.396  11.417  0.00  0.00     0.211 HD
ENDBRANCH  11  12
BRANCH  11  14
HETATM   14  P   UNK N   1      34.865  15.158  11.138  0.00  0.00     0.270 P 
HETATM   15  O   UNK N   1      35.317  14.717   9.720  0.00  0.00    -0.652 OA
BRANCH  14  16
HETATM   16  O   UNK N   1      33.146  14.931  11.112  0.00  0.00    -0.327 OA
HETATM   17  H   UNK N   1      32.592  15.340  11.795  0.00  0.00     0.220 HD
ENDBRANCH  14  16
BRANCH  14  18
HETATM   18  O   UNK N   1      35.118  16.875  11.182  0.00  0.00    -0.327 OA
HETATM   19  H   UNK N   1      35.727  17.601  11.388  0.00  0.00     0.220 HD
ENDBRANCH  14  18
ENDBRANCH  11  14
ENDBRANCH  10  11
TORSDOF 5
ENDMDL
MODEL 5
REMARK VINA RESULT:      -5.9      2.987      3.964
REMARK  5 active torsions:
REMARK  status: ('A' for Active; 'I' for Inactive)
REMARK    1  A    between atoms: C_10  and  C_11 
REMARK    2  A    between atoms: C_11  and  O_12 
REMARK    3  A    between atoms: C_11  and  P_13 
REMARK    4  A    between atoms: P_13  and  O_15 
REMARK    5  A    between atoms: P_13  and  O_16 
ROOT
HETATM    1  C   UNK N   1      35.165   8.793  19.317  0.00  0.00     0.001 A 
HETATM    2  C   UNK N   1      35.167  10.094  19.820  0.00  0.00     0.012 A 
HETATM    3  C   UNK N   1      35.204  11.188  18.948  0.00  0.00    -0.025 A 
HETATM    4  C   UNK N   1      35.247  10.988  17.540  0.00  0.00    -0.017 A 
HETATM    5  C   UNK N   1      35.245   9.671  17.066  0.00  0.00     0.013 A 
HETATM    6  C   UNK N   1      35.201   8.583  17.940  0.00  0.00     0.001 A 
HETATM    7  C   UNK N   1      35.195  12.473  19.480  0.00  0.00     0.012 A 
HETATM    8  C   UNK N   1      35.212  13.578  18.638  0.00  0.00     0.002 A 
HETATM    9  C   UNK N   1      35.250  13.403  17.256  0.00  0.00     0.011 A 
HETATM   10  C   UNK N   1      35.280  12.124  16.670  0.00  0.00    -0.007 A 
ENDROOT
BRANCH  10  11
HETATM   11  C   UNK N   1      35.356  12.120  15.135  0.00  0.00     0.263 C 
BRANCH  11  12
HETATM   12  O   UNK N   1      34.086  12.418  14.638  0.00  0.00    -0.379 OA
HETATM   13  H   UNK N   1      33.434  13.137  14.617  0.00  0.00     0.211 HD
ENDBRANCH  11  12
BRANCH  11  14
HETATM   14  P   UNK N   1      36.551  13.259  14.245  0.00  0.00     0.270 P 
HETATM   15  O   UNK N   1      35.827  14.396  13.474  0.00  0.00    -0.652 OA
BRANCH  14  16
HETATM   16  O   UNK N   1      37.635  14.104  15.302  0.00  0.00    -0.327 OA
HETATM   17  H   UNK N   1      37.894  15.017  15.104  0.00  0.00     0.220 HD
ENDBRANCH  14  16
BRANCH  14  18
HETATM   18  O   UNK N   1      37.553  12.476  13.062  0.00  0.00    -0.327 OA
HETATM   19  H   UNK N   1      37.954  11.646  12.759  0.00  0.00     0.220 HD
ENDBRANCH  14  18
ENDBRANCH  11  14
ENDBRANCH  10  11
TORSDOF 5
ENDMDL
MODEL 6
REMARK VINA RESULT:      -5.9     13.585     15.019
REMARK  5 active torsions:
REMARK  status: ('A' for Active; 'I' for Inactive)
REMARK    1  A    between atoms: C_10  and  C_11 
REMARK    2  A    between atoms: C_11  and  O_12 
REMARK    3  A    between atoms: C_11  and  P_13 
REMARK    4  A    between atoms: P_13  and  O_15 
REMARK    5  A    between atoms: P_13  and  O_16 
ROOT
HETATM    1  C   UNK N   1      24.992  12.251  10.690  0.00  0.00     0.001 A 
HETATM    2  C   UNK N   1      23.853  11.934  11.430  0.00  0.00     0.012 A 
HETATM    3  C   UNK N   1      22.593  12.375  11.011  0.00  0.00    -0.025 A 
HETATM    4  C   UNK N   1      22.458  13.156   9.829  0.00  0.00    -0.017 A 
HETATM    5  C   UNK N   1      23.619  13.459   9.109  0.00  0.00     0.013 A 
HETATM    6  C   UNK N   1      24.874  13.011   9.528  0.00  0.00     0.001 A 
HETATM    7  C   UNK N   1      21.475  12.033  11.764  0.00  0.00     0.012 A 
HETATM    8  C   UNK N   1      20.209  12.442  11.361  0.00  0.00     0.002 A 
HETATM    9  C   UNK N   1      20.056  13.204  10.205  0.00  0.00     0.011 A 
HETATM   10  C   UNK N   1      21.157  13.591   9.419  0.00  0.00    -0.007 A 
ENDROOT
BRANCH  10  11
HETATM   11  C   UNK N   1      20.806  14.459   8.201  0.00  0.00     0.263 C 
BRANCH  11  12
HETATM   12  O   UNK N   1      20.224  13.635   7.236  0.00  0.00    -0.379 OA
HETATM   13  H   UNK N   1      19.358  13.413   6.857  0.00  0.00     0.211 HD
ENDBRANCH  11  12
BRANCH  11  14
HETATM   14  P   UNK N   1      19.667  15.937   8.389  0.00  0.00     0.270 P 
HETATM   15  O   UNK N   1      18.900  16.267   7.080  0.00  0.00    -0.652 OA
BRANCH  14  16
HETATM   16  O   UNK N   1      18.407  15.708   9.559  0.00  0.00    -0.327 OA
HETATM   17  H   UNK N   1      17.946  16.474   9.933  0.00  0.00     0.220 HD
ENDBRANCH  14  16
BRANCH  14  18
HETATM   18  O   UNK N   1      20.465  17.415   8.833  0.00  0.00    -0.327 OA
HETATM   19  H   UNK N   1      21.054  18.134   8.556  0.00  0.00     0.220 HD
ENDBRANCH  14  18
ENDBRANCH  11  14
ENDBRANCH  10  11
TORSDOF 5
ENDMDL
MODEL 7
REMARK VINA RESULT:      -5.7      2.439      3.589
REMARK  5 active torsions:
REMARK  status: ('A' for Active; 'I' for Inactive)
REMARK    1  A    between atoms: C_10  and  C_11 
REMARK    2  A    between atoms: C_11  and  O_12 
REMARK    3  A    between atoms: C_11  and  P_13 
REMARK    4  A    between atoms: P_13  and  O_15 
REMARK    5  A    between atoms: P_13  and  O_16 
ROOT
HETATM    1  C   UNK N   1      36.653   8.960  16.504  0.00  0.00     0.001 A 
HETATM    2  C   UNK N   1      36.057   9.614  17.583  0.00  0.00     0.012 A 
HETATM    3  C   UNK N   1      35.843  10.995  17.540  0.00  0.00    -0.025 A 
HETATM    4  C   UNK N   1      36.235  11.752  16.401  0.00  0.00    -0.017 A 
HETATM    5  C   UNK N   1      36.832  11.068  15.335  0.00  0.00     0.013 A 
HETATM    6  C   UNK N   1      37.037   9.687  15.380  0.00  0.00     0.001 A 
HETATM    7  C   UNK N   1      35.237  11.617  18.627  0.00  0.00     0.012 A 
HETATM    8  C   UNK N   1      34.996  12.985  18.604  0.00  0.00     0.002 A 
HETATM    9  C   UNK N   1      35.368  13.742  17.496  0.00  0.00     0.011 A 
HETATM   10  C   UNK N   1      36.001  13.165  16.380  0.00  0.00    -0.007 A 
ENDROOT
BRANCH  10  11
HETATM   11  C   UNK N   1      36.374  14.154  15.266  0.00  0.00     0.263 C 
BRANCH  11  12
HETATM   12  O   UNK N   1      37.753  14.367  15.321  0.00  0.00    -0.379 OA
HETATM   13  H   UNK N   1      38.403  15.084  15.400  0.00  0.00     0.211 HD
ENDBRANCH  11  12
BRANCH  11  14
HETATM   14  P   UNK N   1      35.972  13.761  13.477  0.00  0.00     0.270 P 
HETATM   15  O   UNK N   1      35.780  15.038  12.616  0.00  0.00    -0.652 OA
BRANCH  14  16
HETATM   16  O   UNK N   1      37.225  12.892  12.651  0.00  0.00    -0.327 OA
HETATM   17  H   UNK N   1      38.136  12.922  12.982  0.00  0.00     0.220 HD
ENDBRANCH  14  16
BRANCH  14  18
HETATM   18  O   UNK N   1      34.520  12.836  13.247  0.00  0.00    -0.327 OA
HETATM   19  H   UNK N   1      33.744  12.427  13.661  0.00  0.00     0.220 HD
ENDBRANCH  14  18
ENDBRANCH  11  14
ENDBRANCH  10  11
TORSDOF 5
ENDMDL
MODEL 8
REMARK VINA RESULT:      -5.7     13.242     14.584
REMARK  5 active torsions:
REMARK  status: ('A' for Active; 'I' for Inactive)
REMARK    1  A    between atoms: C_10  and  C_11 
REMARK    2  A    between atoms: C_11  and  O_12 
REMARK    3  A    between atoms: C_11  and  P_13 
REMARK    4  A    between atoms: P_13  and  O_15 
REMARK    5  A    between atoms: P_13  and  O_16 
ROOT
HETATM    1  C   UNK N   1      23.207  11.900  11.614  0.00  0.00     0.001 A 
HETATM    2  C   UNK N   1      24.260  12.288  10.787  0.00  0.00     0.012 A 
HETATM    3  C   UNK N   1      24.005  12.963   9.589  0.00  0.00    -0.025 A 
HETATM    4  C   UNK N   1      22.670  13.257   9.196  0.00  0.00    -0.017 A 
HETATM    5  C   UNK N   1      21.634  12.854  10.047  0.00  0.00     0.013 A 
HETATM    6  C   UNK N   1      21.894  12.186  11.245  0.00  0.00     0.001 A 
HETATM    7  C   UNK N   1      25.078  13.346   8.790  0.00  0.00     0.012 A 
HETATM    8  C   UNK N   1      24.855  14.034   7.604  0.00  0.00     0.002 A 
HETATM    9  C   UNK N   1      23.554  14.335   7.204  0.00  0.00     0.011 A 
HETATM   10  C   UNK N   1      22.435  13.954   7.967  0.00  0.00    -0.007 A 
ENDROOT
BRANCH  10  11
HETATM   11  C   UNK N   1      21.079  14.336   7.357  0.00  0.00     0.263 C 
BRANCH  11  12
HETATM   12  O   UNK N   1      20.331  13.168   7.199  0.00  0.00    -0.379 OA
HETATM   13  H   UNK N   1      19.413  12.867   7.100  0.00  0.00     0.211 HD
ENDBRANCH  11  12
BRANCH  11  14
HETATM   14  P   UNK N   1      19.961  15.564   8.230  0.00  0.00     0.270 P 
HETATM   15  O   UNK N   1      20.742  16.782   8.794  0.00  0.00    -0.652 OA
BRANCH  14  16
HETATM   16  O   UNK N   1      18.767  16.282   7.198  0.00  0.00    -0.327 OA
HETATM   17  H   UNK N   1      17.846  15.981   7.239  0.00  0.00     0.220 HD
ENDBRANCH  14  16
BRANCH  14  18
HETATM   18  O   UNK N   1      19.092  14.915   9.586  0.00  0.00    -0.327 OA
HETATM   19  H   UNK N   1      19.141  14.440  10.430  0.00  0.00     0.220 HD
ENDBRANCH  14  18
ENDBRANCH  11  14
ENDBRANCH  10  11
TORSDOF 5
ENDMDL
MODEL 9
REMARK VINA RESULT:      -5.6      6.993      8.146
REMARK  5 active torsions:
REMARK  status: ('A' for Active; 'I' for Inactive)
REMARK    1  A    between atoms: C_10  and  C_11 
REMARK    2  A    between atoms: C_11  and  O_12 
REMARK    3  A    between atoms: C_11  and  P_13 
REMARK    4  A    between atoms: P_13  and  O_15 
REMARK    5  A    between atoms: P_13  and  O_16 
ROOT
HETATM    1  C   UNK N   1      35.156  10.149  15.270  0.00  0.00     0.001 A 
HETATM    2  C   UNK N   1      35.128  11.492  15.645  0.00  0.00     0.012 A 
HETATM    3  C   UNK N   1      35.157  11.848  16.997  0.00  0.00    -0.025 A 
HETATM    4  C   UNK N   1      35.209  10.846  18.007  0.00  0.00    -0.017 A 
HETATM    5  C   UNK N   1      35.235   9.507  17.598  0.00  0.00     0.013 A 
HETATM    6  C   UNK N   1      35.212   9.157  16.247  0.00  0.00     0.001 A 
HETATM    7  C   UNK N   1      35.138  13.196  17.340  0.00  0.00     0.012 A 
HETATM    8  C   UNK N   1      35.185  13.578  18.675  0.00  0.00     0.002 A 
HETATM    9  C   UNK N   1      35.240  12.613  19.677  0.00  0.00     0.011 A 
HETATM   10  C   UNK N   1      35.242  11.237  19.384  0.00  0.00    -0.007 A 
ENDROOT
BRANCH  10  11
HETATM   11  C   UNK N   1      35.270  10.315  20.613  0.00  0.00     0.263 C 
BRANCH  11  12
HETATM   12  O   UNK N   1      36.242  10.797  21.492  0.00  0.00    -0.379 OA
HETATM   13  H   UNK N   1      36.414  11.539  22.094  0.00  0.00     0.211 HD
ENDBRANCH  11  12
BRANCH  11  14
HETATM   14  P   UNK N   1      33.719  10.052  21.633  0.00  0.00     0.270 P 
HETATM   15  O   UNK N   1      33.981   9.199  22.904  0.00  0.00    -0.652 OA
BRANCH  14  16
HETATM   16  O   UNK N   1      33.032  11.518  22.256  0.00  0.00    -0.327 OA
HETATM   17  H   UNK N   1      33.488  12.008  22.958  0.00  0.00     0.220 HD
ENDBRANCH  14  16
BRANCH  14  18
HETATM   18  O   UNK N   1      32.431   9.240  20.798  0.00  0.00    -0.327 OA
HETATM   19  H   UNK N   1      31.839   8.473  20.770  0.00  0.00     0.220 HD
ENDBRANCH  14  18
ENDBRANCH  11  14
ENDBRANCH  10  11
TORSDOF 5
ENDMDL
