MODEL 1
REMARK VINA RESULT:      -7.7      0.000      0.000
REMARK  8 active torsions:
REMARK  status: ('A' for Active; 'I' for Inactive)
REMARK    1  A    between atoms: C_3  and  C_8 
REMARK    2  A    between atoms: C_8  and  C_9 
REMARK       I    between atoms: C_9  and  N_10 
REMARK    3  A    between atoms: N_10  and  C_11 
REMARK    4  A    between atoms: C_15  and  S_20 
REMARK    5  A    between atoms: S_20  and  N_21 
REMARK    6  A    between atoms: N_21  and  C_22 
REMARK    7  A    between atoms: C_22  and  C_23 
REMARK    8  A    between atoms: C_23  and  O_24 
ROOT
HETATM    1  C   UNK N   1      28.171  23.998  -4.825  0.00  0.00     0.035 A 
HETATM    2  C   UNK N   1      28.839  23.275  -5.813  0.00  0.00     0.038 A 
HETATM    3  C   UNK N   1      29.875  22.408  -5.467  0.00  0.00    -0.036 A 
HETATM    4  C   UNK N   1      30.279  22.301  -4.117  0.00  0.00     0.091 A 
HETATM    5  C   UNK N   1      29.559  22.996  -3.122  0.00  0.00    -0.036 A 
HETATM    6  C   UNK N   1      28.524  23.845  -3.489  0.00  0.00     0.038 A 
HETATM    7  C   UNK N   1      29.918  22.928  -1.678  0.00  0.00     0.050 C 
HETATM    8  C   UNK N   1      30.582  21.680  -6.559  0.00  0.00     0.050 C 
ENDROOT
BRANCH   1   9
HETATM    9  N   UNK N   1      27.417  25.136  -5.170  0.00  0.00    -0.327 N 
HETATM   10  C   UNK N   1      26.141  24.965  -5.620  0.00  0.00     0.226 C 
HETATM   11  O   UNK N   1      25.621  23.861  -5.628  0.00  0.00    -0.273 OA
HETATM   12  H   UNK N   1      27.802  26.038  -5.089  0.00  0.00     0.169 HD
BRANCH  10  13
HETATM   13  C   UNK N   1      25.420  26.106  -6.248  0.00  0.00     0.142 C 
BRANCH  13  14
HETATM   14  C   UNK N   1      26.361  27.269  -6.328  0.00  0.00    -0.043 A 
HETATM   15  C   UNK N   1      26.402  28.224  -5.299  0.00  0.00    -0.055 A 
HETATM   16  C   UNK N   1      27.314  29.281  -5.367  0.00  0.00     0.007 A 
HETATM   17  C   UNK N   1      25.495  28.119  -4.119  0.00  0.00     0.049 C 
HETATM   18  C   UNK N   1      28.185  29.392  -6.455  0.00  0.00     0.001 A 
HETATM   19  C   UNK N   1      28.146  28.446  -7.483  0.00  0.00     0.001 A 
HETATM   20  C   UNK N   1      27.236  27.388  -7.421  0.00  0.00     0.008 A 
ENDBRANCH  13  14
ENDBRANCH  10  13
ENDBRANCH   1   9
BRANCH   4  21
HETATM   21  S   UNK N   1      31.766  21.369  -3.701  0.00  0.00     0.260 S 
HETATM   22  O   UNK N   1      32.157  21.465  -2.216  0.00  0.00    -0.200 OA
HETATM   23  O   UNK N   1      32.981  22.040  -4.360  0.00  0.00    -0.200 OA
BRANCH  21  24
HETATM   24  N   UNK N   1      31.890  19.663  -4.161  0.00  0.00    -0.305 N 
HETATM   25  H   UNK N   1      31.235  18.928  -3.892  0.00  0.00     0.172 HD
BRANCH  24  26
HETATM   26  C   UNK N   1      33.079  19.477  -4.987  0.00  0.00     0.242 C 
BRANCH  26  27
HETATM   27  C   UNK N   1      34.131  18.719  -4.242  0.00  0.00     0.158 C 
HETATM   28  O   UNK N   1      35.297  19.068  -4.311  0.00  0.00    -0.649 OA
BRANCH  27  29
HETATM   29  O   UNK N   1      33.794  17.645  -3.504  0.00  0.00    -0.775 OA
HETATM   30  H   UNK N   1      32.915  17.495  -3.216  0.00  0.00     0.167 HD
ENDBRANCH  27  29
ENDBRANCH  26  27
ENDBRANCH  24  26
ENDBRANCH  21  24
ENDBRANCH   4  21
TORSDOF 8
ENDMDL
MODEL 2
REMARK VINA RESULT:      -7.7     12.584     15.442
REMARK  8 active torsions:
REMARK  status: ('A' for Active; 'I' for Inactive)
REMARK    1  A    between atoms: C_3  and  C_8 
REMARK    2  A    between atoms: C_8  and  C_9 
REMARK       I    between atoms: C_9  and  N_10 
REMARK    3  A    between atoms: N_10  and  C_11 
REMARK    4  A    between atoms: C_15  and  S_20 
REMARK    5  A    between atoms: S_20  and  N_21 
REMARK    6  A    between atoms: N_21  and  C_22 
REMARK    7  A    between atoms: C_22  and  C_23 
REMARK    8  A    between atoms: C_23  and  O_24 
ROOT
HETATM    1  C   UNK N   1      31.660  16.493   6.858  0.00  0.00     0.035 A 
HETATM    2  C   UNK N   1      32.546  17.540   7.106  0.00  0.00     0.038 A 
HETATM    3  C   UNK N   1      33.613  17.361   7.986  0.00  0.00    -0.036 A 
HETATM    4  C   UNK N   1      33.765  16.130   8.663  0.00  0.00     0.091 A 
HETATM    5  C   UNK N   1      32.894  15.061   8.360  0.00  0.00    -0.036 A 
HETATM    6  C   UNK N   1      31.845  15.260   7.473  0.00  0.00     0.038 A 
HETATM    7  C   UNK N   1      32.994  13.732   9.025  0.00  0.00     0.050 C 
HETATM    8  C   UNK N   1      34.516  18.517   8.247  0.00  0.00     0.050 C 
ENDROOT
BRANCH   1   9
HETATM    9  N   UNK N   1      30.393  16.757   6.302  0.00  0.00    -0.327 N 
HETATM   10  C   UNK N   1      29.367  17.085   7.136  0.00  0.00     0.226 C 
HETATM   11  O   UNK N   1      29.556  17.251   8.331  0.00  0.00    -0.273 OA
HETATM   12  H   UNK N   1      30.251  16.704   5.329  0.00  0.00     0.169 HD
BRANCH  10  13
HETATM   13  C   UNK N   1      27.970  17.100   6.621  0.00  0.00     0.142 C 
BRANCH  13  14
HETATM   14  C   UNK N   1      27.703  18.449   6.027  0.00  0.00    -0.043 A 
HETATM   15  C   UNK N   1      27.525  18.594   4.641  0.00  0.00    -0.055 A 
HETATM   16  C   UNK N   1      27.234  19.852   4.106  0.00  0.00     0.007 A 
HETATM   17  C   UNK N   1      27.625  17.420   3.728  0.00  0.00     0.049 C 
HETATM   18  C   UNK N   1      27.119  20.966   4.943  0.00  0.00     0.001 A 
HETATM   19  C   UNK N   1      27.298  20.827   6.322  0.00  0.00     0.001 A 
HETATM   20  C   UNK N   1      27.590  19.573   6.863  0.00  0.00     0.008 A 
ENDBRANCH  13  14
ENDBRANCH  10  13
ENDBRANCH   1   9
BRANCH   4  21
HETATM   21  S   UNK N   1      34.994  15.976   9.973  0.00  0.00     0.260 S 
HETATM   22  O   UNK N   1      35.729  17.291  10.286  0.00  0.00    -0.200 OA
HETATM   23  O   UNK N   1      36.160  15.109   9.471  0.00  0.00    -0.200 OA
BRANCH  21  24
HETATM   24  N   UNK N   1      34.537  15.256  11.526  0.00  0.00    -0.305 N 
HETATM   25  H   UNK N   1      33.771  15.571  12.122  0.00  0.00     0.172 HD
BRANCH  24  26
HETATM   26  C   UNK N   1      35.429  14.139  11.816  0.00  0.00     0.242 C 
BRANCH  26  27
HETATM   27  C   UNK N   1      35.702  14.042  13.283  0.00  0.00     0.158 C 
HETATM   28  O   UNK N   1      34.912  13.467  14.012  0.00  0.00    -0.649 OA
BRANCH  27  29
HETATM   29  O   UNK N   1      36.813  14.597  13.801  0.00  0.00    -0.775 OA
HETATM   30  H   UNK N   1      36.777  15.224  14.497  0.00  0.00     0.167 HD
ENDBRANCH  27  29
ENDBRANCH  26  27
ENDBRANCH  24  26
ENDBRANCH  21  24
ENDBRANCH   4  21
TORSDOF 8
ENDMDL
MODEL 3
REMARK VINA RESULT:      -7.4     16.355     20.955
REMARK  8 active torsions:
REMARK  status: ('A' for Active; 'I' for Inactive)
REMARK    1  A    between atoms: C_3  and  C_8 
REMARK    2  A    between atoms: C_8  and  C_9 
REMARK       I    between atoms: C_9  and  N_10 
REMARK    3  A    between atoms: N_10  and  C_11 
REMARK    4  A    between atoms: C_15  and  S_20 
REMARK    5  A    between atoms: S_20  and  N_21 
REMARK    6  A    between atoms: N_21  and  C_22 
REMARK    7  A    between atoms: C_22  and  C_23 
REMARK    8  A    between atoms: C_23  and  O_24 
ROOT
HETATM    1  C   UNK N   1      35.781  14.670  11.096  0.00  0.00     0.035 A 
HETATM    2  C   UNK N   1      35.365  15.945  10.714  0.00  0.00     0.038 A 
HETATM    3  C   UNK N   1      34.979  16.190   9.397  0.00  0.00    -0.036 A 
HETATM    4  C   UNK N   1      35.057  15.155   8.438  0.00  0.00     0.091 A 
HETATM    5  C   UNK N   1      35.427  13.856   8.851  0.00  0.00    -0.036 A 
HETATM    6  C   UNK N   1      35.797  13.634  10.170  0.00  0.00     0.038 A 
HETATM    7  C   UNK N   1      35.525  12.712   7.903  0.00  0.00     0.050 C 
HETATM    8  C   UNK N   1      34.573  17.575   9.025  0.00  0.00     0.050 C 
ENDROOT
BRANCH   1   9
HETATM    9  N   UNK N   1      36.527  14.496  12.278  0.00  0.00    -0.327 N 
HETATM   10  C   UNK N   1      35.901  13.993  13.380  0.00  0.00     0.226 C 
HETATM   11  O   UNK N   1      34.746  13.602  13.323  0.00  0.00    -0.273 OA
HETATM   12  H   UNK N   1      37.482  14.732  12.309  0.00  0.00     0.169 HD
BRANCH  10  13
HETATM   13  C   UNK N   1      36.577  14.053  14.705  0.00  0.00     0.142 C 
BRANCH  13  14
HETATM   14  C   UNK N   1      36.644  12.663  15.262  0.00  0.00    -0.043 A 
HETATM   15  C   UNK N   1      35.885  12.311  16.389  0.00  0.00    -0.055 A 
HETATM   16  C   UNK N   1      35.926  11.000  16.872  0.00  0.00     0.007 A 
HETATM   17  C   UNK N   1      35.019  13.313  17.075  0.00  0.00     0.049 C 
HETATM   18  C   UNK N   1      36.718  10.038  16.238  0.00  0.00     0.001 A 
HETATM   19  C   UNK N   1      37.477  10.385  15.117  0.00  0.00     0.001 A 
HETATM   20  C   UNK N   1      37.442  11.694  14.630  0.00  0.00     0.008 A 
ENDBRANCH  13  14
ENDBRANCH  10  13
ENDBRANCH   1   9
BRANCH   4  21
HETATM   21  S   UNK N   1      34.789  15.528   6.695  0.00  0.00     0.260 S 
HETATM   22  O   UNK N   1      36.004  15.218   5.804  0.00  0.00    -0.200 OA
HETATM   23  O   UNK N   1      34.686  17.052   6.516  0.00  0.00    -0.200 OA
BRANCH  21  24
HETATM   24  N   UNK N   1      33.362  14.882   5.867  0.00  0.00    -0.305 N 
HETATM   25  H   UNK N   1      33.262  14.772   4.858  0.00  0.00     0.172 HD
BRANCH  24  26
HETATM   26  C   UNK N   1      32.353  14.530   6.861  0.00  0.00     0.242 C 
BRANCH  26  27
HETATM   27  C   UNK N   1      31.509  15.716   7.205  0.00  0.00     0.158 C 
HETATM   28  O   UNK N   1      30.888  16.296   6.330  0.00  0.00    -0.649 OA
BRANCH  27  29
HETATM   29  O   UNK N   1      31.442  16.151   8.477  0.00  0.00    -0.775 OA
HETATM   30  H   UNK N   1      30.624  16.297   8.910  0.00  0.00     0.167 HD
ENDBRANCH  27  29
ENDBRANCH  26  27
ENDBRANCH  24  26
ENDBRANCH  21  24
ENDBRANCH   4  21
TORSDOF 8
ENDMDL
MODEL 4
REMARK VINA RESULT:      -7.4     13.810     16.087
REMARK  8 active torsions:
REMARK  status: ('A' for Active; 'I' for Inactive)
REMARK    1  A    between atoms: C_3  and  C_8 
REMARK    2  A    between atoms: C_8  and  C_9 
REMARK       I    between atoms: C_9  and  N_10 
REMARK    3  A    between atoms: N_10  and  C_11 
REMARK    4  A    between atoms: C_15  and  S_20 
REMARK    5  A    between atoms: S_20  and  N_21 
REMARK    6  A    between atoms: N_21  and  C_22 
REMARK    7  A    between atoms: C_22  and  C_23 
REMARK    8  A    between atoms: C_23  and  O_24 
ROOT
HETATM    1  C   UNK N   1      22.944  16.867   5.993  0.00  0.00     0.035 A 
HETATM    2  C   UNK N   1      23.634  15.668   6.173  0.00  0.00     0.038 A 
HETATM    3  C   UNK N   1      23.088  14.658   6.963  0.00  0.00    -0.036 A 
HETATM    4  C   UNK N   1      21.856  14.870   7.622  0.00  0.00     0.091 A 
HETATM    5  C   UNK N   1      21.143  16.066   7.388  0.00  0.00    -0.036 A 
HETATM    6  C   UNK N   1      21.702  17.053   6.588  0.00  0.00     0.038 A 
HETATM    7  C   UNK N   1      19.837  16.361   8.038  0.00  0.00     0.050 C 
HETATM    8  C   UNK N   1      23.875  13.406   7.154  0.00  0.00     0.050 C 
ENDROOT
BRANCH   1   9
HETATM    9  N   UNK N   1      23.627  18.013   5.542  0.00  0.00    -0.327 N 
HETATM   10  C   UNK N   1      23.638  18.286   4.206  0.00  0.00     0.226 C 
HETATM   11  O   UNK N   1      22.986  17.615   3.422  0.00  0.00    -0.273 OA
HETATM   12  H   UNK N   1      24.088  18.606   6.178  0.00  0.00     0.169 HD
BRANCH  10  13
HETATM   13  C   UNK N   1      24.566  19.319   3.671  0.00  0.00     0.142 C 
BRANCH  13  14
HETATM   14  C   UNK N   1      25.971  18.873   3.940  0.00  0.00    -0.043 A 
HETATM   15  C   UNK N   1      26.821  19.644   4.750  0.00  0.00    -0.055 A 
HETATM   16  C   UNK N   1      28.115  19.194   5.026  0.00  0.00     0.007 A 
HETATM   17  C   UNK N   1      26.358  20.935   5.336  0.00  0.00     0.049 C 
HETATM   18  C   UNK N   1      28.567  17.980   4.501  0.00  0.00     0.001 A 
HETATM   19  C   UNK N   1      27.727  17.210   3.693  0.00  0.00     0.001 A 
HETATM   20  C   UNK N   1      26.432  17.655   3.412  0.00  0.00     0.008 A 
ENDBRANCH  13  14
ENDBRANCH  10  13
ENDBRANCH   1   9
BRANCH   4  21
HETATM   21  S   UNK N   1      21.269  13.667   8.829  0.00  0.00     0.260 S 
HETATM   22  O   UNK N   1      21.091  12.252   8.252  0.00  0.00    -0.200 OA
HETATM   23  O   UNK N   1      19.818  14.003   9.211  0.00  0.00    -0.200 OA
BRANCH  21  24
HETATM   24  N   UNK N   1      22.111  13.493  10.378  0.00  0.00    -0.305 N 
HETATM   25  H   UNK N   1      22.209  14.223  11.084  0.00  0.00     0.172 HD
BRANCH  24  26
HETATM   26  C   UNK N   1      22.642  12.138  10.484  0.00  0.00     0.242 C 
BRANCH  26  27
HETATM   27  C   UNK N   1      23.520  12.002  11.686  0.00  0.00     0.158 C 
HETATM   28  O   UNK N   1      23.032  11.718  12.767  0.00  0.00    -0.649 OA
BRANCH  27  29
HETATM   29  O   UNK N   1      24.846  12.204  11.581  0.00  0.00    -0.775 OA
HETATM   30  H   UNK N   1      25.459  11.494  11.581  0.00  0.00     0.167 HD
ENDBRANCH  27  29
ENDBRANCH  26  27
ENDBRANCH  24  26
ENDBRANCH  21  24
ENDBRANCH   4  21
TORSDOF 8
ENDMDL
MODEL 5
REMARK VINA RESULT:      -7.3     18.594     22.986
REMARK  8 active torsions:
REMARK  status: ('A' for Active; 'I' for Inactive)
REMARK    1  A    between atoms: C_3  and  C_8 
REMARK    2  A    between atoms: C_8  and  C_9 
REMARK       I    between atoms: C_9  and  N_10 
REMARK    3  A    between atoms: N_10  and  C_11 
REMARK    4  A    between atoms: C_15  and  S_20 
REMARK    5  A    between atoms: S_20  and  N_21 
REMARK    6  A    between atoms: N_21  and  C_22 
REMARK    7  A    between atoms: C_22  and  C_23 
REMARK    8  A    between atoms: C_23  and  O_24 
ROOT
HETATM    1  C   UNK N   1      35.102  11.913  13.073  0.00  0.00     0.035 A 
HETATM    2  C   UNK N   1      35.400  13.266  13.233  0.00  0.00     0.038 A 
HETATM    3  C   UNK N   1      35.358  14.126  12.137  0.00  0.00    -0.036 A 
HETATM    4  C   UNK N   1      35.061  13.615  10.853  0.00  0.00     0.091 A 
HETATM    5  C   UNK N   1      34.708  12.255  10.715  0.00  0.00    -0.036 A 
HETATM    6  C   UNK N   1      34.746  11.419  11.823  0.00  0.00     0.038 A 
HETATM    7  C   UNK N   1      34.376  11.643   9.398  0.00  0.00     0.050 C 
HETATM    8  C   UNK N   1      35.715  15.558  12.348  0.00  0.00     0.050 C 
ENDROOT
BRANCH   1   9
HETATM    9  N   UNK N   1      35.507  10.980  14.047  0.00  0.00    -0.327 N 
HETATM   10  C   UNK N   1      34.581  10.509  14.929  0.00  0.00     0.226 C 
HETATM   11  O   UNK N   1      33.402  10.804  14.820  0.00  0.00    -0.273 OA
HETATM   12  H   UNK N   1      36.442  10.674  14.091  0.00  0.00     0.169 HD
BRANCH  10  13
HETATM   13  C   UNK N   1      35.024   9.746  16.128  0.00  0.00     0.142 C 
BRANCH  13  14
HETATM   14  C   UNK N   1      35.068  10.687  17.294  0.00  0.00    -0.043 A 
HETATM   15  C   UNK N   1      34.990  10.197  18.608  0.00  0.00    -0.055 A 
HETATM   16  C   UNK N   1      35.074  11.082  19.686  0.00  0.00     0.007 A 
HETATM   17  C   UNK N   1      34.833   8.738  18.874  0.00  0.00     0.049 C 
HETATM   18  C   UNK N   1      35.237  12.453  19.463  0.00  0.00     0.001 A 
HETATM   19  C   UNK N   1      35.313  12.946  18.158  0.00  0.00     0.001 A 
HETATM   20  C   UNK N   1      35.228  12.066  17.075  0.00  0.00     0.008 A 
ENDBRANCH  13  14
ENDBRANCH  10  13
ENDBRANCH   1   9
BRANCH   4  21
HETATM   21  S   UNK N   1      35.241  14.674   9.405  0.00  0.00     0.260 S 
HETATM   22  O   UNK N   1      34.251  14.345   8.274  0.00  0.00    -0.200 OA
HETATM   23  O   UNK N   1      36.578  14.360   8.715  0.00  0.00    -0.200 OA
BRANCH  21  24
HETATM   24  N   UNK N   1      35.240  16.435   9.600  0.00  0.00    -0.305 N 
HETATM   25  H   UNK N   1      35.912  16.970  10.150  0.00  0.00     0.172 HD
BRANCH  24  26
HETATM   26  C   UNK N   1      34.125  16.998   8.846  0.00  0.00     0.242 C 
BRANCH  26  27
HETATM   27  C   UNK N   1      34.584  18.124   7.977  0.00  0.00     0.158 C 
HETATM   28  O   UNK N   1      34.391  18.083   6.774  0.00  0.00    -0.649 OA
BRANCH  27  29
HETATM   29  O   UNK N   1      35.221  19.179   8.519  0.00  0.00    -0.775 OA
HETATM   30  H   UNK N   1      36.018  19.517   8.160  0.00  0.00     0.167 HD
ENDBRANCH  27  29
ENDBRANCH  26  27
ENDBRANCH  24  26
ENDBRANCH  21  24
ENDBRANCH   4  21
TORSDOF 8
ENDMDL
MODEL 6
REMARK VINA RESULT:      -7.3     16.662     21.229
REMARK  8 active torsions:
REMARK  status: ('A' for Active; 'I' for Inactive)
REMARK    1  A    between atoms: C_3  and  C_8 
REMARK    2  A    between atoms: C_8  and  C_9 
REMARK       I    between atoms: C_9  and  N_10 
REMARK    3  A    between atoms: N_10  and  C_11 
REMARK    4  A    between atoms: C_15  and  S_20 
REMARK    5  A    between atoms: S_20  and  N_21 
REMARK    6  A    between atoms: N_21  and  C_22 
REMARK    7  A    between atoms: C_22  and  C_23 
REMARK    8  A    between atoms: C_23  and  O_24 
ROOT
HETATM    1  C   UNK N   1      36.454  14.085  11.279  0.00  0.00     0.035 A 
HETATM    2  C   UNK N   1      35.993  13.002  10.531  0.00  0.00     0.038 A 
HETATM    3  C   UNK N   1      35.139  13.212   9.449  0.00  0.00    -0.036 A 
HETATM    4  C   UNK N   1      34.701  14.520   9.143  0.00  0.00     0.091 A 
HETATM    5  C   UNK N   1      35.218  15.611   9.875  0.00  0.00    -0.036 A 
HETATM    6  C   UNK N   1      36.077  15.379  10.940  0.00  0.00     0.038 A 
HETATM    7  C   UNK N   1      34.812  17.019   9.608  0.00  0.00     0.050 C 
HETATM    8  C   UNK N   1      34.646  12.023   8.697  0.00  0.00     0.050 C 
ENDROOT
BRANCH   1   9
HETATM    9  N   UNK N   1      36.979  13.879  12.570  0.00  0.00    -0.327 N 
HETATM   10  C   UNK N   1      36.115  13.711  13.610  0.00  0.00     0.226 C 
HETATM   11  O   UNK N   1      34.911  13.637  13.422  0.00  0.00    -0.273 OA
HETATM   12  H   UNK N   1      37.952  13.856  12.718  0.00  0.00     0.169 HD
BRANCH  10  13
HETATM   13  C   UNK N   1      36.622  13.767  15.009  0.00  0.00     0.142 C 
BRANCH  13  14
HETATM   14  C   UNK N   1      36.449  12.413  15.626  0.00  0.00    -0.043 A 
HETATM   15  C   UNK N   1      35.611  12.240  16.739  0.00  0.00    -0.055 A 
HETATM   16  C   UNK N   1      35.427  10.963  17.278  0.00  0.00     0.007 A 
HETATM   17  C   UNK N   1      34.897  13.398  17.350  0.00  0.00     0.049 C 
HETATM   18  C   UNK N   1      36.072   9.859  16.714  0.00  0.00     0.001 A 
HETATM   19  C   UNK N   1      36.910  10.027  15.609  0.00  0.00     0.001 A 
HETATM   20  C   UNK N   1      37.099  11.300  15.066  0.00  0.00     0.008 A 
ENDBRANCH  13  14
ENDBRANCH  10  13
ENDBRANCH   1   9
BRANCH   4  21
HETATM   21  S   UNK N   1      33.415  14.766   7.904  0.00  0.00     0.260 S 
HETATM   22  O   UNK N   1      32.288  13.720   7.969  0.00  0.00    -0.200 OA
HETATM   23  O   UNK N   1      33.996  14.473   6.511  0.00  0.00    -0.200 OA
BRANCH  21  24
HETATM   24  N   UNK N   1      32.642  16.352   7.743  0.00  0.00    -0.305 N 
HETATM   25  H   UNK N   1      32.501  17.021   8.500  0.00  0.00     0.172 HD
BRANCH  24  26
HETATM   26  C   UNK N   1      32.241  16.548   6.354  0.00  0.00     0.242 C 
BRANCH  26  27
HETATM   27  C   UNK N   1      33.235  17.397   5.628  0.00  0.00     0.158 C 
HETATM   28  O   UNK N   1      32.986  17.800   4.504  0.00  0.00    -0.649 OA
BRANCH  27  29
HETATM   29  O   UNK N   1      34.409  17.708   6.207  0.00  0.00    -0.775 OA
HETATM   30  H   UNK N   1      35.186  17.858   5.706  0.00  0.00     0.167 HD
ENDBRANCH  27  29
ENDBRANCH  26  27
ENDBRANCH  24  26
ENDBRANCH  21  24
ENDBRANCH   4  21
TORSDOF 8
ENDMDL
MODEL 7
REMARK VINA RESULT:      -7.3     16.558     20.936
REMARK  8 active torsions:
REMARK  status: ('A' for Active; 'I' for Inactive)
REMARK    1  A    between atoms: C_3  and  C_8 
REMARK    2  A    between atoms: C_8  and  C_9 
REMARK       I    between atoms: C_9  and  N_10 
REMARK    3  A    between atoms: N_10  and  C_11 
REMARK    4  A    between atoms: C_15  and  S_20 
REMARK    5  A    between atoms: S_20  and  N_21 
REMARK    6  A    between atoms: N_21  and  C_22 
REMARK    7  A    between atoms: C_22  and  C_23 
REMARK    8  A    between atoms: C_23  and  O_24 
ROOT
HETATM    1  C   UNK N   1      35.430  14.038  11.373  0.00  0.00     0.035 A 
HETATM    2  C   UNK N   1      35.484  15.412  11.142  0.00  0.00     0.038 A 
HETATM    3  C   UNK N   1      34.951  15.946   9.970  0.00  0.00    -0.036 A 
HETATM    4  C   UNK N   1      34.400  15.086   8.993  0.00  0.00     0.091 A 
HETATM    5  C   UNK N   1      34.302  13.704   9.264  0.00  0.00    -0.036 A 
HETATM    6  C   UNK N   1      34.830  13.196  10.443  0.00  0.00     0.038 A 
HETATM    7  C   UNK N   1      33.728  12.735   8.290  0.00  0.00     0.050 C 
HETATM    8  C   UNK N   1      35.058  17.416   9.749  0.00  0.00     0.050 C 
ENDROOT
BRANCH   1   9
HETATM    9  N   UNK N   1      36.282  13.449  12.327  0.00  0.00    -0.327 N 
HETATM   10  C   UNK N   1      35.752  13.035  13.513  0.00  0.00     0.226 C 
HETATM   11  O   UNK N   1      34.549  13.076  13.711  0.00  0.00    -0.273 OA
HETATM   12  H   UNK N   1      37.243  13.338  12.142  0.00  0.00     0.169 HD
BRANCH  10  13
HETATM   13  C   UNK N   1      36.655  12.667  14.637  0.00  0.00     0.142 C 
BRANCH  13  14
HETATM   14  C   UNK N   1      36.553  13.730  15.689  0.00  0.00    -0.043 A 
HETATM   15  C   UNK N   1      35.811  13.504  16.859  0.00  0.00    -0.055 A 
HETATM   16  C   UNK N   1      35.759  14.489  17.850  0.00  0.00     0.007 A 
HETATM   17  C   UNK N   1      35.085  12.219  17.071  0.00  0.00     0.049 C 
HETATM   18  C   UNK N   1      36.444  15.696  17.682  0.00  0.00     0.001 A 
HETATM   19  C   UNK N   1      37.181  15.926  16.518  0.00  0.00     0.001 A 
HETATM   20  C   UNK N   1      37.236  14.947  15.523  0.00  0.00     0.008 A 
ENDBRANCH  13  14
ENDBRANCH  10  13
ENDBRANCH   1   9
BRANCH   4  21
HETATM   21  S   UNK N   1      33.931  15.746   7.382  0.00  0.00     0.260 S 
HETATM   22  O   UNK N   1      33.066  14.783   6.550  0.00  0.00    -0.200 OA
HETATM   23  O   UNK N   1      35.182  15.846   6.495  0.00  0.00    -0.200 OA
BRANCH  21  24
HETATM   24  N   UNK N   1      33.176  17.345   7.274  0.00  0.00    -0.305 N 
HETATM   25  H   UNK N   1      33.675  18.233   7.224  0.00  0.00     0.172 HD
BRANCH  24  26
HETATM   26  C   UNK N   1      31.725  17.189   7.269  0.00  0.00     0.242 C 
BRANCH  26  27
HETATM   27  C   UNK N   1      31.159  17.423   8.632  0.00  0.00     0.158 C 
HETATM   28  O   UNK N   1      30.782  18.538   8.952  0.00  0.00    -0.649 OA
BRANCH  27  29
HETATM   29  O   UNK N   1      31.075  16.408   9.512  0.00  0.00    -0.775 OA
HETATM   30  H   UNK N   1      31.255  15.521   9.267  0.00  0.00     0.167 HD
ENDBRANCH  27  29
ENDBRANCH  26  27
ENDBRANCH  24  26
ENDBRANCH  21  24
ENDBRANCH   4  21
TORSDOF 8
ENDMDL
MODEL 8
REMARK VINA RESULT:      -7.3     16.332     20.928
REMARK  8 active torsions:
REMARK  status: ('A' for Active; 'I' for Inactive)
REMARK    1  A    between atoms: C_3  and  C_8 
REMARK    2  A    between atoms: C_8  and  C_9 
REMARK       I    between atoms: C_9  and  N_10 
REMARK    3  A    between atoms: N_10  and  C_11 
REMARK    4  A    between atoms: C_15  and  S_20 
REMARK    5  A    between atoms: S_20  and  N_21 
REMARK    6  A    between atoms: N_21  and  C_22 
REMARK    7  A    between atoms: C_22  and  C_23 
REMARK    8  A    between atoms: C_23  and  O_24 
ROOT
HETATM    1  C   UNK N   1      35.852  14.787  11.095  0.00  0.00     0.035 A 
HETATM    2  C   UNK N   1      35.417  16.052  10.700  0.00  0.00     0.038 A 
HETATM    3  C   UNK N   1      34.990  16.268   9.391  0.00  0.00    -0.036 A 
HETATM    4  C   UNK N   1      35.045  15.214   8.451  0.00  0.00     0.091 A 
HETATM    5  C   UNK N   1      35.435  13.926   8.878  0.00  0.00    -0.036 A 
HETATM    6  C   UNK N   1      35.846  13.732  10.189  0.00  0.00     0.038 A 
HETATM    7  C   UNK N   1      35.512  12.764   7.950  0.00  0.00     0.050 C 
HETATM    8  C   UNK N   1      34.564  17.643   9.004  0.00  0.00     0.050 C 
ENDROOT
BRANCH   1   9
HETATM    9  N   UNK N   1      36.634  14.640  12.257  0.00  0.00    -0.327 N 
HETATM   10  C   UNK N   1      36.044  14.162  13.389  0.00  0.00     0.226 C 
HETATM   11  O   UNK N   1      34.888  13.770  13.377  0.00  0.00    -0.273 OA
HETATM   12  H   UNK N   1      37.590  14.878  12.252  0.00  0.00     0.169 HD
BRANCH  10  13
HETATM   13  C   UNK N   1      36.760  14.253  14.690  0.00  0.00     0.142 C 
BRANCH  13  14
HETATM   14  C   UNK N   1      36.333  13.097  15.543  0.00  0.00    -0.043 A 
HETATM   15  C   UNK N   1      36.842  11.810  15.304  0.00  0.00    -0.055 A 
HETATM   16  C   UNK N   1      36.467  10.750  16.133  0.00  0.00     0.007 A 
HETATM   17  C   UNK N   1      37.792  11.558  14.183  0.00  0.00     0.049 C 
HETATM   18  C   UNK N   1      35.590  10.964  17.201  0.00  0.00     0.001 A 
HETATM   19  C   UNK N   1      35.079  12.242  17.441  0.00  0.00     0.001 A 
HETATM   20  C   UNK N   1      35.449  13.306  16.615  0.00  0.00     0.008 A 
ENDBRANCH  13  14
ENDBRANCH  10  13
ENDBRANCH   1   9
BRANCH   4  21
HETATM   21  S   UNK N   1      34.722  15.552   6.709  0.00  0.00     0.260 S 
HETATM   22  O   UNK N   1      35.896  15.189   5.784  0.00  0.00    -0.200 OA
HETATM   23  O   UNK N   1      34.650  17.072   6.496  0.00  0.00    -0.200 OA
BRANCH  21  24
HETATM   24  N   UNK N   1      33.250  14.922   5.951  0.00  0.00    -0.305 N 
HETATM   25  H   UNK N   1      33.139  14.711   4.959  0.00  0.00     0.172 HD
BRANCH  24  26
HETATM   26  C   UNK N   1      32.222  14.752   6.973  0.00  0.00     0.242 C 
BRANCH  26  27
HETATM   27  C   UNK N   1      31.636  16.071   7.363  0.00  0.00     0.158 C 
HETATM   28  O   UNK N   1      31.295  16.269   8.517  0.00  0.00    -0.649 OA
BRANCH  27  29
HETATM   29  O   UNK N   1      31.474  17.037   6.440  0.00  0.00    -0.775 OA
HETATM   30  H   UNK N   1      31.120  17.877   6.657  0.00  0.00     0.167 HD
ENDBRANCH  27  29
ENDBRANCH  26  27
ENDBRANCH  24  26
ENDBRANCH  21  24
ENDBRANCH   4  21
TORSDOF 8
ENDMDL
MODEL 9
REMARK VINA RESULT:      -7.2     10.569     14.311
REMARK  8 active torsions:
REMARK  status: ('A' for Active; 'I' for Inactive)
REMARK    1  A    between atoms: C_3  and  C_8 
REMARK    2  A    between atoms: C_8  and  C_9 
REMARK       I    between atoms: C_9  and  N_10 
REMARK    3  A    between atoms: N_10  and  C_11 
REMARK    4  A    between atoms: C_15  and  S_20 
REMARK    5  A    between atoms: S_20  and  N_21 
REMARK    6  A    between atoms: N_21  and  C_22 
REMARK    7  A    between atoms: C_22  and  C_23 
REMARK    8  A    between atoms: C_23  and  O_24 
ROOT
HETATM    1  C   UNK N   1      26.072  17.639   4.587  0.00  0.00     0.035 A 
HETATM    2  C   UNK N   1      25.729  18.787   3.873  0.00  0.00     0.038 A 
HETATM    3  C   UNK N   1      24.392  19.166   3.757  0.00  0.00    -0.036 A 
HETATM    4  C   UNK N   1      23.381  18.357   4.323  0.00  0.00     0.091 A 
HETATM    5  C   UNK N   1      23.746  17.228   5.089  0.00  0.00    -0.036 A 
HETATM    6  C   UNK N   1      25.084  16.876   5.200  0.00  0.00     0.038 A 
HETATM    7  C   UNK N   1      22.740  16.331   5.723  0.00  0.00     0.050 C 
HETATM    8  C   UNK N   1      24.069  20.382   2.958  0.00  0.00     0.050 C 
ENDROOT
BRANCH   1   9
HETATM    9  N   UNK N   1      27.330  17.036   4.392  0.00  0.00    -0.327 N 
HETATM   10  C   UNK N   1      28.446  17.701   4.805  0.00  0.00     0.226 C 
HETATM   11  O   UNK N   1      28.360  18.750   5.423  0.00  0.00    -0.273 OA
HETATM   12  H   UNK N   1      27.403  16.152   3.967  0.00  0.00     0.169 HD
BRANCH  10  13
HETATM   13  C   UNK N   1      29.790  17.228   4.373  0.00  0.00     0.142 C 
BRANCH  13  14
HETATM   14  C   UNK N   1      30.669  17.142   5.583  0.00  0.00    -0.043 A 
HETATM   15  C   UNK N   1      32.053  17.355   5.474  0.00  0.00    -0.055 A 
HETATM   16  C   UNK N   1      32.854  17.312   6.619  0.00  0.00     0.007 A 
HETATM   17  C   UNK N   1      32.683  17.643   4.154  0.00  0.00     0.049 C 
HETATM   18  C   UNK N   1      32.285  17.060   7.871  0.00  0.00     0.001 A 
HETATM   19  C   UNK N   1      30.910  16.844   7.984  0.00  0.00     0.001 A 
HETATM   20  C   UNK N   1      30.103  16.884   6.844  0.00  0.00     0.008 A 
ENDBRANCH  13  14
ENDBRANCH  10  13
ENDBRANCH   1   9
BRANCH   4  21
HETATM   21  S   UNK N   1      21.649  18.713   3.971  0.00  0.00     0.260 S 
HETATM   22  O   UNK N   1      21.023  19.736   4.934  0.00  0.00    -0.200 OA
HETATM   23  O   UNK N   1      20.805  17.468   4.288  0.00  0.00    -0.200 OA
BRANCH  21  24
HETATM   24  N   UNK N   1      21.164  19.179   2.332  0.00  0.00    -0.305 N 
HETATM   25  H   UNK N   1      21.238  18.590   1.503  0.00  0.00     0.172 HD
BRANCH  24  26
HETATM   26  C   UNK N   1      20.641  20.541   2.358  0.00  0.00     0.242 C 
BRANCH  26  27
HETATM   27  C   UNK N   1      20.746  21.178   1.009  0.00  0.00     0.158 C 
HETATM   28  O   UNK N   1      21.158  20.531   0.061  0.00  0.00    -0.649 OA
BRANCH  27  29
HETATM   29  O   UNK N   1      20.395  22.466   0.841  0.00  0.00    -0.775 OA
HETATM   30  H   UNK N   1      20.951  23.172   1.111  0.00  0.00     0.167 HD
ENDBRANCH  27  29
ENDBRANCH  26  27
ENDBRANCH  24  26
ENDBRANCH  21  24
ENDBRANCH   4  21
TORSDOF 8
ENDMDL
