MODEL 1
REMARK VINA RESULT:      -8.2      0.000      0.000
REMARK  7 active torsions:
REMARK  status: ('A' for Active; 'I' for Inactive)
REMARK    1  A    between atoms: C_3  and  O_12 
REMARK    2  A    between atoms: C_6  and  C_9 
REMARK       I    between atoms: C_9  and  N_29 
REMARK    3  A    between atoms: C_10  and  C_14 
REMARK    4  A    between atoms: O_12  and  C_15 
REMARK    5  A    between atoms: C_14  and  N_29 
REMARK    6  A    between atoms: C_15  and  C_26 
REMARK    7  A    between atoms: C_26  and  O_27 
ROOT
HETATM    1  C   UNK N   1      34.295  18.005   8.377  0.00  0.00     0.254 C 
HETATM    2  O   UNK N   1      34.861  19.089   8.348  0.00  0.00    -0.268 OA
HETATM    3  N   UNK N   1      34.603  17.151   9.386  0.00  0.00    -0.351 N 
HETATM    4  H   UNK N   1      35.145  17.491  10.135  0.00  0.00     0.163 HD
ENDROOT
BRANCH   3   5
HETATM    5  C   UNK N   1      34.178  15.777   9.420  0.00  0.00     0.187 C 
BRANCH   5   6
HETATM    6  C   UNK N   1      34.723  15.082  10.606  0.00  0.00     0.070 A 
HETATM    7  N   UNK N   1      34.458  13.787  10.930  0.00  0.00    -0.349 N 
HETATM    8  C   UNK N   1      35.037  13.444  12.131  0.00  0.00     0.095 A 
ATOM      9  HN  UNK N   1      33.901  13.152  10.357  1.00  0.00     0.166 HD
HETATM   10  C   UNK N   1      35.754  14.462  12.760  0.00  0.00     0.075 A 
HETATM   11  C   UNK N   1      34.935  12.188  12.729  0.00  0.00     0.182 A 
HETATM   12  S   UNK N   1      35.652  15.786  11.787  0.00  0.00    -0.070 SA
HETATM   13  C   UNK N   1      36.384  14.281  13.983  0.00  0.00     0.139 A 
HETATM   14  F   UNK N   1      37.065  15.292  14.575  0.00  0.00    -0.204 F 
HETATM   15  C   UNK N   1      36.284  13.022  14.596  0.00  0.00     0.089 A 
HETATM   16  C   UNK N   1      35.564  11.979  13.974  0.00  0.00     0.160 A 
HETATM   17  F   UNK N   1      35.475  10.772  14.581  0.00  0.00    -0.203 F 
HETATM   18  F   UNK N   1      34.238  11.191  12.131  0.00  0.00    -0.200 F 
ENDBRANCH   5   6
ENDBRANCH   3   5
BRANCH   1  19
HETATM   19  C   UNK N   1      33.330  17.658   7.281  0.00  0.00     0.065 A 
HETATM   20  C   UNK N   1      33.788  17.409   5.976  0.00  0.00     0.023 A 
HETATM   21  C   UNK N   1      32.898  17.067   4.956  0.00  0.00     0.043 A 
HETATM   22  C   UNK N   1      31.532  16.979   5.225  0.00  0.00     0.119 A 
HETATM   23  C   UNK N   1      31.054  17.241   6.512  0.00  0.00     0.080 A 
HETATM   24  F   UNK N   1      30.671  16.650   4.233  0.00  0.00    -0.206 F 
HETATM   25  C   UNK N   1      31.946  17.576   7.546  0.00  0.00     0.088 A 
BRANCH  25  26
HETATM   26  O   UNK N   1      31.502  17.878   8.788  0.00  0.00    -0.340 OA
BRANCH  26  27
HETATM   27  C   UNK N   1      30.421  18.680   9.070  0.00  0.00     0.285 C 
BRANCH  27  28
HETATM   28  C   UNK N   1      29.341  17.854   9.708  0.00  0.00     0.164 C 
HETATM   29  O   UNK N   1      28.171  18.005   9.388  0.00  0.00    -0.648 OA
BRANCH  28  30
HETATM   30  O   UNK N   1      29.664  16.931  10.631  0.00  0.00    -0.775 OA
HETATM   31  H   UNK N   1      30.109  17.180  11.416  0.00  0.00     0.167 HD
ENDBRANCH  28  30
ENDBRANCH  27  28
ENDBRANCH  26  27
ENDBRANCH  25  26
ENDBRANCH   1  19
TORSDOF 7
ENDMDL
MODEL 2
REMARK VINA RESULT:      -8.1      5.754     10.165
REMARK  7 active torsions:
REMARK  status: ('A' for Active; 'I' for Inactive)
REMARK    1  A    between atoms: C_3  and  O_12 
REMARK    2  A    between atoms: C_6  and  C_9 
REMARK       I    between atoms: C_9  and  N_29 
REMARK    3  A    between atoms: C_10  and  C_14 
REMARK    4  A    between atoms: O_12  and  C_15 
REMARK    5  A    between atoms: C_14  and  N_29 
REMARK    6  A    between atoms: C_15  and  C_26 
REMARK    7  A    between atoms: C_26  and  O_27 
ROOT
HETATM    1  C   UNK N   1      30.796  15.607   6.088  0.00  0.00     0.254 C 
HETATM    2  O   UNK N   1      30.883  14.395   6.226  0.00  0.00    -0.268 OA
HETATM    3  N   UNK N   1      29.750  16.094   5.372  0.00  0.00    -0.351 N 
HETATM    4  H   UNK N   1      29.025  15.474   5.126  0.00  0.00     0.163 HD
ENDROOT
BRANCH   3   5
HETATM    5  C   UNK N   1      29.646  17.467   4.955  0.00  0.00     0.187 C 
BRANCH   5   6
HETATM    6  C   UNK N   1      28.240  17.830   4.675  0.00  0.00     0.070 A 
HETATM    7  N   UNK N   1      27.854  18.919   3.956  0.00  0.00    -0.349 N 
HETATM    8  C   UNK N   1      26.482  19.044   3.934  0.00  0.00     0.095 A 
ATOM      9  HN  UNK N   1      28.497  19.561   3.492  1.00  0.00     0.166 HD
HETATM   10  C   UNK N   1      25.784  18.062   4.638  0.00  0.00     0.075 A 
HETATM   11  C   UNK N   1      25.790  20.065   3.285  0.00  0.00     0.182 A 
HETATM   12  S   UNK N   1      26.908  17.043   5.275  0.00  0.00    -0.070 SA
HETATM   13  C   UNK N   1      24.399  18.055   4.725  0.00  0.00     0.139 A 
HETATM   14  F   UNK N   1      23.747  17.094   5.424  0.00  0.00    -0.204 F 
HETATM   15  C   UNK N   1      23.692  19.080   4.078  0.00  0.00     0.089 A 
HETATM   16  C   UNK N   1      24.382  20.082   3.360  0.00  0.00     0.160 A 
HETATM   17  F   UNK N   1      23.685  21.066   2.745  0.00  0.00    -0.203 F 
HETATM   18  F   UNK N   1      26.457  21.027   2.601  0.00  0.00    -0.200 F 
ENDBRANCH   5   6
ENDBRANCH   3   5
BRANCH   1  19
HETATM   19  C   UNK N   1      31.862  16.486   6.675  0.00  0.00     0.065 A 
HETATM   20  C   UNK N   1      33.142  16.541   6.099  0.00  0.00     0.023 A 
HETATM   21  C   UNK N   1      34.132  17.370   6.628  0.00  0.00     0.043 A 
HETATM   22  C   UNK N   1      33.859  18.152   7.750  0.00  0.00     0.119 A 
HETATM   23  C   UNK N   1      32.598  18.098   8.349  0.00  0.00     0.080 A 
HETATM   24  F   UNK N   1      34.823  18.953   8.263  0.00  0.00    -0.206 F 
HETATM   25  C   UNK N   1      31.592  17.273   7.816  0.00  0.00     0.088 A 
BRANCH  25  26
HETATM   26  O   UNK N   1      30.379  17.170   8.406  0.00  0.00    -0.340 OA
BRANCH  26  27
HETATM   27  C   UNK N   1      29.838  18.092   9.271  0.00  0.00     0.285 C 
BRANCH  27  28
HETATM   28  C   UNK N   1      28.464  18.472   8.798  0.00  0.00     0.164 C 
HETATM   29  O   UNK N   1      28.319  19.238   7.856  0.00  0.00    -0.648 OA
BRANCH  28  30
HETATM   30  O   UNK N   1      27.382  17.955   9.405  0.00  0.00    -0.775 OA
HETATM   31  H   UNK N   1      27.470  17.477  10.206  0.00  0.00     0.167 HD
ENDBRANCH  28  30
ENDBRANCH  27  28
ENDBRANCH  26  27
ENDBRANCH  25  26
ENDBRANCH   1  19
TORSDOF 7
ENDMDL
MODEL 3
REMARK VINA RESULT:      -7.8      1.276      2.161
REMARK  7 active torsions:
REMARK  status: ('A' for Active; 'I' for Inactive)
REMARK    1  A    between atoms: C_3  and  O_12 
REMARK    2  A    between atoms: C_6  and  C_9 
REMARK       I    between atoms: C_9  and  N_29 
REMARK    3  A    between atoms: C_10  and  C_14 
REMARK    4  A    between atoms: O_12  and  C_15 
REMARK    5  A    between atoms: C_14  and  N_29 
REMARK    6  A    between atoms: C_15  and  C_26 
REMARK    7  A    between atoms: C_26  and  O_27 
ROOT
HETATM    1  C   UNK N   1      33.913  17.814   8.308  0.00  0.00     0.254 C 
HETATM    2  O   UNK N   1      34.558  18.849   8.401  0.00  0.00    -0.268 OA
HETATM    3  N   UNK N   1      34.013  16.907   9.313  0.00  0.00    -0.351 N 
HETATM    4  H   UNK N   1      34.470  17.179  10.142  0.00  0.00     0.163 HD
ENDROOT
BRANCH   3   5
HETATM    5  C   UNK N   1      33.485  15.571   9.232  0.00  0.00     0.187 C 
BRANCH   5   6
HETATM    6  C   UNK N   1      34.167  14.673  10.188  0.00  0.00     0.070 A 
HETATM    7  N   UNK N   1      34.791  15.089  11.324  0.00  0.00    -0.349 N 
HETATM    8  C   UNK N   1      35.407  14.039  11.969  0.00  0.00     0.095 A 
ATOM      9  HN  UNK N   1      34.802  16.054  11.656  1.00  0.00     0.166 HD
HETATM   10  C   UNK N   1      35.276  12.798  11.345  0.00  0.00     0.075 A 
HETATM   11  C   UNK N   1      36.133  14.153  13.154  0.00  0.00     0.182 A 
HETATM   12  S   UNK N   1      34.379  13.039   9.987  0.00  0.00    -0.070 SA
HETATM   13  C   UNK N   1      35.851  11.644  11.860  0.00  0.00     0.139 A 
HETATM   14  F   UNK N   1      35.716  10.453  11.227  0.00  0.00    -0.204 F 
HETATM   15  C   UNK N   1      36.587  11.748  13.050  0.00  0.00     0.089 A 
HETATM   16  C   UNK N   1      36.729  12.996  13.696  0.00  0.00     0.160 A 
HETATM   17  F   UNK N   1      37.446  13.080  14.842  0.00  0.00    -0.203 F 
HETATM   18  F   UNK N   1      36.271  15.355  13.768  0.00  0.00    -0.200 F 
ENDBRANCH   5   6
ENDBRANCH   3   5
BRANCH   1  19
HETATM   19  C   UNK N   1      33.086  17.579   7.078  0.00  0.00     0.065 A 
HETATM   20  C   UNK N   1      33.697  17.436   5.820  0.00  0.00     0.023 A 
HETATM   21  C   UNK N   1      32.934  17.198   4.675  0.00  0.00     0.043 A 
HETATM   22  C   UNK N   1      31.546  17.111   4.769  0.00  0.00     0.119 A 
HETATM   23  C   UNK N   1      30.918  17.269   6.007  0.00  0.00     0.080 A 
HETATM   24  F   UNK N   1      30.809  16.883   3.656  0.00  0.00    -0.206 F 
HETATM   25  C   UNK N   1      31.679  17.498   7.166  0.00  0.00     0.088 A 
BRANCH  25  26
HETATM   26  O   UNK N   1      31.090  17.699   8.368  0.00  0.00    -0.340 OA
BRANCH  26  27
HETATM   27  C   UNK N   1      29.901  17.139   8.771  0.00  0.00     0.285 C 
BRANCH  27  28
HETATM   28  C   UNK N   1      29.102  18.159   9.529  0.00  0.00     0.164 C 
HETATM   29  O   UNK N   1      29.657  18.971  10.255  0.00  0.00    -0.648 OA
BRANCH  28  30
HETATM   30  O   UNK N   1      27.764  18.190   9.401  0.00  0.00    -0.775 OA
HETATM   31  H   UNK N   1      27.275  18.931   9.700  0.00  0.00     0.167 HD
ENDBRANCH  28  30
ENDBRANCH  27  28
ENDBRANCH  26  27
ENDBRANCH  25  26
ENDBRANCH   1  19
TORSDOF 7
ENDMDL
MODEL 4
REMARK VINA RESULT:      -7.7      3.682      5.847
REMARK  7 active torsions:
REMARK  status: ('A' for Active; 'I' for Inactive)
REMARK    1  A    between atoms: C_3  and  O_12 
REMARK    2  A    between atoms: C_6  and  C_9 
REMARK       I    between atoms: C_9  and  N_29 
REMARK    3  A    between atoms: C_10  and  C_14 
REMARK    4  A    between atoms: O_12  and  C_15 
REMARK    5  A    between atoms: C_14  and  N_29 
REMARK    6  A    between atoms: C_15  and  C_26 
REMARK    7  A    between atoms: C_26  and  O_27 
ROOT
HETATM    1  C   UNK N   1      28.617  16.833   4.857  0.00  0.00     0.254 C 
HETATM    2  O   UNK N   1      27.779  15.946   4.773  0.00  0.00    -0.268 OA
HETATM    3  N   UNK N   1      29.920  16.497   4.677  0.00  0.00    -0.351 N 
HETATM    4  H   UNK N   1      30.127  15.597   4.335  0.00  0.00     0.163 HD
ENDROOT
BRANCH   3   5
HETATM    5  C   UNK N   1      31.014  17.389   4.958  0.00  0.00     0.187 C 
BRANCH   5   6
HETATM    6  C   UNK N   1      31.735  16.973   6.181  0.00  0.00     0.070 A 
HETATM    7  N   UNK N   1      32.706  17.708   6.790  0.00  0.00    -0.349 N 
HETATM    8  C   UNK N   1      33.252  17.028   7.856  0.00  0.00     0.095 A 
ATOM      9  HN  UNK N   1      32.992  18.642   6.495  1.00  0.00     0.166 HD
HETATM   10  C   UNK N   1      32.722  15.759   8.088  0.00  0.00     0.075 A 
HETATM   11  C   UNK N   1      34.273  17.520   8.669  0.00  0.00     0.182 A 
HETATM   12  S   UNK N   1      31.564  15.511   6.945  0.00  0.00    -0.070 SA
HETATM   13  C   UNK N   1      33.176  14.941   9.113  0.00  0.00     0.139 A 
HETATM   14  F   UNK N   1      32.649  13.708   9.309  0.00  0.00    -0.204 F 
HETATM   15  C   UNK N   1      34.205  15.424   9.936  0.00  0.00     0.089 A 
HETATM   16  C   UNK N   1      34.752  16.707   9.717  0.00  0.00     0.160 A 
HETATM   17  F   UNK N   1      35.748  17.156  10.518  0.00  0.00    -0.203 F 
HETATM   18  F   UNK N   1      34.799  18.751   8.452  0.00  0.00    -0.200 F 
ENDBRANCH   5   6
ENDBRANCH   3   5
BRANCH   1  19
HETATM   19  C   UNK N   1      28.172  18.226   5.195  0.00  0.00     0.065 A 
HETATM   20  C   UNK N   1      27.807  19.127   4.180  0.00  0.00     0.023 A 
HETATM   21  C   UNK N   1      27.375  20.418   4.488  0.00  0.00     0.043 A 
HETATM   22  C   UNK N   1      27.311  20.832   5.818  0.00  0.00     0.119 A 
HETATM   23  C   UNK N   1      27.687  19.957   6.841  0.00  0.00     0.080 A 
HETATM   24  F   UNK N   1      26.894  22.086   6.114  0.00  0.00    -0.206 F 
HETATM   25  C   UNK N   1      28.114  18.652   6.539  0.00  0.00     0.088 A 
BRANCH  25  26
HETATM   26  O   UNK N   1      28.527  17.804   7.510  0.00  0.00    -0.340 OA
BRANCH  26  27
HETATM   27  C   UNK N   1      28.212  17.913   8.844  0.00  0.00     0.285 C 
BRANCH  27  28
HETATM   28  C   UNK N   1      29.422  17.580   9.669  0.00  0.00     0.164 C 
HETATM   29  O   UNK N   1      29.361  16.738  10.552  0.00  0.00    -0.648 OA
BRANCH  28  30
HETATM   30  O   UNK N   1      30.588  18.205   9.426  0.00  0.00    -0.775 OA
HETATM   31  H   UNK N   1      31.162  17.894   8.754  0.00  0.00     0.167 HD
ENDBRANCH  28  30
ENDBRANCH  27  28
ENDBRANCH  26  27
ENDBRANCH  25  26
ENDBRANCH   1  19
TORSDOF 7
ENDMDL
MODEL 5
REMARK VINA RESULT:      -7.7      4.887      8.744
REMARK  7 active torsions:
REMARK  status: ('A' for Active; 'I' for Inactive)
REMARK    1  A    between atoms: C_3  and  O_12 
REMARK    2  A    between atoms: C_6  and  C_9 
REMARK       I    between atoms: C_9  and  N_29 
REMARK    3  A    between atoms: C_10  and  C_14 
REMARK    4  A    between atoms: O_12  and  C_15 
REMARK    5  A    between atoms: C_14  and  N_29 
REMARK    6  A    between atoms: C_15  and  C_26 
REMARK    7  A    between atoms: C_26  and  O_27 
ROOT
HETATM    1  C   UNK N   1      32.932  17.943   8.109  0.00  0.00     0.254 C 
HETATM    2  O   UNK N   1      33.813  18.607   8.635  0.00  0.00    -0.268 OA
HETATM    3  N   UNK N   1      31.686  17.998   8.643  0.00  0.00    -0.351 N 
HETATM    4  H   UNK N   1      31.502  18.682   9.327  0.00  0.00     0.163 HD
ENDROOT
BRANCH   3   5
HETATM    5  C   UNK N   1      30.619  17.112   8.259  0.00  0.00     0.187 C 
BRANCH   5   6
HETATM    6  C   UNK N   1      29.549  17.847   7.551  0.00  0.00     0.070 A 
HETATM    7  N   UNK N   1      29.274  17.716   6.224  0.00  0.00    -0.349 N 
HETATM    8  C   UNK N   1      28.282  18.588   5.831  0.00  0.00     0.095 A 
ATOM      9  HN  UNK N   1      29.742  17.059   5.600  1.00  0.00     0.166 HD
HETATM   10  C   UNK N   1      27.776  19.408   6.840  0.00  0.00     0.075 A 
HETATM   11  C   UNK N   1      27.790  18.694   4.531  0.00  0.00     0.182 A 
HETATM   12  S   UNK N   1      28.585  19.020   8.220  0.00  0.00    -0.070 SA
HETATM   13  C   UNK N   1      26.784  20.350   6.604  0.00  0.00     0.139 A 
HETATM   14  F   UNK N   1      26.319  21.140   7.601  0.00  0.00    -0.204 F 
HETATM   15  C   UNK N   1      26.285  20.468   5.297  0.00  0.00     0.089 A 
HETATM   16  C   UNK N   1      26.784  19.645   4.264  0.00  0.00     0.160 A 
HETATM   17  F   UNK N   1      26.293  19.775   3.009  0.00  0.00    -0.203 F 
HETATM   18  F   UNK N   1      28.276  17.905   3.541  0.00  0.00    -0.200 F 
ENDBRANCH   5   6
ENDBRANCH   3   5
BRANCH   1  19
HETATM   19  C   UNK N   1      33.279  17.072   6.936  0.00  0.00     0.065 A 
HETATM   20  C   UNK N   1      33.014  17.500   5.624  0.00  0.00     0.023 A 
HETATM   21  C   UNK N   1      33.351  16.704   4.528  0.00  0.00     0.043 A 
HETATM   22  C   UNK N   1      33.951  15.461   4.729  0.00  0.00     0.119 A 
HETATM   23  C   UNK N   1      34.206  15.009   6.026  0.00  0.00     0.080 A 
HETATM   24  F   UNK N   1      34.274  14.689   3.663  0.00  0.00    -0.206 F 
HETATM   25  C   UNK N   1      33.879  15.810   7.134  0.00  0.00     0.088 A 
BRANCH  25  26
HETATM   26  O   UNK N   1      34.075  15.374   8.400  0.00  0.00    -0.340 OA
BRANCH  26  27
HETATM   27  C   UNK N   1      35.296  15.277   9.025  0.00  0.00     0.285 C 
BRANCH  27  28
HETATM   28  C   UNK N   1      35.249  16.022  10.328  0.00  0.00     0.164 C 
HETATM   29  O   UNK N   1      34.878  15.465  11.351  0.00  0.00    -0.648 OA
BRANCH  28  30
HETATM   30  O   UNK N   1      35.630  17.311  10.374  0.00  0.00    -0.775 OA
HETATM   31  H   UNK N   1      35.822  17.720  11.195  0.00  0.00     0.167 HD
ENDBRANCH  28  30
ENDBRANCH  27  28
ENDBRANCH  26  27
ENDBRANCH  25  26
ENDBRANCH   1  19
TORSDOF 7
ENDMDL
MODEL 6
REMARK VINA RESULT:      -7.6     11.015     13.801
REMARK  7 active torsions:
REMARK  status: ('A' for Active; 'I' for Inactive)
REMARK    1  A    between atoms: C_3  and  O_12 
REMARK    2  A    between atoms: C_6  and  C_9 
REMARK       I    between atoms: C_9  and  N_29 
REMARK    3  A    between atoms: C_10  and  C_14 
REMARK    4  A    between atoms: O_12  and  C_15 
REMARK    5  A    between atoms: C_14  and  N_29 
REMARK    6  A    between atoms: C_15  and  C_26 
REMARK    7  A    between atoms: C_26  and  O_27 
ROOT
HETATM    1  C   UNK N   1      21.304  13.343   6.516  0.00  0.00     0.254 C 
HETATM    2  O   UNK N   1      20.637  12.591   5.820  0.00  0.00    -0.268 OA
HETATM    3  N   UNK N   1      21.732  14.508   5.968  0.00  0.00    -0.351 N 
HETATM    4  H   UNK N   1      21.364  14.775   5.094  0.00  0.00     0.163 HD
ENDROOT
BRANCH   3   5
HETATM    5  C   UNK N   1      22.695  15.374   6.597  0.00  0.00     0.187 C 
BRANCH   5   6
HETATM    6  C   UNK N   1      23.040  16.511   5.715  0.00  0.00     0.070 A 
HETATM    7  N   UNK N   1      24.295  17.016   5.567  0.00  0.00    -0.349 N 
HETATM    8  C   UNK N   1      24.293  18.124   4.747  0.00  0.00     0.095 A 
ATOM      9  HN  UNK N   1      25.129  16.626   6.005  1.00  0.00     0.166 HD
HETATM   10  C   UNK N   1      23.043  18.497   4.253  0.00  0.00     0.075 A 
HETATM   11  C   UNK N   1      25.427  18.863   4.414  0.00  0.00     0.182 A 
HETATM   12  S   UNK N   1      21.953  17.421   4.853  0.00  0.00    -0.070 SA
HETATM   13  C   UNK N   1      22.871  19.599   3.427  0.00  0.00     0.139 A 
HETATM   14  F   UNK N   1      21.643  19.945   2.970  0.00  0.00    -0.204 F 
HETATM   15  C   UNK N   1      24.005  20.353   3.088  0.00  0.00     0.089 A 
HETATM   16  C   UNK N   1      25.278  19.989   3.578  0.00  0.00     0.160 A 
HETATM   17  F   UNK N   1      26.362  20.730   3.244  0.00  0.00    -0.203 F 
HETATM   18  F   UNK N   1      26.648  18.512   4.890  0.00  0.00    -0.200 F 
ENDBRANCH   5   6
ENDBRANCH   3   5
BRANCH   1  19
HETATM   19  C   UNK N   1      21.651  12.924   7.915  0.00  0.00     0.065 A 
HETATM   20  C   UNK N   1      22.693  12.011   8.152  0.00  0.00     0.023 A 
HETATM   21  C   UNK N   1      23.033  11.632   9.452  0.00  0.00     0.043 A 
HETATM   22  C   UNK N   1      22.328  12.154  10.536  0.00  0.00     0.119 A 
HETATM   23  C   UNK N   1      21.277  13.048  10.321  0.00  0.00     0.080 A 
HETATM   24  F   UNK N   1      22.659  11.782  11.796  0.00  0.00    -0.206 F 
HETATM   25  C   UNK N   1      20.935  13.443   9.016  0.00  0.00     0.088 A 
BRANCH  25  26
HETATM   26  O   UNK N   1      19.892  14.272   8.781  0.00  0.00    -0.340 OA
BRANCH  26  27
HETATM   27  C   UNK N   1      19.799  15.572   9.219  0.00  0.00     0.285 C 
BRANCH  27  28
HETATM   28  C   UNK N   1      19.685  16.489   8.035  0.00  0.00     0.164 C 
HETATM   29  O   UNK N   1      19.080  16.138   7.032  0.00  0.00    -0.648 OA
BRANCH  28  30
HETATM   30  O   UNK N   1      20.242  17.712   8.081  0.00  0.00    -0.775 OA
HETATM   31  H   UNK N   1      21.147  17.829   7.872  0.00  0.00     0.167 HD
ENDBRANCH  28  30
ENDBRANCH  27  28
ENDBRANCH  26  27
ENDBRANCH  25  26
ENDBRANCH   1  19
TORSDOF 7
ENDMDL
MODEL 7
REMARK VINA RESULT:      -7.5     10.536     12.342
REMARK  7 active torsions:
REMARK  status: ('A' for Active; 'I' for Inactive)
REMARK    1  A    between atoms: C_3  and  O_12 
REMARK    2  A    between atoms: C_6  and  C_9 
REMARK       I    between atoms: C_9  and  N_29 
REMARK    3  A    between atoms: C_10  and  C_14 
REMARK    4  A    between atoms: O_12  and  C_15 
REMARK    5  A    between atoms: C_14  and  N_29 
REMARK    6  A    between atoms: C_15  and  C_26 
REMARK    7  A    between atoms: C_26  and  O_27 
ROOT
HETATM    1  C   UNK N   1      21.349  17.335   6.532  0.00  0.00     0.254 C 
HETATM    2  O   UNK N   1      21.485  18.504   6.865  0.00  0.00    -0.268 OA
HETATM    3  N   UNK N   1      20.417  16.591   7.181  0.00  0.00    -0.351 N 
HETATM    4  H   UNK N   1      19.786  17.054   7.779  0.00  0.00     0.163 HD
ENDROOT
BRANCH   3   5
HETATM    5  C   UNK N   1      20.302  15.164   7.040  0.00  0.00     0.187 C 
BRANCH   5   6
HETATM    6  C   UNK N   1      21.006  14.465   8.136  0.00  0.00     0.070 A 
HETATM    7  N   UNK N   1      22.335  14.170   8.134  0.00  0.00    -0.349 N 
HETATM    8  C   UNK N   1      22.688  13.443   9.249  0.00  0.00     0.095 A 
ATOM      9  HN  UNK N   1      22.987  14.452   7.401  1.00  0.00     0.166 HD
HETATM   10  C   UNK N   1      21.643  13.157  10.129  0.00  0.00     0.075 A 
HETATM   11  C   UNK N   1      23.977  12.987   9.522  0.00  0.00     0.182 A 
HETATM   12  S   UNK N   1      20.285  13.832   9.490  0.00  0.00    -0.070 SA
HETATM   13  C   UNK N   1      21.831  12.420  11.290  0.00  0.00     0.139 A 
HETATM   14  F   UNK N   1      20.796  12.149  12.121  0.00  0.00    -0.204 F 
HETATM   15  C   UNK N   1      23.124  11.953  11.573  0.00  0.00     0.089 A 
HETATM   16  C   UNK N   1      24.194  12.234  10.694  0.00  0.00     0.160 A 
HETATM   17  F   UNK N   1      25.434  11.773  10.981  0.00  0.00    -0.203 F 
HETATM   18  F   UNK N   1      25.000  13.255   8.673  0.00  0.00    -0.200 F 
ENDBRANCH   5   6
ENDBRANCH   3   5
BRANCH   1  19
HETATM   19  C   UNK N   1      22.239  16.774   5.462  0.00  0.00     0.065 A 
HETATM   20  C   UNK N   1      23.580  16.456   5.740  0.00  0.00     0.023 A 
HETATM   21  C   UNK N   1      24.408  15.916   4.754  0.00  0.00     0.043 A 
HETATM   22  C   UNK N   1      23.910  15.694   3.471  0.00  0.00     0.119 A 
HETATM   23  C   UNK N   1      22.585  16.020   3.169  0.00  0.00     0.080 A 
HETATM   24  F   UNK N   1      24.717  15.172   2.517  0.00  0.00    -0.206 F 
HETATM   25  C   UNK N   1      21.742  16.555   4.159  0.00  0.00     0.088 A 
BRANCH  25  26
HETATM   26  O   UNK N   1      20.469  16.920   3.878  0.00  0.00    -0.340 OA
BRANCH  26  27
HETATM   27  C   UNK N   1      19.995  17.239   2.628  0.00  0.00     0.285 C 
BRANCH  27  28
HETATM   28  C   UNK N   1      19.464  18.644   2.641  0.00  0.00     0.164 C 
HETATM   29  O   UNK N   1      20.192  19.582   2.928  0.00  0.00    -0.648 OA
BRANCH  28  30
HETATM   30  O   UNK N   1      18.178  18.875   2.323  0.00  0.00    -0.775 OA
HETATM   31  H   UNK N   1      17.940  19.106   1.446  0.00  0.00     0.167 HD
ENDBRANCH  28  30
ENDBRANCH  27  28
ENDBRANCH  26  27
ENDBRANCH  25  26
ENDBRANCH   1  19
TORSDOF 7
ENDMDL
MODEL 8
REMARK VINA RESULT:      -7.5     11.269     13.211
REMARK  7 active torsions:
REMARK  status: ('A' for Active; 'I' for Inactive)
REMARK    1  A    between atoms: C_3  and  O_12 
REMARK    2  A    between atoms: C_6  and  C_9 
REMARK       I    between atoms: C_9  and  N_29 
REMARK    3  A    between atoms: C_10  and  C_14 
REMARK    4  A    between atoms: O_12  and  C_15 
REMARK    5  A    between atoms: C_14  and  N_29 
REMARK    6  A    between atoms: C_15  and  C_26 
REMARK    7  A    between atoms: C_26  and  O_27 
ROOT
HETATM    1  C   UNK N   1      18.909  15.605   5.424  0.00  0.00     0.254 C 
HETATM    2  O   UNK N   1      17.694  15.744   5.415  0.00  0.00    -0.268 OA
HETATM    3  N   UNK N   1      19.555  15.713   6.613  0.00  0.00    -0.351 N 
HETATM    4  H   UNK N   1      19.015  15.742   7.436  0.00  0.00     0.163 HD
ENDROOT
BRANCH   3   5
HETATM    5  C   UNK N   1      20.987  15.785   6.733  0.00  0.00     0.187 C 
BRANCH   5   6
HETATM    6  C   UNK N   1      21.468  14.941   7.848  0.00  0.00     0.070 A 
HETATM    7  N   UNK N   1      22.747  14.493   7.979  0.00  0.00    -0.349 N 
HETATM    8  C   UNK N   1      22.875  13.660   9.069  0.00  0.00     0.095 A 
ATOM      9  HN  UNK N   1      23.512  14.741   7.351  1.00  0.00     0.166 HD
HETATM   10  C   UNK N   1      21.704  13.445   9.796  0.00  0.00     0.075 A 
HETATM   11  C   UNK N   1      24.062  13.040   9.457  0.00  0.00     0.182 A 
HETATM   12  S   UNK N   1      20.518  14.313   9.055  0.00  0.00    -0.070 SA
HETATM   13  C   UNK N   1      21.663  12.620  10.912  0.00  0.00     0.139 A 
HETATM   14  F   UNK N   1      20.508  12.422  11.592  0.00  0.00    -0.204 F 
HETATM   15  C   UNK N   1      22.852  11.988  11.308  0.00  0.00     0.089 A 
HETATM   16  C   UNK N   1      24.047  12.196  10.585  0.00  0.00     0.160 A 
HETATM   17  F   UNK N   1      25.184  11.575  10.979  0.00  0.00    -0.203 F 
HETATM   18  F   UNK N   1      25.207  13.239   8.757  0.00  0.00    -0.200 F 
ENDBRANCH   5   6
ENDBRANCH   3   5
BRANCH   1  19
HETATM   19  C   UNK N   1      19.624  15.367   4.126  0.00  0.00     0.065 A 
HETATM   20  C   UNK N   1      19.798  14.063   3.632  0.00  0.00     0.023 A 
HETATM   21  C   UNK N   1      20.445  13.837   2.416  0.00  0.00     0.043 A 
HETATM   22  C   UNK N   1      20.939  14.912   1.679  0.00  0.00     0.119 A 
HETATM   23  C   UNK N   1      20.793  16.216   2.161  0.00  0.00     0.080 A 
HETATM   24  F   UNK N   1      21.569  14.689   0.501  0.00  0.00    -0.206 F 
HETATM   25  C   UNK N   1      20.133  16.453   3.380  0.00  0.00     0.088 A 
BRANCH  25  26
HETATM   26  O   UNK N   1      20.020  17.702   3.888  0.00  0.00    -0.340 OA
BRANCH  26  27
HETATM   27  C   UNK N   1      21.013  18.653   3.881  0.00  0.00     0.285 C 
BRANCH  27  28
HETATM   28  C   UNK N   1      20.537  19.863   3.130  0.00  0.00     0.164 C 
HETATM   29  O   UNK N   1      20.368  19.819   1.920  0.00  0.00    -0.648 OA
BRANCH  28  30
HETATM   30  O   UNK N   1      20.280  21.003   3.795  0.00  0.00    -0.775 OA
HETATM   31  H   UNK N   1      20.850  21.292   4.480  0.00  0.00     0.167 HD
ENDBRANCH  28  30
ENDBRANCH  27  28
ENDBRANCH  26  27
ENDBRANCH  25  26
ENDBRANCH   1  19
TORSDOF 7
ENDMDL
MODEL 9
REMARK VINA RESULT:      -7.3     11.276     13.216
REMARK  7 active torsions:
REMARK  status: ('A' for Active; 'I' for Inactive)
REMARK    1  A    between atoms: C_3  and  O_12 
REMARK    2  A    between atoms: C_6  and  C_9 
REMARK       I    between atoms: C_9  and  N_29 
REMARK    3  A    between atoms: C_10  and  C_14 
REMARK    4  A    between atoms: O_12  and  C_15 
REMARK    5  A    between atoms: C_14  and  N_29 
REMARK    6  A    between atoms: C_15  and  C_26 
REMARK    7  A    between atoms: C_26  and  O_27 
ROOT
HETATM    1  C   UNK N   1      18.918  15.791   5.446  0.00  0.00     0.254 C 
HETATM    2  O   UNK N   1      17.699  15.705   5.404  0.00  0.00    -0.268 OA
HETATM    3  N   UNK N   1      19.490  16.183   6.613  0.00  0.00    -0.351 N 
HETATM    4  H   UNK N   1      18.923  16.231   7.417  0.00  0.00     0.163 HD
ENDROOT
BRANCH   3   5
HETATM    5  C   UNK N   1      20.881  16.531   6.737  0.00  0.00     0.187 C 
BRANCH   5   6
HETATM    6  C   UNK N   1      21.652  15.421   7.339  0.00  0.00     0.070 A 
HETATM    7  N   UNK N   1      21.301  14.770   8.482  0.00  0.00    -0.349 N 
HETATM    8  C   UNK N   1      22.254  13.843   8.841  0.00  0.00     0.095 A 
ATOM      9  HN  UNK N   1      20.443  14.946   9.005  1.00  0.00     0.166 HD
HETATM   10  C   UNK N   1      23.358  13.762   7.991  0.00  0.00     0.075 A 
HETATM   11  C   UNK N   1      22.180  13.027   9.969  0.00  0.00     0.182 A 
HETATM   12  S   UNK N   1      23.115  14.861   6.790  0.00  0.00    -0.070 SA
HETATM   13  C   UNK N   1      24.411  12.889   8.223  0.00  0.00     0.139 A 
HETATM   14  F   UNK N   1      25.475  12.839   7.385  0.00  0.00    -0.204 F 
HETATM   15  C   UNK N   1      24.348  12.066   9.358  0.00  0.00     0.089 A 
HETATM   16  C   UNK N   1      23.238  12.133  10.229  0.00  0.00     0.160 A 
HETATM   17  F   UNK N   1      23.195  11.335  11.322  0.00  0.00    -0.203 F 
HETATM   18  F   UNK N   1      21.114  13.099  10.806  0.00  0.00    -0.200 F 
ENDBRANCH   5   6
ENDBRANCH   3   5
BRANCH   1  19
HETATM   19  C   UNK N   1      19.712  15.505   4.205  0.00  0.00     0.065 A 
HETATM   20  C   UNK N   1      20.191  14.209   3.944  0.00  0.00     0.023 A 
HETATM   21  C   UNK N   1      20.914  13.932   2.782  0.00  0.00     0.043 A 
HETATM   22  C   UNK N   1      21.178  14.950   1.867  0.00  0.00     0.119 A 
HETATM   23  C   UNK N   1      20.727  16.249   2.117  0.00  0.00     0.080 A 
HETATM   24  F   UNK N   1      21.882  14.679   0.742  0.00  0.00    -0.206 F 
HETATM   25  C   UNK N   1      19.990  16.534   3.279  0.00  0.00     0.088 A 
BRANCH  25  26
HETATM   26  O   UNK N   1      19.583  17.793   3.564  0.00  0.00    -0.340 OA
BRANCH  26  27
HETATM   27  C   UNK N   1      19.282  18.758   2.632  0.00  0.00     0.285 C 
BRANCH  27  28
HETATM   28  C   UNK N   1      20.280  19.875   2.733  0.00  0.00     0.164 C 
HETATM   29  O   UNK N   1      20.941  20.209   1.760  0.00  0.00    -0.648 OA
BRANCH  28  30
HETATM   30  O   UNK N   1      20.442  20.523   3.900  0.00  0.00    -0.775 OA
HETATM   31  H   UNK N   1      19.819  20.418   4.591  0.00  0.00     0.167 HD
ENDBRANCH  28  30
ENDBRANCH  27  28
ENDBRANCH  26  27
ENDBRANCH  25  26
ENDBRANCH   1  19
TORSDOF 7
ENDMDL
