REMARK  7 active torsions:
REMARK  status: ('A' for Active; 'I' for Inactive)
REMARK    1  A    between atoms: C_3  and  O_12 
REMARK    2  A    between atoms: C_6  and  C_9 
REMARK       I    between atoms: C_9  and  N_29 
REMARK    3  A    between atoms: C_10  and  C_14 
REMARK    4  A    between atoms: O_12  and  C_15 
REMARK    5  A    between atoms: C_14  and  N_29 
REMARK    6  A    between atoms: C_15  and  C_26 
REMARK    7  A    between atoms: C_26  and  O_27 
ROOT
HETATM    1  C   UNK N   1      -1.429   0.928   0.312  0.00  0.00     0.254 C 
HETATM    2  O   UNK N   1      -2.140   1.710   0.927  0.00  0.00    -0.268 OA
HETATM    3  N   UNK N   1      -0.291   1.408  -0.251  0.00  0.00    -0.351 N 
HETATM    4  H   UNK N   1      -0.003   2.320  -0.015  0.00  0.00     0.163 HD
ENDROOT
BRANCH   3   5
HETATM    5  C   UNK N   1       0.517   0.654  -1.173  0.00  0.00     0.187 C 
BRANCH   5   6
HETATM    6  C   UNK N   1       1.925   0.603  -0.724  0.00  0.00     0.070 A 
HETATM    7  N   UNK N   1       2.725   1.694  -0.573  0.00  0.00    -0.349 N 
HETATM    8  C   UNK N   1       4.007   1.329  -0.225  0.00  0.00     0.095 A 
ATOM      9  HN  UNK N   1       2.416   2.658  -0.701  1.00  0.00     0.166 HD
HETATM   10  C   UNK N   1       4.224  -0.044  -0.106  0.00  0.00     0.075 A 
HETATM   11  C   UNK N   1       5.054   2.224  -0.009  0.00  0.00     0.182 A 
HETATM   12  S   UNK N   1       2.791  -0.783  -0.437  0.00  0.00    -0.070 SA
HETATM   13  C   UNK N   1       5.464  -0.574   0.223  0.00  0.00     0.139 A 
HETATM   14  F   UNK N   1       5.648  -1.913   0.322  0.00  0.00    -0.204 F 
HETATM   15  C   UNK N   1       6.526   0.318   0.439  0.00  0.00     0.089 A 
HETATM   16  C   UNK N   1       6.324   1.711   0.324  0.00  0.00     0.160 A 
HETATM   17  F   UNK N   1       7.361   2.557   0.532  0.00  0.00    -0.203 F 
HETATM   18  F   UNK N   1       4.857   3.561  -0.125  0.00  0.00    -0.200 F 
ENDBRANCH   5   6
ENDBRANCH   3   5
BRANCH   1  19
HETATM   19  C   UNK N   1      -1.867  -0.501   0.174  0.00  0.00     0.065 A 
HETATM   20  C   UNK N   1      -0.923  -1.524  -0.020  0.00  0.00     0.023 A 
HETATM   21  C   UNK N   1      -1.322  -2.857  -0.130  0.00  0.00     0.043 A 
HETATM   22  C   UNK N   1      -2.675  -3.187  -0.058  0.00  0.00     0.119 A 
HETATM   23  C   UNK N   1      -3.631  -2.183   0.116  0.00  0.00     0.080 A 
HETATM   24  F   UNK N   1      -3.059  -4.481  -0.168  0.00  0.00    -0.206 F 
HETATM   25  C   UNK N   1      -3.236  -0.839   0.238  0.00  0.00     0.088 A 
BRANCH  25  26
HETATM   26  O   UNK N   1      -4.147   0.154   0.361  0.00  0.00    -0.340 OA
BRANCH  26  27
HETATM   27  C   UNK N   1      -5.507   0.003   0.226  0.00  0.00     0.285 C 
BRANCH  27  28
HETATM   28  C   UNK N   1      -6.137   1.348   0.004  0.00  0.00     0.164 C 
HETATM   29  O   UNK N   1      -5.449   2.357  -0.048  0.00  0.00    -0.648 OA
BRANCH  28  30
HETATM   30  O   UNK N   1      -7.469   1.444  -0.152  0.00  0.00    -0.775 OA
HETATM   31  H   UNK N   1      -7.875   2.281  -0.261  0.00  0.00     0.167 HD
ENDBRANCH  28  30
ENDBRANCH  27  28
ENDBRANCH  26  27
ENDBRANCH  25  26
ENDBRANCH   1  19
TORSDOF 7
