MODEL 1
REMARK VINA RESULT:      -7.6      0.000      0.000
REMARK  5 active torsions:
REMARK  status: ('A' for Active; 'I' for Inactive)
REMARK    1  A    between atoms: C_4  and  C_8 
REMARK    2  A    between atoms: C_8  and  C_9 
REMARK    3  A    between atoms: C_9  and  C_10 
REMARK       I    between atoms: C_10  and  N_12 
REMARK    4  A    between atoms: N_12  and  C_14 
REMARK    5  A    between atoms: C_14  and  C_15 
ROOT
HETATM    1  C   UNK N   1      31.812  16.302   9.061  0.00  0.00     0.075 C 
ENDROOT
BRANCH   1   2
HETATM    2  C   UNK N   1      30.732  16.806   8.531  0.00  0.00     0.018 C 
BRANCH   2   3
HETATM    3  C   UNK N   1      29.534  17.322   7.987  0.00  0.00    -0.020 A 
HETATM    4  C   UNK N   1      29.447  17.481   6.612  0.00  0.00     0.023 A 
HETATM    5  C   UNK N   1      28.528  18.370   6.103  0.00  0.00    -0.013 A 
HETATM    6  C   UNK N   1      27.719  19.104   6.987  0.00  0.00     0.114 A 
HETATM    7  C   UNK N   1      28.459  18.625   4.636  0.00  0.00     0.051 C 
HETATM    8  N   UNK N   1      27.819  18.915   8.328  0.00  0.00    -0.351 N 
HETATM    9  N   UNK N   1      26.758  19.999   6.475  0.00  0.00    -0.313 N 
HETATM   10  C   UNK N   1      28.722  18.050   8.841  0.00  0.00     0.101 A 
ATOM     11  HN  UNK N   1      27.204  19.434   8.957  1.00  0.00     0.166 HD
HETATM   12  C   UNK N   1      26.412  19.958   5.165  0.00  0.00     0.223 C 
HETATM   13  H   UNK N   1      26.336  20.657   7.072  0.00  0.00     0.170 HD
HETATM   14  C   UNK N   1      27.024  18.936   4.236  0.00  0.00     0.108 C 
HETATM   15  O   UNK N   1      25.536  20.693   4.754  0.00  0.00    -0.273 OA
ENDBRANCH   2   3
ENDBRANCH   1   2
BRANCH   1  16
HETATM   16  C   UNK N   1      32.514  15.274   8.303  0.00  0.00     0.243 C 
HETATM   17  O   UNK N   1      31.873  14.553   7.560  0.00  0.00    -0.268 OA
HETATM   18  N   UNK N   1      33.870  15.218   8.295  0.00  0.00    -0.349 N 
HETATM   19  C   UNK N   1      34.541  14.900   9.535  0.00  0.00     0.153 C 
BRANCH  18  20
HETATM   20  C   UNK N   1      34.520  16.281   7.576  0.00  0.00     0.166 C 
BRANCH  20  21
HETATM   21  C   UNK N   1      34.499  15.856   6.182  0.00  0.00    -0.012 A 
HETATM   22  C   UNK N   1      35.089  14.713   5.676  0.00  0.00     0.100 A 
HETATM   23  N   UNK N   1      34.666  14.549   4.407  0.00  0.00    -0.360 N 
HETATM   24  C   UNK N   1      33.820  15.560   4.125  0.00  0.00     0.044 A 
HETATM   25  C   UNK N   1      35.020  13.431   3.553  0.00  0.00     0.155 C 
HETATM   26  C   UNK N   1      33.704  16.384   5.201  0.00  0.00    -0.000 A 
HETATM   27  C   UNK N   1      33.091  15.781   2.959  0.00  0.00     0.030 A 
HETATM   28  C   UNK N   1      32.857  17.490   5.210  0.00  0.00     0.014 A 
HETATM   29  C   UNK N   1      32.113  17.749   4.049  0.00  0.00     0.001 A 
HETATM   30  C   UNK N   1      32.230  16.896   2.927  0.00  0.00     0.002 A 
ENDBRANCH  20  21
ENDBRANCH  18  20
ENDBRANCH   1  16
TORSDOF 5
ENDMDL
MODEL 2
REMARK VINA RESULT:      -7.0      4.792      9.207
REMARK  5 active torsions:
REMARK  status: ('A' for Active; 'I' for Inactive)
REMARK    1  A    between atoms: C_4  and  C_8 
REMARK    2  A    between atoms: C_8  and  C_9 
REMARK    3  A    between atoms: C_9  and  C_10 
REMARK       I    between atoms: C_10  and  N_12 
REMARK    4  A    between atoms: N_12  and  C_14 
REMARK    5  A    between atoms: C_14  and  C_15 
ROOT
HETATM    1  C   UNK N   1      35.238  15.620  11.030  0.00  0.00     0.075 C 
ENDROOT
BRANCH   1   2
HETATM    2  C   UNK N   1      35.464  14.829  12.043  0.00  0.00     0.018 C 
BRANCH   2   3
HETATM    3  C   UNK N   1      35.746  13.952  13.115  0.00  0.00    -0.020 A 
HETATM    4  C   UNK N   1      34.928  12.847  13.297  0.00  0.00     0.023 A 
HETATM    5  C   UNK N   1      34.881  12.253  14.538  0.00  0.00    -0.013 A 
HETATM    6  C   UNK N   1      35.644  12.792  15.588  0.00  0.00     0.114 A 
HETATM    7  C   UNK N   1      33.956  11.112  14.793  0.00  0.00     0.051 C 
HETATM    8  N   UNK N   1      36.445  13.868  15.373  0.00  0.00    -0.351 N 
HETATM    9  N   UNK N   1      35.621  12.178  16.856  0.00  0.00    -0.313 N 
HETATM   10  C   UNK N   1      36.495  14.464  14.161  0.00  0.00     0.101 A 
ATOM     11  HN  UNK N   1      37.016  14.231  16.137  1.00  0.00     0.166 HD
HETATM   12  C   UNK N   1      35.105  10.934  17.005  0.00  0.00     0.223 C 
HETATM   13  H   UNK N   1      35.981  12.655  17.637  0.00  0.00     0.170 HD
HETATM   14  C   UNK N   1      34.573  10.169  15.816  0.00  0.00     0.108 C 
HETATM   15  O   UNK N   1      35.152  10.393  18.093  0.00  0.00    -0.273 OA
ENDBRANCH   2   3
ENDBRANCH   1   2
BRANCH   1  16
HETATM   16  C   UNK N   1      34.256  15.184  10.046  0.00  0.00     0.243 C 
HETATM   17  O   UNK N   1      33.291  14.545  10.423  0.00  0.00    -0.268 OA
HETATM   18  N   UNK N   1      34.322  15.614   8.759  0.00  0.00    -0.349 N 
HETATM   19  C   UNK N   1      35.452  15.194   7.963  0.00  0.00     0.153 C 
BRANCH  18  20
HETATM   20  C   UNK N   1      33.997  17.002   8.563  0.00  0.00     0.166 C 
BRANCH  20  21
HETATM   21  C   UNK N   1      32.723  16.990   7.855  0.00  0.00    -0.012 A 
HETATM   22  C   UNK N   1      31.473  17.087   8.438  0.00  0.00     0.100 A 
HETATM   23  N   UNK N   1      30.565  17.265   7.457  0.00  0.00    -0.360 N 
HETATM   24  C   UNK N   1      31.231  17.291   6.285  0.00  0.00     0.044 A 
HETATM   25  C   UNK N   1      29.145  17.466   7.669  0.00  0.00     0.155 C 
HETATM   26  C   UNK N   1      32.563  17.117   6.502  0.00  0.00    -0.000 A 
HETATM   27  C   UNK N   1      30.726  17.508   5.006  0.00  0.00     0.030 A 
HETATM   28  C   UNK N   1      33.500  17.145   5.471  0.00  0.00     0.014 A 
HETATM   29  C   UNK N   1      33.026  17.353   4.167  0.00  0.00     0.001 A 
HETATM   30  C   UNK N   1      31.643  17.535   3.936  0.00  0.00     0.002 A 
ENDBRANCH  20  21
ENDBRANCH  18  20
ENDBRANCH   1  16
TORSDOF 5
ENDMDL
MODEL 3
REMARK VINA RESULT:      -6.9      4.291      9.102
REMARK  5 active torsions:
REMARK  status: ('A' for Active; 'I' for Inactive)
REMARK    1  A    between atoms: C_4  and  C_8 
REMARK    2  A    between atoms: C_8  and  C_9 
REMARK    3  A    between atoms: C_9  and  C_10 
REMARK       I    between atoms: C_10  and  N_12 
REMARK    4  A    between atoms: N_12  and  C_14 
REMARK    5  A    between atoms: C_14  and  C_15 
ROOT
HETATM    1  C   UNK N   1      34.570  16.068  10.284  0.00  0.00     0.075 C 
ENDROOT
BRANCH   1   2
HETATM    2  C   UNK N   1      35.020  15.269  11.211  0.00  0.00     0.018 C 
BRANCH   2   3
HETATM    3  C   UNK N   1      35.543  14.387  12.185  0.00  0.00    -0.020 A 
HETATM    4  C   UNK N   1      34.853  13.216  12.455  0.00  0.00     0.023 A 
HETATM    5  C   UNK N   1      35.060  12.585  13.661  0.00  0.00    -0.013 A 
HETATM    6  C   UNK N   1      35.946  13.155  14.591  0.00  0.00     0.114 A 
HETATM    7  C   UNK N   1      34.279  11.367  14.018  0.00  0.00     0.051 C 
HETATM    8  N   UNK N   1      36.617  14.297  14.291  0.00  0.00    -0.351 N 
HETATM    9  N   UNK N   1      36.183  12.505  15.819  0.00  0.00    -0.313 N 
HETATM   10  C   UNK N   1      36.418  14.929  13.112  0.00  0.00     0.101 A 
ATOM     11  HN  UNK N   1      37.280  14.683  14.964  1.00  0.00     0.166 HD
HETATM   12  C   UNK N   1      35.794  11.220  16.000  0.00  0.00     0.223 C 
HETATM   13  H   UNK N   1      36.633  12.988  16.548  0.00  0.00     0.170 HD
HETATM   14  C   UNK N   1      35.128  10.449  14.885  0.00  0.00     0.108 C 
HETATM   15  O   UNK N   1      36.064  10.654  17.042  0.00  0.00    -0.273 OA
ENDBRANCH   2   3
ENDBRANCH   1   2
BRANCH   1  16
HETATM   16  C   UNK N   1      33.612  15.519   9.333  0.00  0.00     0.243 C 
HETATM   17  O   UNK N   1      32.687  14.848   9.753  0.00  0.00    -0.268 OA
HETATM   18  N   UNK N   1      33.649  15.874   8.023  0.00  0.00    -0.349 N 
HETATM   19  C   UNK N   1      34.799  15.473   7.247  0.00  0.00     0.153 C 
BRANCH  18  20
HETATM   20  C   UNK N   1      33.244  17.226   7.747  0.00  0.00     0.166 C 
BRANCH  20  21
HETATM   21  C   UNK N   1      31.863  17.117   7.292  0.00  0.00    -0.012 A 
HETATM   22  C   UNK N   1      31.418  16.340   6.238  0.00  0.00     0.100 A 
HETATM   23  N   UNK N   1      30.070  16.325   6.269  0.00  0.00    -0.360 N 
HETATM   24  C   UNK N   1      29.678  17.066   7.324  0.00  0.00     0.044 A 
HETATM   25  C   UNK N   1      29.230  15.573   5.358  0.00  0.00     0.155 C 
HETATM   26  C   UNK N   1      30.765  17.572   7.968  0.00  0.00    -0.000 A 
HETATM   27  C   UNK N   1      28.386  17.294   7.790  0.00  0.00     0.030 A 
HETATM   28  C   UNK N   1      30.658  18.340   9.126  0.00  0.00     0.014 A 
HETATM   29  C   UNK N   1      29.371  18.598   9.620  0.00  0.00     0.001 A 
HETATM   30  C   UNK N   1      28.238  18.075   8.955  0.00  0.00     0.002 A 
ENDBRANCH  20  21
ENDBRANCH  18  20
ENDBRANCH   1  16
TORSDOF 5
ENDMDL
MODEL 4
REMARK VINA RESULT:      -6.9      7.238     11.537
REMARK  5 active torsions:
REMARK  status: ('A' for Active; 'I' for Inactive)
REMARK    1  A    between atoms: C_4  and  C_8 
REMARK    2  A    between atoms: C_8  and  C_9 
REMARK    3  A    between atoms: C_9  and  C_10 
REMARK       I    between atoms: C_10  and  N_12 
REMARK    4  A    between atoms: N_12  and  C_14 
REMARK    5  A    between atoms: C_14  and  C_15 
ROOT
HETATM    1  C   UNK N   1      37.007  10.541  12.800  0.00  0.00     0.075 C 
ENDROOT
BRANCH   1   2
HETATM    2  C   UNK N   1      36.480  11.678  12.435  0.00  0.00     0.018 C 
BRANCH   2   3
HETATM    3  C   UNK N   1      35.923  12.928  12.083  0.00  0.00    -0.020 A 
HETATM    4  C   UNK N   1      35.465  13.106  10.786  0.00  0.00     0.023 A 
HETATM    5  C   UNK N   1      35.351  14.386  10.292  0.00  0.00    -0.013 A 
HETATM    6  C   UNK N   1      35.719  15.472  11.104  0.00  0.00     0.114 A 
HETATM    7  C   UNK N   1      34.936  14.613   8.878  0.00  0.00     0.051 C 
HETATM    8  N   UNK N   1      36.152  15.265  12.374  0.00  0.00    -0.351 N 
HETATM    9  N   UNK N   1      35.584  16.787  10.615  0.00  0.00    -0.313 N 
HETATM   10  C   UNK N   1      36.275  14.013  12.869  0.00  0.00     0.101 A 
ATOM     11  HN  UNK N   1      36.389  16.065  12.963  1.00  0.00     0.166 HD
HETATM   12  C   UNK N   1      34.854  17.032   9.501  0.00  0.00     0.223 C 
HETATM   13  H   UNK N   1      36.023  17.531  11.087  0.00  0.00     0.170 HD
HETATM   14  C   UNK N   1      34.147  15.910   8.777  0.00  0.00     0.108 C 
HETATM   15  O   UNK N   1      34.694  18.179   9.130  0.00  0.00    -0.273 OA
ENDBRANCH   2   3
ENDBRANCH   1   2
BRANCH   1  16
HETATM   16  C   UNK N   1      37.265  10.349  14.221  0.00  0.00     0.243 C 
HETATM   17  O   UNK N   1      37.939  11.173  14.812  0.00  0.00    -0.268 OA
HETATM   18  N   UNK N   1      36.641   9.363  14.915  0.00  0.00    -0.349 N 
HETATM   19  C   UNK N   1      36.952   7.994  14.573  0.00  0.00     0.153 C 
BRANCH  18  20
HETATM   20  C   UNK N   1      35.234   9.568  15.134  0.00  0.00     0.166 C 
BRANCH  20  21
HETATM   21  C   UNK N   1      35.121   9.900  16.549  0.00  0.00    -0.012 A 
HETATM   22  C   UNK N   1      35.252   9.012  17.600  0.00  0.00     0.100 A 
HETATM   23  N   UNK N   1      35.308   9.723  18.745  0.00  0.00    -0.360 N 
HETATM   24  C   UNK N   1      35.224  11.028  18.419  0.00  0.00     0.044 A 
HETATM   25  C   UNK N   1      35.499   9.154  20.065  0.00  0.00     0.155 C 
HETATM   26  C   UNK N   1      35.102  11.165  17.070  0.00  0.00    -0.000 A 
HETATM   27  C   UNK N   1      35.295  12.137  19.257  0.00  0.00     0.030 A 
HETATM   28  C   UNK N   1      35.042  12.409  16.446  0.00  0.00     0.014 A 
HETATM   29  C   UNK N   1      35.102  13.549  17.261  0.00  0.00     0.001 A 
HETATM   30  C   UNK N   1      35.229  13.413  18.662  0.00  0.00     0.002 A 
ENDBRANCH  20  21
ENDBRANCH  18  20
ENDBRANCH   1  16
TORSDOF 5
ENDMDL
MODEL 5
REMARK VINA RESULT:      -6.8      6.525     10.779
REMARK  5 active torsions:
REMARK  status: ('A' for Active; 'I' for Inactive)
REMARK    1  A    between atoms: C_4  and  C_8 
REMARK    2  A    between atoms: C_8  and  C_9 
REMARK    3  A    between atoms: C_9  and  C_10 
REMARK       I    between atoms: C_10  and  N_12 
REMARK    4  A    between atoms: N_12  and  C_14 
REMARK    5  A    between atoms: C_14  and  C_15 
ROOT
HETATM    1  C   UNK N   1      35.590  11.169  11.592  0.00  0.00     0.075 C 
ENDROOT
BRANCH   1   2
HETATM    2  C   UNK N   1      35.232  12.361  11.203  0.00  0.00     0.018 C 
BRANCH   2   3
HETATM    3  C   UNK N   1      34.834  13.665  10.827  0.00  0.00    -0.020 A 
HETATM    4  C   UNK N   1      34.786  13.978   9.478  0.00  0.00     0.023 A 
HETATM    5  C   UNK N   1      34.853  15.300   9.099  0.00  0.00    -0.013 A 
HETATM    6  C   UNK N   1      34.989  16.291  10.086  0.00  0.00     0.114 A 
HETATM    7  C   UNK N   1      34.882  15.670   7.656  0.00  0.00     0.051 C 
HETATM    8  N   UNK N   1      35.021  15.952  11.401  0.00  0.00    -0.351 N 
HETATM    9  N   UNK N   1      35.036  17.648   9.711  0.00  0.00    -0.313 N 
HETATM   10  C   UNK N   1      34.962  14.657  11.785  0.00  0.00     0.101 A 
ATOM     11  HN  UNK N   1      35.090  16.685  12.109  1.00  0.00     0.166 HD
HETATM   12  C   UNK N   1      34.675  18.027   8.461  0.00  0.00     0.223 C 
HETATM   13  H   UNK N   1      35.332  18.325  10.361  0.00  0.00     0.170 HD
HETATM   14  C   UNK N   1      34.188  17.010   7.456  0.00  0.00     0.108 C 
HETATM   15  O   UNK N   1      34.659  19.208   8.174  0.00  0.00    -0.273 OA
ENDBRANCH   2   3
ENDBRANCH   1   2
BRANCH   1  16
HETATM   16  C   UNK N   1      36.248  11.057  12.888  0.00  0.00     0.243 C 
HETATM   17  O   UNK N   1      37.232  11.739  13.108  0.00  0.00    -0.268 OA
HETATM   18  N   UNK N   1      35.690  10.331  13.892  0.00  0.00    -0.349 N 
HETATM   19  C   UNK N   1      35.583   8.902  13.713  0.00  0.00     0.153 C 
BRANCH  18  20
HETATM   20  C   UNK N   1      34.505  10.903  14.472  0.00  0.00     0.166 C 
BRANCH  20  21
HETATM   21  C   UNK N   1      34.949  11.480  15.734  0.00  0.00    -0.012 A 
HETATM   22  C   UNK N   1      35.127  12.827  15.990  0.00  0.00     0.100 A 
HETATM   23  N   UNK N   1      35.322  12.980  17.315  0.00  0.00    -0.360 N 
HETATM   24  C   UNK N   1      35.257  11.758  17.881  0.00  0.00     0.044 A 
HETATM   25  C   UNK N   1      35.492  14.254  17.986  0.00  0.00     0.155 C 
HETATM   26  C   UNK N   1      35.034  10.814  16.927  0.00  0.00    -0.000 A 
HETATM   27  C   UNK N   1      35.341  11.422  19.229  0.00  0.00     0.030 A 
HETATM   28  C   UNK N   1      34.875   9.464  17.232  0.00  0.00     0.014 A 
HETATM   29  C   UNK N   1      34.963   9.087  18.580  0.00  0.00     0.001 A 
HETATM   30  C   UNK N   1      35.194  10.063  19.576  0.00  0.00     0.002 A 
ENDBRANCH  20  21
ENDBRANCH  18  20
ENDBRANCH   1  16
TORSDOF 5
ENDMDL
MODEL 6
REMARK VINA RESULT:      -6.8     11.468     15.390
REMARK  5 active torsions:
REMARK  status: ('A' for Active; 'I' for Inactive)
REMARK    1  A    between atoms: C_4  and  C_8 
REMARK    2  A    between atoms: C_8  and  C_9 
REMARK    3  A    between atoms: C_9  and  C_10 
REMARK       I    between atoms: C_10  and  N_12 
REMARK    4  A    between atoms: N_12  and  C_14 
REMARK    5  A    between atoms: C_14  and  C_15 
ROOT
HETATM    1  C   UNK N   1      26.386  24.572  -4.995  0.00  0.00     0.075 C 
ENDROOT
BRANCH   1   2
HETATM    2  C   UNK N   1      27.531  23.970  -4.828  0.00  0.00     0.018 C 
BRANCH   2   3
HETATM    3  C   UNK N   1      28.794  23.354  -4.673  0.00  0.00    -0.020 A 
HETATM    4  C   UNK N   1      29.208  22.443  -5.633  0.00  0.00     0.023 A 
HETATM    5  C   UNK N   1      30.170  21.517  -5.300  0.00  0.00    -0.013 A 
HETATM    6  C   UNK N   1      30.691  21.507  -3.995  0.00  0.00     0.114 A 
HETATM    7  C   UNK N   1      30.585  20.475  -6.281  0.00  0.00     0.051 C 
HETATM    8  N   UNK N   1      30.274  22.421  -3.081  0.00  0.00    -0.351 N 
HETATM    9  N   UNK N   1      31.694  20.579  -3.651  0.00  0.00    -0.313 N 
HETATM   10  C   UNK N   1      29.324  23.331  -3.394  0.00  0.00     0.101 A 
ATOM     11  HN  UNK N   1      30.682  22.420  -2.145  1.00  0.00     0.166 HD
HETATM   12  C   UNK N   1      32.355  19.894  -4.615  0.00  0.00     0.223 C 
HETATM   13  H   UNK N   1      31.916  20.427  -2.704  0.00  0.00     0.170 HD
HETATM   14  C   UNK N   1      32.053  20.131  -6.076  0.00  0.00     0.108 C 
HETATM   15  O   UNK N   1      33.261  19.146  -4.304  0.00  0.00    -0.273 OA
ENDBRANCH   2   3
ENDBRANCH   1   2
BRANCH   1  16
HETATM   16  C   UNK N   1      26.177  25.824  -4.277  0.00  0.00     0.243 C 
HETATM   17  O   UNK N   1      26.398  25.858  -3.081  0.00  0.00    -0.268 OA
HETATM   18  N   UNK N   1      25.899  26.972  -4.948  0.00  0.00    -0.349 N 
HETATM   19  C   UNK N   1      24.642  27.053  -5.655  0.00  0.00     0.153 C 
BRANCH  18  20
HETATM   20  C   UNK N   1      26.993  27.515  -5.707  0.00  0.00     0.166 C 
BRANCH  20  21
HETATM   21  C   UNK N   1      27.684  28.404  -4.781  0.00  0.00    -0.012 A 
HETATM   22  C   UNK N   1      27.139  29.520  -4.172  0.00  0.00     0.100 A 
HETATM   23  N   UNK N   1      28.002  29.945  -3.227  0.00  0.00    -0.360 N 
HETATM   24  C   UNK N   1      29.059  29.109  -3.234  0.00  0.00     0.044 A 
HETATM   25  C   UNK N   1      27.765  31.060  -2.331  0.00  0.00     0.155 C 
HETATM   26  C   UNK N   1      28.891  28.153  -4.189  0.00  0.00    -0.000 A 
HETATM   27  C   UNK N   1      30.173  29.113  -2.399  0.00  0.00     0.030 A 
HETATM   28  C   UNK N   1      29.811  27.126  -4.390  0.00  0.00     0.014 A 
HETATM   29  C   UNK N   1      30.950  27.103  -3.571  0.00  0.00     0.001 A 
HETATM   30  C   UNK N   1      31.130  28.093  -2.579  0.00  0.00     0.002 A 
ENDBRANCH  20  21
ENDBRANCH  18  20
ENDBRANCH   1  16
TORSDOF 5
ENDMDL
MODEL 7
REMARK VINA RESULT:      -6.8      4.100      7.482
REMARK  5 active torsions:
REMARK  status: ('A' for Active; 'I' for Inactive)
REMARK    1  A    between atoms: C_4  and  C_8 
REMARK    2  A    between atoms: C_8  and  C_9 
REMARK    3  A    between atoms: C_9  and  C_10 
REMARK       I    between atoms: C_10  and  N_12 
REMARK    4  A    between atoms: N_12  and  C_14 
REMARK    5  A    between atoms: C_14  and  C_15 
ROOT
HETATM    1  C   UNK N   1      35.061  14.909   8.680  0.00  0.00     0.075 C 
ENDROOT
BRANCH   1   2
HETATM    2  C   UNK N   1      34.077  15.634   8.223  0.00  0.00     0.018 C 
BRANCH   2   3
HETATM    3  C   UNK N   1      33.042  16.458   7.725  0.00  0.00    -0.020 A 
HETATM    4  C   UNK N   1      32.046  16.868   8.598  0.00  0.00     0.023 A 
HETATM    5  C   UNK N   1      30.832  17.262   8.083  0.00  0.00    -0.013 A 
HETATM    6  C   UNK N   1      30.628  17.219   6.693  0.00  0.00     0.114 A 
HETATM    7  C   UNK N   1      29.712  17.636   8.993  0.00  0.00     0.051 C 
HETATM    8  N   UNK N   1      31.629  16.824   5.863  0.00  0.00    -0.351 N 
HETATM    9  N   UNK N   1      29.397  17.642   6.154  0.00  0.00    -0.313 N 
HETATM   10  C   UNK N   1      32.823  16.429   6.358  0.00  0.00     0.101 A 
ATOM     11  HN  UNK N   1      31.476  16.825   4.854  1.00  0.00     0.166 HD
HETATM   12  C   UNK N   1      28.521  18.343   6.913  0.00  0.00     0.223 C 
HETATM   13  H   UNK N   1      29.172  17.427   5.220  0.00  0.00     0.170 HD
HETATM   14  C   UNK N   1      28.856  18.710   8.340  0.00  0.00     0.108 C 
HETATM   15  O   UNK N   1      27.492  18.756   6.414  0.00  0.00    -0.273 OA
ENDBRANCH   2   3
ENDBRANCH   1   2
BRANCH   1  16
HETATM   16  C   UNK N   1      35.704  15.352   9.911  0.00  0.00     0.243 C 
HETATM   17  O   UNK N   1      35.704  16.540  10.178  0.00  0.00    -0.268 OA
HETATM   18  N   UNK N   1      36.154  14.453  10.823  0.00  0.00    -0.349 N 
HETATM   19  C   UNK N   1      37.252  13.596  10.442  0.00  0.00     0.153 C 
BRANCH  18  20
HETATM   20  C   UNK N   1      35.127  13.746  11.539  0.00  0.00     0.166 C 
BRANCH  20  21
HETATM   21  C   UNK N   1      35.635  13.629  12.901  0.00  0.00    -0.012 A 
HETATM   22  C   UNK N   1      36.410  14.566  13.558  0.00  0.00     0.100 A 
HETATM   23  N   UNK N   1      36.489  14.209  14.856  0.00  0.00    -0.360 N 
HETATM   24  C   UNK N   1      35.771  13.078  15.012  0.00  0.00     0.044 A 
HETATM   25  C   UNK N   1      37.170  14.970  15.885  0.00  0.00     0.155 C 
HETATM   26  C   UNK N   1      35.240  12.695  13.820  0.00  0.00    -0.000 A 
HETATM   27  C   UNK N   1      35.515  12.369  16.183  0.00  0.00     0.030 A 
HETATM   28  C   UNK N   1      34.411  11.582  13.692  0.00  0.00     0.014 A 
HETATM   29  C   UNK N   1      34.138  10.838  14.850  0.00  0.00     0.001 A 
HETATM   30  C   UNK N   1      34.688  11.231  16.091  0.00  0.00     0.002 A 
ENDBRANCH  20  21
ENDBRANCH  18  20
ENDBRANCH   1  16
TORSDOF 5
ENDMDL
MODEL 8
REMARK VINA RESULT:      -6.7      2.508      7.204
REMARK  5 active torsions:
REMARK  status: ('A' for Active; 'I' for Inactive)
REMARK    1  A    between atoms: C_4  and  C_8 
REMARK    2  A    between atoms: C_8  and  C_9 
REMARK    3  A    between atoms: C_9  and  C_10 
REMARK       I    between atoms: C_10  and  N_12 
REMARK    4  A    between atoms: N_12  and  C_14 
REMARK    5  A    between atoms: C_14  and  C_15 
ROOT
HETATM    1  C   UNK N   1      30.313  13.717   4.312  0.00  0.00     0.075 C 
ENDROOT
BRANCH   1   2
HETATM    2  C   UNK N   1      31.318  14.100   5.051  0.00  0.00     0.018 C 
BRANCH   2   3
HETATM    3  C   UNK N   1      32.379  14.553   5.867  0.00  0.00    -0.020 A 
HETATM    4  C   UNK N   1      32.256  14.428   7.243  0.00  0.00     0.023 A 
HETATM    5  C   UNK N   1      33.017  15.237   8.055  0.00  0.00    -0.013 A 
HETATM    6  C   UNK N   1      33.881  16.179   7.471  0.00  0.00     0.114 A 
HETATM    7  C   UNK N   1      32.855  15.185   9.536  0.00  0.00     0.051 C 
HETATM    8  N   UNK N   1      33.989  16.268   6.120  0.00  0.00    -0.351 N 
HETATM    9  N   UNK N   1      34.681  16.996   8.294  0.00  0.00    -0.313 N 
HETATM   10  C   UNK N   1      33.242  15.483   5.312  0.00  0.00     0.101 A 
ATOM     11  HN  UNK N   1      34.642  16.937   5.711  1.00  0.00     0.166 HD
HETATM   12  C   UNK N   1      34.839  16.701   9.607  0.00  0.00     0.223 C 
HETATM   13  H   UNK N   1      35.129  17.785   7.912  0.00  0.00     0.170 HD
HETATM   14  C   UNK N   1      34.187  15.479  10.209  0.00  0.00     0.108 C 
HETATM   15  O   UNK N   1      35.585  17.379  10.287  0.00  0.00    -0.273 OA
ENDBRANCH   2   3
ENDBRANCH   1   2
BRANCH   1  16
HETATM   16  C   UNK N   1      29.084  14.496   4.398  0.00  0.00     0.243 C 
HETATM   17  O   UNK N   1      28.395  14.395   5.397  0.00  0.00    -0.268 OA
HETATM   18  N   UNK N   1      28.787  15.435   3.463  0.00  0.00    -0.349 N 
HETATM   19  C   UNK N   1      28.525  14.987   2.115  0.00  0.00     0.153 C 
BRANCH  18  20
HETATM   20  C   UNK N   1      29.611  16.613   3.501  0.00  0.00     0.166 C 
BRANCH  20  21
HETATM   21  C   UNK N   1      28.888  17.546   4.356  0.00  0.00    -0.012 A 
HETATM   22  C   UNK N   1      27.692  18.167   4.047  0.00  0.00     0.100 A 
HETATM   23  N   UNK N   1      27.232  18.770   5.162  0.00  0.00    -0.360 N 
HETATM   24  C   UNK N   1      28.113  18.524   6.152  0.00  0.00     0.044 A 
HETATM   25  C   UNK N   1      25.973  19.482   5.259  0.00  0.00     0.155 C 
HETATM   26  C   UNK N   1      29.148  17.777   5.680  0.00  0.00    -0.000 A 
HETATM   27  C   UNK N   1      28.037  18.892   7.492  0.00  0.00     0.030 A 
HETATM   28  C   UNK N   1      30.186  17.334   6.497  0.00  0.00     0.014 A 
HETATM   29  C   UNK N   1      30.146  17.694   7.852  0.00  0.00     0.001 A 
HETATM   30  C   UNK N   1      29.074  18.470   8.348  0.00  0.00     0.002 A 
ENDBRANCH  20  21
ENDBRANCH  18  20
ENDBRANCH   1  16
TORSDOF 5
ENDMDL
MODEL 9
REMARK VINA RESULT:      -6.7     13.248     15.710
REMARK  5 active torsions:
REMARK  status: ('A' for Active; 'I' for Inactive)
REMARK    1  A    between atoms: C_4  and  C_8 
REMARK    2  A    between atoms: C_8  and  C_9 
REMARK    3  A    between atoms: C_9  and  C_10 
REMARK       I    between atoms: C_10  and  N_12 
REMARK    4  A    between atoms: N_12  and  C_14 
REMARK    5  A    between atoms: C_14  and  C_15 
ROOT
HETATM    1  C   UNK N   1      25.885  25.386  -8.383  0.00  0.00     0.075 C 
ENDROOT
BRANCH   1   2
HETATM    2  C   UNK N   1      25.976  26.258  -7.417  0.00  0.00     0.018 C 
BRANCH   2   3
HETATM    3  C   UNK N   1      26.122  27.190  -6.365  0.00  0.00    -0.020 A 
HETATM    4  C   UNK N   1      27.402  27.562  -5.984  0.00  0.00     0.023 A 
HETATM    5  C   UNK N   1      27.597  28.081  -4.724  0.00  0.00    -0.013 A 
HETATM    6  C   UNK N   1      26.500  28.200  -3.853  0.00  0.00     0.114 A 
HETATM    7  C   UNK N   1      28.969  28.419  -4.252  0.00  0.00     0.051 C 
HETATM    8  N   UNK N   1      25.256  27.839  -4.261  0.00  0.00    -0.351 N 
HETATM    9  N   UNK N   1      26.685  28.751  -2.570  0.00  0.00    -0.313 N 
HETATM   10  C   UNK N   1      25.053  27.322  -5.494  0.00  0.00     0.101 A 
ATOM     11  HN  UNK N   1      24.464  27.958  -3.628  1.00  0.00     0.166 HD
HETATM   12  C   UNK N   1      27.825  29.416  -2.267  0.00  0.00     0.223 C 
HETATM   13  H   UNK N   1      25.980  28.652  -1.889  0.00  0.00     0.170 HD
HETATM   14  C   UNK N   1      28.908  29.607  -3.303  0.00  0.00     0.108 C 
HETATM   15  O   UNK N   1      27.941  29.941  -1.176  0.00  0.00    -0.273 OA
ENDBRANCH   2   3
ENDBRANCH   1   2
BRANCH   1  16
HETATM   16  C   UNK N   1      27.027  24.505  -8.600  0.00  0.00     0.243 C 
HETATM   17  O   UNK N   1      28.148  24.976  -8.549  0.00  0.00    -0.268 OA
HETATM   18  N   UNK N   1      26.860  23.161  -8.698  0.00  0.00    -0.349 N 
HETATM   19  C   UNK N   1      26.126  22.652  -9.833  0.00  0.00     0.153 C 
BRANCH  18  20
HETATM   20  C   UNK N   1      26.503  22.501  -7.471  0.00  0.00     0.166 C 
BRANCH  20  21
HETATM   21  C   UNK N   1      27.737  22.459  -6.697  0.00  0.00    -0.012 A 
HETATM   22  C   UNK N   1      28.927  21.883  -7.103  0.00  0.00     0.100 A 
HETATM   23  N   UNK N   1      29.886  22.240  -6.224  0.00  0.00    -0.360 N 
HETATM   24  C   UNK N   1      29.313  23.029  -5.294  0.00  0.00     0.044 A 
HETATM   25  C   UNK N   1      31.286  21.880  -6.335  0.00  0.00     0.155 C 
HETATM   26  C   UNK N   1      27.987  23.175  -5.559  0.00  0.00    -0.000 A 
HETATM   27  C   UNK N   1      29.915  23.681  -4.221  0.00  0.00     0.030 A 
HETATM   28  C   UNK N   1      27.152  23.979  -4.784  0.00  0.00     0.014 A 
HETATM   29  C   UNK N   1      27.723  24.645  -3.690  0.00  0.00     0.001 A 
HETATM   30  C   UNK N   1      29.101  24.497  -3.410  0.00  0.00     0.002 A 
ENDBRANCH  20  21
ENDBRANCH  18  20
ENDBRANCH   1  16
TORSDOF 5
ENDMDL
