REMARK  7 active torsions:
REMARK  status: ('A' for Active; 'I' for Inactive)
REMARK    1  A    between atoms: O_1  and  C_2 
REMARK    2  A    between atoms: C_2  and  C_4 
REMARK    3  A    between atoms: C_4  and  C_5 
REMARK    4  A    between atoms: C_8  and  O_9 
REMARK    5  A    between atoms: O_9  and  C_10 
REMARK    6  A    between atoms: C_13  and  O_14 
REMARK    7  A    between atoms: C_15  and  C_17 
ROOT
HETATM    1  C   UNK N   1       1.625   2.663   0.051  0.00  0.00    -0.045 A 
HETATM    2  C   UNK N   1       2.526   1.869  -0.663  0.00  0.00     0.034 A 
HETATM    3  C   UNK N   1       2.501   0.475  -0.533  0.00  0.00     0.070 A 
HETATM    4  C   UNK N   1       1.553  -0.142   0.301  0.00  0.00     0.119 A 
HETATM    5  C   UNK N   1       0.679   0.670   1.070  0.00  0.00     0.070 A 
HETATM    6  C   UNK N   1       0.734   2.058   0.940  0.00  0.00     0.034 A 
HETATM    7 Cl   UNK N   1      -0.451   0.024   2.254  0.00  0.00    -0.081 Cl
HETATM    8 Cl   UNK N   1       3.660  -0.487  -1.436  0.00  0.00    -0.081 Cl
ENDROOT
BRANCH   4   9
HETATM    9  O   UNK N   1       1.516  -1.506   0.342  0.00  0.00    -0.307 OA
BRANCH   9  10
HETATM   10  C   UNK N   1       0.401  -2.265   0.169  0.00  0.00     0.076 A 
HETATM   11  C   UNK N   1       0.498  -3.656   0.258  0.00  0.00     0.040 A 
HETATM   12  C   UNK N   1      -0.633  -4.453   0.063  0.00  0.00     0.040 A 
HETATM   13  C   UNK N   1      -1.878  -3.873  -0.210  0.00  0.00     0.072 A 
HETATM   14  C   UNK N   1      -1.992  -2.463  -0.307  0.00  0.00    -0.019 A 
HETATM   15  C   UNK N   1      -0.842  -1.690  -0.134  0.00  0.00     0.047 A 
BRANCH  13  16
HETATM   16  O   UNK N   1      -2.942  -4.677  -0.374  0.00  0.00    -0.360 OA
HETATM   17  H   UNK N   1      -3.798  -4.316  -0.488  0.00  0.00     0.217 HD
ENDBRANCH  13  16
BRANCH  14  18
HETATM   18  C   UNK N   1      -3.289  -1.713  -0.551  0.00  0.00     0.013 C 
HETATM   19  C   UNK N   1      -3.218  -0.877  -1.816  0.00  0.00     0.015 C 
HETATM   20  C   UNK N   1      -4.569  -2.531  -0.557  0.00  0.00     0.015 C 
ENDBRANCH  14  18
ENDBRANCH   9  10
ENDBRANCH   4   9
BRANCH   1  21
HETATM   21  C   UNK N   1       1.679   4.159  -0.098  0.00  0.00     0.148 C 
BRANCH  21  22
HETATM   22  C   UNK N   1       0.354   4.889  -0.083  0.00  0.00     0.143 C 
HETATM   23  O   UNK N   1      -0.690   4.312   0.175  0.00  0.00    -0.650 OA
BRANCH  22  24
HETATM   24  O   UNK N   1       0.333   6.213  -0.322  0.00  0.00    -0.776 OA
HETATM   25  H   UNK N   1       1.124   6.687  -0.488  0.00  0.00     0.167 HD
ENDBRANCH  22  24
ENDBRANCH  21  22
ENDBRANCH   1  21
TORSDOF 7
