MODEL 1
REMARK VINA RESULT:      -6.9      0.000      0.000
REMARK  7 active torsions:
REMARK  status: ('A' for Active; 'I' for Inactive)
REMARK    1  A    between atoms: O_1  and  C_2 
REMARK    2  A    between atoms: C_2  and  C_4 
REMARK    3  A    between atoms: C_4  and  C_5 
REMARK    4  A    between atoms: C_8  and  O_9 
REMARK    5  A    between atoms: O_9  and  C_10 
REMARK    6  A    between atoms: C_13  and  O_14 
REMARK    7  A    between atoms: C_15  and  C_17 
ROOT
HETATM    1  C   UNK N   1      32.808  17.403   7.377  0.00  0.00    -0.045 A 
HETATM    2  C   UNK N   1      32.067  17.934   8.435  0.00  0.00     0.034 A 
HETATM    3  C   UNK N   1      30.667  17.950   8.383  0.00  0.00     0.070 A 
HETATM    4  C   UNK N   1      29.993  17.409   7.275  0.00  0.00     0.119 A 
HETATM    5  C   UNK N   1      30.750  16.924   6.177  0.00  0.00     0.070 A 
HETATM    6  C   UNK N   1      32.143  16.936   6.241  0.00  0.00     0.034 A 
HETATM    7 Cl   UNK N   1      30.025  16.356   4.678  0.00  0.00    -0.081 Cl
HETATM    8 Cl   UNK N   1      29.772  18.640   9.727  0.00  0.00    -0.081 Cl
ENDROOT
BRANCH   4   9
HETATM    9  O   UNK N   1      28.628  17.377   7.299  0.00  0.00    -0.307 OA
BRANCH   9  10
HETATM   10  C   UNK N   1      27.814  18.152   6.534  0.00  0.00     0.076 A 
HETATM   11  C   UNK N   1      27.773  19.531   6.755  0.00  0.00     0.040 A 
HETATM   12  C   UNK N   1      26.927  20.341   5.993  0.00  0.00     0.040 A 
HETATM   13  C   UNK N   1      26.120  19.787   4.991  0.00  0.00     0.072 A 
HETATM   14  C   UNK N   1      26.147  18.389   4.757  0.00  0.00    -0.019 A 
HETATM   15  C   UNK N   1      26.981  17.599   5.550  0.00  0.00     0.047 A 
BRANCH  13  16
HETATM   16  O   UNK N   1      25.334  20.605   4.271  0.00  0.00    -0.360 OA
HETATM   17  H   UNK N   1      24.520  20.300   3.925  0.00  0.00     0.217 HD
ENDBRANCH  13  16
BRANCH  14  18
HETATM   18  C   UNK N   1      25.358  17.676   3.674  0.00  0.00     0.013 C 
HETATM   19  C   UNK N   1      26.154  16.536   3.065  0.00  0.00     0.015 C 
HETATM   20  C   UNK N   1      23.969  17.182   4.043  0.00  0.00     0.015 C 
ENDBRANCH  14  18
ENDBRANCH   9  10
ENDBRANCH   4   9
BRANCH   1  21
HETATM   21  C   UNK N   1      34.311  17.408   7.451  0.00  0.00     0.148 C 
BRANCH  21  22
HETATM   22  C   UNK N   1      34.927  18.103   8.645  0.00  0.00     0.143 C 
HETATM   23  O   UNK N   1      35.119  17.515   9.697  0.00  0.00    -0.650 OA
BRANCH  22  24
HETATM   24  O   UNK N   1      35.307  19.388   8.530  0.00  0.00    -0.776 OA
HETATM   25  H   UNK N   1      35.081  19.894   7.775  0.00  0.00     0.167 HD
ENDBRANCH  22  24
ENDBRANCH  21  22
ENDBRANCH   1  21
TORSDOF 7
ENDMDL
MODEL 2
REMARK VINA RESULT:      -6.9      0.253      2.037
REMARK  7 active torsions:
REMARK  status: ('A' for Active; 'I' for Inactive)
REMARK    1  A    between atoms: O_1  and  C_2 
REMARK    2  A    between atoms: C_2  and  C_4 
REMARK    3  A    between atoms: C_4  and  C_5 
REMARK    4  A    between atoms: C_8  and  O_9 
REMARK    5  A    between atoms: O_9  and  C_10 
REMARK    6  A    between atoms: C_13  and  O_14 
REMARK    7  A    between atoms: C_15  and  C_17 
ROOT
HETATM    1  C   UNK N   1      32.674  17.454   7.345  0.00  0.00    -0.045 A 
HETATM    2  C   UNK N   1      32.019  16.732   6.344  0.00  0.00     0.034 A 
HETATM    3  C   UNK N   1      30.623  16.622   6.346  0.00  0.00     0.070 A 
HETATM    4  C   UNK N   1      29.864  17.258   7.343  0.00  0.00     0.119 A 
HETATM    5  C   UNK N   1      30.535  17.941   8.391  0.00  0.00     0.070 A 
HETATM    6  C   UNK N   1      31.928  18.021   8.380  0.00  0.00     0.034 A 
HETATM    7 Cl   UNK N   1      29.706  18.653   9.770  0.00  0.00    -0.081 Cl
HETATM    8 Cl   UNK N   1      29.838  15.693   5.079  0.00  0.00    -0.081 Cl
ENDROOT
BRANCH   4   9
HETATM    9  O   UNK N   1      28.502  17.187   7.266  0.00  0.00    -0.307 OA
BRANCH   9  10
HETATM   10  C   UNK N   1      27.718  17.992   6.501  0.00  0.00     0.076 A 
HETATM   11  C   UNK N   1      27.766  19.376   6.689  0.00  0.00     0.040 A 
HETATM   12  C   UNK N   1      26.953  20.218   5.926  0.00  0.00     0.040 A 
HETATM   13  C   UNK N   1      26.090  19.692   4.956  0.00  0.00     0.072 A 
HETATM   14  C   UNK N   1      26.027  18.290   4.756  0.00  0.00    -0.019 A 
HETATM   15  C   UNK N   1      26.831  17.468   5.549  0.00  0.00     0.047 A 
BRANCH  13  16
HETATM   16  O   UNK N   1      25.338  20.540   4.234  0.00  0.00    -0.360 OA
HETATM   17  H   UNK N   1      25.577  20.757   3.356  0.00  0.00     0.217 HD
ENDBRANCH  13  16
BRANCH  14  18
HETATM   18  C   UNK N   1      25.171  17.601   3.708  0.00  0.00     0.013 C 
HETATM   19  C   UNK N   1      25.951  16.528   2.971  0.00  0.00     0.015 C 
HETATM   20  C   UNK N   1      23.840  17.033   4.169  0.00  0.00     0.015 C 
ENDBRANCH  14  18
ENDBRANCH   9  10
ENDBRANCH   4   9
BRANCH   1  21
HETATM   21  C   UNK N   1      34.175  17.548   7.326  0.00  0.00     0.148 C 
BRANCH  21  22
HETATM   22  C   UNK N   1      34.830  18.161   8.544  0.00  0.00     0.143 C 
HETATM   23  O   UNK N   1      35.280  19.296   8.525  0.00  0.00    -0.650 OA
BRANCH  22  24
HETATM   24  O   UNK N   1      34.882  17.452   9.687  0.00  0.00    -0.776 OA
HETATM   25  H   UNK N   1      35.245  16.588   9.703  0.00  0.00     0.167 HD
ENDBRANCH  22  24
ENDBRANCH  21  22
ENDBRANCH   1  21
TORSDOF 7
ENDMDL
MODEL 3
REMARK VINA RESULT:      -6.8      4.922      9.099
REMARK  7 active torsions:
REMARK  status: ('A' for Active; 'I' for Inactive)
REMARK    1  A    between atoms: O_1  and  C_2 
REMARK    2  A    between atoms: C_2  and  C_4 
REMARK    3  A    between atoms: C_4  and  C_5 
REMARK    4  A    between atoms: C_8  and  O_9 
REMARK    5  A    between atoms: O_9  and  C_10 
REMARK    6  A    between atoms: C_13  and  O_14 
REMARK    7  A    between atoms: C_15  and  C_17 
ROOT
HETATM    1  C   UNK N   1      21.906  19.955   3.058  0.00  0.00    -0.045 A 
HETATM    2  C   UNK N   1      21.861  18.887   3.958  0.00  0.00     0.034 A 
HETATM    3  C   UNK N   1      23.038  18.397   4.538  0.00  0.00     0.070 A 
HETATM    4  C   UNK N   1      24.276  18.989   4.236  0.00  0.00     0.119 A 
HETATM    5  C   UNK N   1      24.325  20.034   3.277  0.00  0.00     0.070 A 
HETATM    6  C   UNK N   1      23.143  20.494   2.697  0.00  0.00     0.034 A 
HETATM    7 Cl   UNK N   1      25.826  20.757   2.710  0.00  0.00    -0.081 Cl
HETATM    8 Cl   UNK N   1      22.940  17.044   5.653  0.00  0.00    -0.081 Cl
ENDROOT
BRANCH   4   9
HETATM    9  O   UNK N   1      25.388  18.528   4.879  0.00  0.00    -0.307 OA
BRANCH   9  10
HETATM   10  C   UNK N   1      26.367  17.775   4.309  0.00  0.00     0.076 A 
HETATM   11  C   UNK N   1      27.706  18.099   4.544  0.00  0.00     0.040 A 
HETATM   12  C   UNK N   1      28.725  17.350   3.951  0.00  0.00     0.040 A 
HETATM   13  C   UNK N   1      28.422  16.260   3.125  0.00  0.00     0.072 A 
HETATM   14  C   UNK N   1      27.069  15.921   2.873  0.00  0.00    -0.019 A 
HETATM   15  C   UNK N   1      26.069  16.702   3.457  0.00  0.00     0.047 A 
BRANCH  13  16
HETATM   16  O   UNK N   1      29.434  15.557   2.588  0.00  0.00    -0.360 OA
HETATM   17  H   UNK N   1      29.777  15.783   1.747  0.00  0.00     0.217 HD
ENDBRANCH  13  16
BRANCH  14  18
HETATM   18  C   UNK N   1      26.612  14.739   2.037  0.00  0.00     0.013 C 
HETATM   19  C   UNK N   1      26.758  13.433   2.795  0.00  0.00     0.015 C 
HETATM   20  C   UNK N   1      25.222  14.819   1.430  0.00  0.00     0.015 C 
ENDBRANCH  14  18
ENDBRANCH   9  10
ENDBRANCH   4   9
BRANCH   1  21
HETATM   21  C   UNK N   1      20.629  20.456   2.442  0.00  0.00     0.148 C 
BRANCH  21  22
HETATM   22  C   UNK N   1      20.724  20.995   1.031  0.00  0.00     0.143 C 
HETATM   23  O   UNK N   1      20.928  20.260   0.079  0.00  0.00    -0.650 OA
BRANCH  22  24
HETATM   24  O   UNK N   1      20.543  22.312   0.820  0.00  0.00    -0.776 OA
HETATM   25  H   UNK N   1      20.343  22.641  -0.035  0.00  0.00     0.167 HD
ENDBRANCH  22  24
ENDBRANCH  21  22
ENDBRANCH   1  21
TORSDOF 7
ENDMDL
MODEL 4
REMARK VINA RESULT:      -6.8      1.717      7.343
REMARK  7 active torsions:
REMARK  status: ('A' for Active; 'I' for Inactive)
REMARK    1  A    between atoms: O_1  and  C_2 
REMARK    2  A    between atoms: C_2  and  C_4 
REMARK    3  A    between atoms: C_4  and  C_5 
REMARK    4  A    between atoms: C_8  and  O_9 
REMARK    5  A    between atoms: O_9  and  C_10 
REMARK    6  A    between atoms: C_13  and  O_14 
REMARK    7  A    between atoms: C_15  and  C_17 
ROOT
HETATM    1  C   UNK N   1      26.643  19.459   4.194  0.00  0.00    -0.045 A 
HETATM    2  C   UNK N   1      26.901  19.833   5.515  0.00  0.00     0.034 A 
HETATM    3  C   UNK N   1      27.685  19.019   6.343  0.00  0.00     0.070 A 
HETATM    4  C   UNK N   1      28.238  17.827   5.846  0.00  0.00     0.119 A 
HETATM    5  C   UNK N   1      27.925  17.421   4.522  0.00  0.00     0.070 A 
HETATM    6  C   UNK N   1      27.126  18.237   3.721  0.00  0.00     0.034 A 
HETATM    7 Cl   UNK N   1      28.438  15.885   3.834  0.00  0.00    -0.081 Cl
HETATM    8 Cl   UNK N   1      27.974  19.517   8.002  0.00  0.00    -0.081 Cl
ENDROOT
BRANCH   4   9
HETATM    9  O   UNK N   1      29.056  17.102   6.663  0.00  0.00    -0.307 OA
BRANCH   9  10
HETATM   10  C   UNK N   1      30.405  17.244   6.749  0.00  0.00     0.076 A 
HETATM   11  C   UNK N   1      30.976  17.660   7.954  0.00  0.00     0.040 A 
HETATM   12  C   UNK N   1      32.359  17.832   8.054  0.00  0.00     0.040 A 
HETATM   13  C   UNK N   1      33.193  17.576   6.958  0.00  0.00     0.072 A 
HETATM   14  C   UNK N   1      32.628  17.156   5.727  0.00  0.00    -0.019 A 
HETATM   15  C   UNK N   1      31.241  17.018   5.645  0.00  0.00     0.047 A 
BRANCH  13  16
HETATM   16  O   UNK N   1      34.518  17.738   7.105  0.00  0.00    -0.360 OA
HETATM   17  H   UNK N   1      35.084  16.995   7.171  0.00  0.00     0.217 HD
ENDBRANCH  13  16
BRANCH  14  18
HETATM   18  C   UNK N   1      33.425  16.804   4.484  0.00  0.00     0.013 C 
HETATM   19  C   UNK N   1      34.003  15.403   4.573  0.00  0.00     0.015 C 
HETATM   20  C   UNK N   1      32.728  16.979   3.145  0.00  0.00     0.015 C 
ENDBRANCH  14  18
ENDBRANCH   9  10
ENDBRANCH   4   9
BRANCH   1  21
HETATM   21  C   UNK N   1      25.790  20.346   3.329  0.00  0.00     0.148 C 
BRANCH  21  22
HETATM   22  C   UNK N   1      24.292  20.172   3.450  0.00  0.00     0.143 C 
HETATM   23  O   UNK N   1      23.805  19.202   4.009  0.00  0.00    -0.650 OA
BRANCH  22  24
HETATM   24  O   UNK N   1      23.480  21.128   2.965  0.00  0.00    -0.776 OA
HETATM   25  H   UNK N   1      23.230  21.138   2.062  0.00  0.00     0.167 HD
ENDBRANCH  22  24
ENDBRANCH  21  22
ENDBRANCH   1  21
TORSDOF 7
ENDMDL
MODEL 5
REMARK VINA RESULT:      -6.8      5.478      9.216
REMARK  7 active torsions:
REMARK  status: ('A' for Active; 'I' for Inactive)
REMARK    1  A    between atoms: O_1  and  C_2 
REMARK    2  A    between atoms: C_2  and  C_4 
REMARK    3  A    between atoms: C_4  and  C_5 
REMARK    4  A    between atoms: C_8  and  O_9 
REMARK    5  A    between atoms: O_9  and  C_10 
REMARK    6  A    between atoms: C_13  and  O_14 
REMARK    7  A    between atoms: C_15  and  C_17 
ROOT
HETATM    1  C   UNK N   1      21.952  19.945   3.071  0.00  0.00    -0.045 A 
HETATM    2  C   UNK N   1      23.187  20.508   2.740  0.00  0.00     0.034 A 
HETATM    3  C   UNK N   1      24.372  19.980   3.269  0.00  0.00     0.070 A 
HETATM    4  C   UNK N   1      24.332  18.863   4.120  0.00  0.00     0.119 A 
HETATM    5  C   UNK N   1      23.072  18.331   4.501  0.00  0.00     0.070 A 
HETATM    6  C   UNK N   1      21.903  18.885   3.978  0.00  0.00     0.034 A 
HETATM    7 Cl   UNK N   1      22.885  17.029   5.670  0.00  0.00    -0.081 Cl
HETATM    8 Cl   UNK N   1      25.903  20.726   2.841  0.00  0.00    -0.081 Cl
ENDROOT
BRANCH   4   9
HETATM    9  O   UNK N   1      25.514  18.336   4.554  0.00  0.00    -0.307 OA
BRANCH   9  10
HETATM   10  C   UNK N   1      26.247  17.403   3.889  0.00  0.00     0.076 A 
HETATM   11  C   UNK N   1      27.641  17.494   3.896  0.00  0.00     0.040 A 
HETATM   12  C   UNK N   1      28.410  16.556   3.202  0.00  0.00     0.040 A 
HETATM   13  C   UNK N   1      27.799  15.508   2.502  0.00  0.00     0.072 A 
HETATM   14  C   UNK N   1      26.385  15.405   2.482  0.00  0.00    -0.019 A 
HETATM   15  C   UNK N   1      25.638  16.369   3.162  0.00  0.00     0.047 A 
BRANCH  13  16
HETATM   16  O   UNK N   1      28.577  14.620   1.862  0.00  0.00    -0.360 OA
HETATM   17  H   UNK N   1      29.366  14.895   1.440  0.00  0.00     0.217 HD
ENDBRANCH  13  16
BRANCH  14  18
HETATM   18  C   UNK N   1      25.607  14.293   1.802  0.00  0.00     0.013 C 
HETATM   19  C   UNK N   1      25.527  13.055   2.677  0.00  0.00     0.015 C 
HETATM   20  C   UNK N   1      24.220  14.637   1.286  0.00  0.00     0.015 C 
ENDBRANCH  14  18
ENDBRANCH   9  10
ENDBRANCH   4   9
BRANCH   1  21
HETATM   21  C   UNK N   1      20.693  20.537   2.498  0.00  0.00     0.148 C 
BRANCH  21  22
HETATM   22  C   UNK N   1      20.748  20.975   1.051  0.00  0.00     0.143 C 
HETATM   23  O   UNK N   1      20.946  20.177   0.149  0.00  0.00    -0.650 OA
BRANCH  22  24
HETATM   24  O   UNK N   1      20.536  22.269   0.750  0.00  0.00    -0.776 OA
HETATM   25  H   UNK N   1      19.948  22.794   1.258  0.00  0.00     0.167 HD
ENDBRANCH  22  24
ENDBRANCH  21  22
ENDBRANCH   1  21
TORSDOF 7
ENDMDL
MODEL 6
REMARK VINA RESULT:      -6.6      4.101      9.540
REMARK  7 active torsions:
REMARK  status: ('A' for Active; 'I' for Inactive)
REMARK    1  A    between atoms: O_1  and  C_2 
REMARK    2  A    between atoms: C_2  and  C_4 
REMARK    3  A    between atoms: C_4  and  C_5 
REMARK    4  A    between atoms: C_8  and  O_9 
REMARK    5  A    between atoms: O_9  and  C_10 
REMARK    6  A    between atoms: C_13  and  O_14 
REMARK    7  A    between atoms: C_15  and  C_17 
ROOT
HETATM    1  C   UNK N   1      31.107  17.378   8.169  0.00  0.00    -0.045 A 
HETATM    2  C   UNK N   1      31.277  15.991   8.162  0.00  0.00     0.034 A 
HETATM    3  C   UNK N   1      32.557  15.432   8.253  0.00  0.00     0.070 A 
HETATM    4  C   UNK N   1      33.685  16.262   8.376  0.00  0.00     0.119 A 
HETATM    5  C   UNK N   1      33.514  17.670   8.323  0.00  0.00     0.070 A 
HETATM    6  C   UNK N   1      32.231  18.205   8.212  0.00  0.00     0.034 A 
HETATM    7 Cl   UNK N   1      34.856  18.808   8.323  0.00  0.00    -0.081 Cl
HETATM    8 Cl   UNK N   1      32.730  13.685   8.225  0.00  0.00    -0.081 Cl
ENDROOT
BRANCH   4   9
HETATM    9  O   UNK N   1      34.907  15.674   8.536  0.00  0.00    -0.307 OA
BRANCH   9  10
HETATM   10  C   UNK N   1      35.416  15.234   9.717  0.00  0.00     0.076 A 
HETATM   11  C   UNK N   1      34.930  15.766  10.914  0.00  0.00     0.040 A 
HETATM   12  C   UNK N   1      35.455  15.341  12.137  0.00  0.00     0.040 A 
HETATM   13  C   UNK N   1      36.463  14.369  12.183  0.00  0.00     0.072 A 
HETATM   14  C   UNK N   1      36.969  13.822  10.977  0.00  0.00    -0.019 A 
HETATM   15  C   UNK N   1      36.446  14.283   9.767  0.00  0.00     0.047 A 
BRANCH  13  16
HETATM   16  O   UNK N   1      36.927  13.978  13.382  0.00  0.00    -0.360 OA
HETATM   17  H   UNK N   1      37.773  14.250  13.676  0.00  0.00     0.217 HD
ENDBRANCH  13  16
BRANCH  14  18
HETATM   18  C   UNK N   1      38.024  12.734  10.895  0.00  0.00     0.013 C 
HETATM   19  C   UNK N   1      37.398  11.351  10.915  0.00  0.00     0.015 C 
HETATM   20  C   UNK N   1      39.019  12.821   9.750  0.00  0.00     0.015 C 
ENDBRANCH  14  18
ENDBRANCH   9  10
ENDBRANCH   4   9
BRANCH   1  21
HETATM   21  C   UNK N   1      29.721  17.953   8.060  0.00  0.00     0.148 C 
BRANCH  21  22
HETATM   22  C   UNK N   1      29.015  18.271   9.360  0.00  0.00     0.143 C 
HETATM   23  O   UNK N   1      29.617  18.731  10.317  0.00  0.00    -0.650 OA
BRANCH  22  24
HETATM   24  O   UNK N   1      27.687  18.076   9.448  0.00  0.00    -0.776 OA
HETATM   25  H   UNK N   1      27.082  18.732   9.160  0.00  0.00     0.167 HD
ENDBRANCH  22  24
ENDBRANCH  21  22
ENDBRANCH   1  21
TORSDOF 7
ENDMDL
MODEL 7
REMARK VINA RESULT:      -6.5      8.230      9.548
REMARK  7 active torsions:
REMARK  status: ('A' for Active; 'I' for Inactive)
REMARK    1  A    between atoms: O_1  and  C_2 
REMARK    2  A    between atoms: C_2  and  C_4 
REMARK    3  A    between atoms: C_4  and  C_5 
REMARK    4  A    between atoms: C_8  and  O_9 
REMARK    5  A    between atoms: O_9  and  C_10 
REMARK    6  A    between atoms: C_13  and  O_14 
REMARK    7  A    between atoms: C_15  and  C_17 
ROOT
HETATM    1  C   UNK N   1      22.391  12.817   9.714  0.00  0.00    -0.045 A 
HETATM    2  C   UNK N   1      23.168  13.275   8.647  0.00  0.00     0.034 A 
HETATM    3  C   UNK N   1      22.741  14.360   7.872  0.00  0.00     0.070 A 
HETATM    4  C   UNK N   1      21.535  15.015   8.175  0.00  0.00     0.119 A 
HETATM    5  C   UNK N   1      20.720  14.511   9.222  0.00  0.00     0.070 A 
HETATM    6  C   UNK N   1      21.156  13.417   9.969  0.00  0.00     0.034 A 
HETATM    7 Cl   UNK N   1      19.127  15.154   9.603  0.00  0.00    -0.081 Cl
HETATM    8 Cl   UNK N   1      23.739  14.895   6.529  0.00  0.00    -0.081 Cl
ENDROOT
BRANCH   4   9
HETATM    9  O   UNK N   1      21.193  16.114   7.440  0.00  0.00    -0.307 OA
BRANCH   9  10
HETATM   10  C   UNK N   1      20.755  16.090   6.153  0.00  0.00     0.076 A 
HETATM   11  C   UNK N   1      19.990  15.008   5.709  0.00  0.00     0.040 A 
HETATM   12  C   UNK N   1      19.549  14.957   4.384  0.00  0.00     0.040 A 
HETATM   13  C   UNK N   1      19.853  15.989   3.488  0.00  0.00     0.072 A 
HETATM   14  C   UNK N   1      20.632  17.092   3.923  0.00  0.00    -0.019 A 
HETATM   15  C   UNK N   1      21.083  17.107   5.244  0.00  0.00     0.047 A 
BRANCH  13  16
HETATM   16  O   UNK N   1      19.394  15.906   2.228  0.00  0.00    -0.360 OA
HETATM   17  H   UNK N   1      19.328  16.672   1.694  0.00  0.00     0.217 HD
ENDBRANCH  13  16
BRANCH  14  18
HETATM   18  C   UNK N   1      20.989  18.292   3.065  0.00  0.00     0.013 C 
HETATM   19  C   UNK N   1      19.787  19.192   2.840  0.00  0.00     0.015 C 
HETATM   20  C   UNK N   1      22.173  19.133   3.512  0.00  0.00     0.015 C 
ENDBRANCH  14  18
ENDBRANCH   9  10
ENDBRANCH   4   9
BRANCH   1  21
HETATM   21  C   UNK N   1      22.867  11.643  10.525  0.00  0.00     0.148 C 
BRANCH  21  22
HETATM   22  C   UNK N   1      23.663  11.959  11.772  0.00  0.00     0.143 C 
HETATM   23  O   UNK N   1      23.173  11.860  12.885  0.00  0.00    -0.650 OA
BRANCH  22  24
HETATM   24  O   UNK N   1      24.953  12.322  11.651  0.00  0.00    -0.776 OA
HETATM   25  H   UNK N   1      25.556  11.806  11.153  0.00  0.00     0.167 HD
ENDBRANCH  22  24
ENDBRANCH  21  22
ENDBRANCH   1  21
TORSDOF 7
ENDMDL
MODEL 8
REMARK VINA RESULT:      -6.5     10.940     13.618
REMARK  7 active torsions:
REMARK  status: ('A' for Active; 'I' for Inactive)
REMARK    1  A    between atoms: O_1  and  C_2 
REMARK    2  A    between atoms: C_2  and  C_4 
REMARK    3  A    between atoms: C_4  and  C_5 
REMARK    4  A    between atoms: C_8  and  O_9 
REMARK    5  A    between atoms: O_9  and  C_10 
REMARK    6  A    between atoms: C_13  and  O_14 
REMARK    7  A    between atoms: C_15  and  C_17 
ROOT
HETATM    1  C   UNK N   1      36.450  12.399  12.028  0.00  0.00    -0.045 A 
HETATM    2  C   UNK N   1      35.406  11.556  12.417  0.00  0.00     0.034 A 
HETATM    3  C   UNK N   1      34.737  11.768  13.629  0.00  0.00     0.070 A 
HETATM    4  C   UNK N   1      35.093  12.846  14.456  0.00  0.00     0.119 A 
HETATM    5  C   UNK N   1      36.192  13.665  14.086  0.00  0.00     0.070 A 
HETATM    6  C   UNK N   1      36.858  13.424  12.884  0.00  0.00     0.034 A 
HETATM    7 Cl   UNK N   1      36.824  14.954  15.104  0.00  0.00    -0.081 Cl
HETATM    8 Cl   UNK N   1      33.440  10.676  14.089  0.00  0.00    -0.081 Cl
ENDROOT
BRANCH   4   9
HETATM    9  O   UNK N   1      34.366  13.060  15.592  0.00  0.00    -0.307 OA
BRANCH   9  10
HETATM   10  C   UNK N   1      34.733  12.669  16.841  0.00  0.00     0.076 A 
HETATM   11  C   UNK N   1      34.937  13.635  17.830  0.00  0.00     0.040 A 
HETATM   12  C   UNK N   1      35.334  13.253  19.114  0.00  0.00     0.040 A 
HETATM   13  C   UNK N   1      35.520  11.902  19.433  0.00  0.00     0.072 A 
HETATM   14  C   UNK N   1      35.320  10.910  18.440  0.00  0.00    -0.019 A 
HETATM   15  C   UNK N   1      34.949  11.319  17.157  0.00  0.00     0.047 A 
BRANCH  13  16
HETATM   16  O   UNK N   1      35.886  11.580  20.685  0.00  0.00    -0.360 OA
HETATM   17  H   UNK N   1      35.383  11.873  21.418  0.00  0.00     0.217 HD
ENDBRANCH  13  16
BRANCH  14  18
HETATM   18  C   UNK N   1      35.443   9.415  18.672  0.00  0.00     0.013 C 
HETATM   19  C   UNK N   1      34.155   8.830  19.222  0.00  0.00     0.015 C 
HETATM   20  C   UNK N   1      35.921   8.572  17.502  0.00  0.00     0.015 C 
ENDBRANCH  14  18
ENDBRANCH   9  10
ENDBRANCH   4   9
BRANCH   1  21
HETATM   21  C   UNK N   1      37.160  12.145  10.727  0.00  0.00     0.148 C 
BRANCH  21  22
HETATM   22  C   UNK N   1      37.956  13.296  10.153  0.00  0.00     0.143 C 
HETATM   23  O   UNK N   1      37.444  14.117   9.408  0.00  0.00    -0.650 OA
BRANCH  22  24
HETATM   24  O   UNK N   1      39.247  13.440  10.504  0.00  0.00    -0.776 OA
HETATM   25  H   UNK N   1      39.526  13.302  11.387  0.00  0.00     0.167 HD
ENDBRANCH  22  24
ENDBRANCH  21  22
ENDBRANCH   1  21
TORSDOF 7
ENDMDL
MODEL 9
REMARK VINA RESULT:      -6.4     11.758     14.986
REMARK  7 active torsions:
REMARK  status: ('A' for Active; 'I' for Inactive)
REMARK    1  A    between atoms: O_1  and  C_2 
REMARK    2  A    between atoms: C_2  and  C_4 
REMARK    3  A    between atoms: C_4  and  C_5 
REMARK    4  A    between atoms: C_8  and  O_9 
REMARK    5  A    between atoms: O_9  and  C_10 
REMARK    6  A    between atoms: C_13  and  O_14 
REMARK    7  A    between atoms: C_15  and  C_17 
ROOT
HETATM    1  C   UNK N   1      25.978  26.489  -5.756  0.00  0.00    -0.045 A 
HETATM    2  C   UNK N   1      25.417  25.210  -5.811  0.00  0.00     0.034 A 
HETATM    3  C   UNK N   1      26.142  24.140  -6.349  0.00  0.00     0.070 A 
HETATM    4  C   UNK N   1      27.451  24.336  -6.820  0.00  0.00     0.119 A 
HETATM    5  C   UNK N   1      27.995  25.647  -6.817  0.00  0.00     0.070 A 
HETATM    6  C   UNK N   1      27.248  26.703  -6.294  0.00  0.00     0.034 A 
HETATM    7 Cl   UNK N   1      29.564  26.045  -7.509  0.00  0.00    -0.081 Cl
HETATM    8 Cl   UNK N   1      25.396  22.551  -6.414  0.00  0.00    -0.081 Cl
ENDROOT
BRANCH   4   9
HETATM    9  O   UNK N   1      28.148  23.252  -7.269  0.00  0.00    -0.307 OA
BRANCH   9  10
HETATM   10  C   UNK N   1      28.966  22.477  -6.508  0.00  0.00     0.076 A 
HETATM   11  C   UNK N   1      29.509  21.311  -7.054  0.00  0.00     0.040 A 
HETATM   12  C   UNK N   1      30.336  20.491  -6.281  0.00  0.00     0.040 A 
HETATM   13  C   UNK N   1      30.642  20.830  -4.958  0.00  0.00     0.072 A 
HETATM   14  C   UNK N   1      30.096  22.008  -4.388  0.00  0.00    -0.019 A 
HETATM   15  C   UNK N   1      29.252  22.797  -5.173  0.00  0.00     0.047 A 
BRANCH  13  16
HETATM   16  O   UNK N   1      31.455  20.022  -4.256  0.00  0.00    -0.360 OA
HETATM   17  H   UNK N   1      32.048  19.447  -4.696  0.00  0.00     0.217 HD
ENDBRANCH  13  16
BRANCH  14  18
HETATM   18  C   UNK N   1      30.388  22.508  -2.984  0.00  0.00     0.013 C 
HETATM   19  C   UNK N   1      31.386  23.652  -2.998  0.00  0.00     0.015 C 
HETATM   20  C   UNK N   1      29.195  22.889  -2.125  0.00  0.00     0.015 C 
ENDBRANCH  14  18
ENDBRANCH   9  10
ENDBRANCH   4   9
BRANCH   1  21
HETATM   21  C   UNK N   1      25.175  27.624  -5.183  0.00  0.00     0.148 C 
BRANCH  21  22
HETATM   22  C   UNK N   1      25.627  28.165  -3.844  0.00  0.00     0.143 C 
HETATM   23  O   UNK N   1      25.806  27.430  -2.886  0.00  0.00    -0.650 OA
BRANCH  22  24
HETATM   24  O   UNK N   1      25.874  29.482  -3.719  0.00  0.00    -0.776 OA
HETATM   25  H   UNK N   1      25.189  30.114  -3.820  0.00  0.00     0.167 HD
ENDBRANCH  22  24
ENDBRANCH  21  22
ENDBRANCH   1  21
TORSDOF 7
ENDMDL
