MODEL 1
REMARK VINA RESULT:      -6.8      0.000      0.000
REMARK  6 active torsions:
REMARK  status: ('A' for Active; 'I' for Inactive)
REMARK    1  A    between atoms: S_1  and  N_3 
REMARK    2  A    between atoms: S_1  and  C_4 
REMARK    3  A    between atoms: C_10  and  C_15 
REMARK    4  A    between atoms: N_11  and  C_23 
REMARK    5  A    between atoms: C_15  and  N_21 
REMARK    6  A    between atoms: C_27  and  O_28 
ROOT
HETATM    1  C   UNK N   1      35.376  14.399  11.165  0.00  0.00     0.122 A 
HETATM    2  C   UNK N   1      34.286  15.278  11.057  0.00  0.00     0.046 A 
HETATM    3  C   UNK N   1      33.948  15.534   9.696  0.00  0.00    -0.002 A 
HETATM    4  C   UNK N   1      34.746  14.870   8.799  0.00  0.00     0.132 A 
HETATM    5  S   UNK N   1      35.849  13.980   9.634  0.00  0.00    -0.062 SA
HETATM    6  C   UNK N   1      32.805  16.360   9.262  0.00  0.00     0.041 A 
HETATM    7  C   UNK N   1      32.368  16.554   7.986  0.00  0.00     0.057 A 
HETATM    8  N   UNK N   1      33.024  15.971   6.819  0.00  0.00    -0.238 N 
HETATM    9  S   UNK N   1      34.439  14.935   7.089  0.00  0.00     0.277 S 
HETATM   10  O   UNK N   1      35.570  15.513   6.225  0.00  0.00    -0.199 OA
HETATM   11  O   UNK N   1      34.080  13.579   6.465  0.00  0.00    -0.199 OA
ENDROOT
BRANCH   8  12
HETATM   12  C   UNK N   1      32.599  16.176   5.454  0.00  0.00     0.053 A 
HETATM   13  C   UNK N   1      31.767  15.259   4.778  0.00  0.00     0.067 A 
HETATM   14  C   UNK N   1      31.368  15.494   3.457  0.00  0.00     0.067 A 
HETATM   15  C   UNK N   1      31.790  16.642   2.787  0.00  0.00     0.036 A 
HETATM   16  C   UNK N   1      32.612  17.560   3.436  0.00  0.00     0.005 A 
HETATM   17  C   UNK N   1      33.007  17.326   4.753  0.00  0.00     0.031 A 
BRANCH  14  18
HETATM   18  O   UNK N   1      30.572  14.611   2.830  0.00  0.00    -0.361 OA
HETATM   19  H   UNK N   1      30.097  13.972   3.325  0.00  0.00     0.217 HD
ENDBRANCH  14  18
ENDBRANCH   8  12
BRANCH   7  20
HETATM   20  C   UNK N   1      31.157  17.454   7.859  0.00  0.00     0.330 C 
BRANCH  20  21
HETATM   21  N   UNK N   1      29.871  16.763   8.059  0.00  0.00     0.098 N 
HETATM   22  C   UNK N   1      29.077  16.915   6.829  0.00  0.00     0.299 C 
HETATM   23  C   UNK N   1      28.318  18.257   6.777  0.00  0.00     0.198 C 
HETATM   24  O   UNK N   1      28.790  19.134   7.766  0.00  0.00    -0.388 OA
HETATM   25  C   UNK N   1      28.393  18.572   8.989  0.00  0.00     0.198 C 
HETATM   26  C   UNK N   1      29.119  17.237   9.238  0.00  0.00     0.299 C 
ENDBRANCH  20  21
ENDBRANCH   7  20
BRANCH   1  27
HETATM   27  S   UNK N   1      36.004  13.663  12.663  0.00  0.00     0.263 S 
HETATM   28  O   UNK N   1      36.998  12.511  12.457  0.00  0.00    -0.200 OA
HETATM   29  O   UNK N   1      34.879  12.990  13.464  0.00  0.00    -0.200 OA
BRANCH  27  30
HETATM   30  N   UNK N   1      36.756  14.754  13.827  0.00  0.00    -0.324 N 
HETATM   31  H   UNK N   1      36.397  15.170  14.686  0.00  0.00     0.169 HD
HETATM   32  H   UNK N   1      37.716  15.016  13.601  0.00  0.00     0.169 HD
ENDBRANCH  27  30
ENDBRANCH   1  27
TORSDOF 6
ENDMDL
MODEL 2
REMARK VINA RESULT:      -6.7      3.599      8.474
REMARK  6 active torsions:
REMARK  status: ('A' for Active; 'I' for Inactive)
REMARK    1  A    between atoms: S_1  and  N_3 
REMARK    2  A    between atoms: S_1  and  C_4 
REMARK    3  A    between atoms: C_10  and  C_15 
REMARK    4  A    between atoms: N_11  and  C_23 
REMARK    5  A    between atoms: C_15  and  N_21 
REMARK    6  A    between atoms: C_27  and  O_28 
ROOT
HETATM    1  C   UNK N   1      27.359  18.579   5.410  0.00  0.00     0.122 A 
HETATM    2  C   UNK N   1      28.326  17.730   4.848  0.00  0.00     0.046 A 
HETATM    3  C   UNK N   1      29.380  17.449   5.766  0.00  0.00    -0.002 A 
HETATM    4  C   UNK N   1      29.219  18.057   6.986  0.00  0.00     0.132 A 
HETATM    5  S   UNK N   1      27.821  18.923   6.963  0.00  0.00    -0.062 SA
HETATM    6  C   UNK N   1      30.503  16.533   5.490  0.00  0.00     0.041 A 
HETATM    7  C   UNK N   1      31.477  16.143   6.359  0.00  0.00     0.057 A 
HETATM    8  N   UNK N   1      31.564  16.628   7.734  0.00  0.00    -0.238 N 
HETATM    9  S   UNK N   1      30.317  17.756   8.300  0.00  0.00     0.277 S 
HETATM   10  O   UNK N   1      31.060  18.984   8.847  0.00  0.00    -0.199 OA
HETATM   11  O   UNK N   1      29.669  17.077   9.515  0.00  0.00    -0.199 OA
ENDROOT
BRANCH   8  12
HETATM   12  C   UNK N   1      32.597  16.251   8.671  0.00  0.00     0.053 A 
HETATM   13  C   UNK N   1      33.681  17.098   8.978  0.00  0.00     0.067 A 
HETATM   14  C   UNK N   1      34.660  16.703   9.898  0.00  0.00     0.067 A 
HETATM   15  C   UNK N   1      34.577  15.459  10.524  0.00  0.00     0.036 A 
HETATM   16  C   UNK N   1      33.514  14.607  10.234  0.00  0.00     0.005 A 
HETATM   17  C   UNK N   1      32.539  15.003   9.319  0.00  0.00     0.031 A 
BRANCH  14  18
HETATM   18  O   UNK N   1      35.684  17.525  10.182  0.00  0.00    -0.361 OA
HETATM   19  H   UNK N   1      36.462  17.507   9.659  0.00  0.00     0.217 HD
ENDBRANCH  14  18
ENDBRANCH   8  12
BRANCH   7  20
HETATM   20  C   UNK N   1      32.495  15.181   5.783  0.00  0.00     0.330 C 
BRANCH  20  21
HETATM   21  N   UNK N   1      33.643  15.839   5.135  0.00  0.00     0.098 N 
HETATM   22  C   UNK N   1      33.657  15.439   3.719  0.00  0.00     0.299 C 
HETATM   23  C   UNK N   1      34.346  14.076   3.496  0.00  0.00     0.198 C 
HETATM   24  O   UNK N   1      34.532  13.408   4.717  0.00  0.00    -0.388 OA
HETATM   25  C   UNK N   1      35.492  14.158   5.414  0.00  0.00     0.198 C 
HETATM   26  C   UNK N   1      34.939  15.547   5.782  0.00  0.00     0.299 C 
ENDBRANCH  20  21
ENDBRANCH   7  20
BRANCH   1  27
HETATM   27  S   UNK N   1      25.790  19.027   4.690  0.00  0.00     0.263 S 
HETATM   28  O   UNK N   1      25.660  18.751   3.186  0.00  0.00    -0.200 OA
HETATM   29  O   UNK N   1      25.555  20.543   4.771  0.00  0.00    -0.200 OA
BRANCH  27  30
HETATM   30  N   UNK N   1      24.350  18.336   5.439  0.00  0.00    -0.324 N 
HETATM   31  H   UNK N   1      23.641  17.703   5.071  0.00  0.00     0.169 HD
HETATM   32  H   UNK N   1      24.201  18.620   6.408  0.00  0.00     0.169 HD
ENDBRANCH  27  30
ENDBRANCH   1  27
TORSDOF 6
ENDMDL
MODEL 3
REMARK VINA RESULT:      -6.5      5.547     10.068
REMARK  6 active torsions:
REMARK  status: ('A' for Active; 'I' for Inactive)
REMARK    1  A    between atoms: S_1  and  N_3 
REMARK    2  A    between atoms: S_1  and  C_4 
REMARK    3  A    between atoms: C_10  and  C_15 
REMARK    4  A    between atoms: N_11  and  C_23 
REMARK    5  A    between atoms: C_15  and  N_21 
REMARK    6  A    between atoms: C_27  and  O_28 
ROOT
HETATM    1  C   UNK N   1      23.522  18.930   3.851  0.00  0.00     0.122 A 
HETATM    2  C   UNK N   1      24.033  17.623   3.877  0.00  0.00     0.046 A 
HETATM    3  C   UNK N   1      25.392  17.595   4.308  0.00  0.00    -0.002 A 
HETATM    4  C   UNK N   1      25.897  18.836   4.606  0.00  0.00     0.132 A 
HETATM    5  S   UNK N   1      24.720  19.957   4.356  0.00  0.00    -0.062 SA
HETATM    6  C   UNK N   1      26.179  16.363   4.504  0.00  0.00     0.041 A 
HETATM    7  C   UNK N   1      27.439  16.265   5.013  0.00  0.00     0.057 A 
HETATM    8  N   UNK N   1      28.230  17.424   5.419  0.00  0.00    -0.238 N 
HETATM    9  S   UNK N   1      27.492  19.030   5.268  0.00  0.00     0.277 S 
HETATM   10  O   UNK N   1      28.466  19.877   4.435  0.00  0.00    -0.199 OA
HETATM   11  O   UNK N   1      27.515  19.628   6.682  0.00  0.00    -0.199 OA
ENDROOT
BRANCH   8  12
HETATM   12  C   UNK N   1      29.575  17.354   5.941  0.00  0.00     0.053 A 
HETATM   13  C   UNK N   1      29.845  17.310   7.324  0.00  0.00     0.067 A 
HETATM   14  C   UNK N   1      31.162  17.235   7.795  0.00  0.00     0.067 A 
HETATM   15  C   UNK N   1      32.229  17.204   6.898  0.00  0.00     0.036 A 
HETATM   16  C   UNK N   1      31.984  17.248   5.527  0.00  0.00     0.005 A 
HETATM   17  C   UNK N   1      30.672  17.321   5.060  0.00  0.00     0.031 A 
BRANCH  14  18
HETATM   18  O   UNK N   1      31.400  17.189   9.117  0.00  0.00    -0.361 OA
HETATM   19  H   UNK N   1      31.986  17.805   9.510  0.00  0.00     0.217 HD
ENDBRANCH  14  18
ENDBRANCH   8  12
BRANCH   7  20
HETATM   20  C   UNK N   1      27.982  14.854   5.101  0.00  0.00     0.330 C 
BRANCH  20  21
HETATM   21  N   UNK N   1      28.135  14.187   3.796  0.00  0.00     0.098 N 
HETATM   22  C   UNK N   1      27.820  12.760   3.975  0.00  0.00     0.299 C 
HETATM   23  C   UNK N   1      29.024  11.951   4.500  0.00  0.00     0.198 C 
HETATM   24  O   UNK N   1      30.036  12.807   4.960  0.00  0.00    -0.388 OA
HETATM   25  C   UNK N   1      30.537  13.446   3.815  0.00  0.00     0.198 C 
HETATM   26  C   UNK N   1      29.470  14.364   3.191  0.00  0.00     0.299 C 
ENDBRANCH  20  21
ENDBRANCH   7  20
BRANCH   1  27
HETATM   27  S   UNK N   1      21.827  19.404   3.563  0.00  0.00     0.263 S 
HETATM   28  O   UNK N   1      21.633  20.813   2.983  0.00  0.00    -0.200 OA
HETATM   29  O   UNK N   1      21.040  19.477   4.881  0.00  0.00    -0.200 OA
BRANCH  27  30
HETATM   30  N   UNK N   1      20.863  18.325   2.555  0.00  0.00    -0.324 N 
HETATM   31  H   UNK N   1      20.706  17.319   2.609  0.00  0.00     0.169 HD
HETATM   32  H   UNK N   1      20.381  18.787   1.784  0.00  0.00     0.169 HD
ENDBRANCH  27  30
ENDBRANCH   1  27
TORSDOF 6
ENDMDL
MODEL 4
REMARK VINA RESULT:      -6.5     13.718     16.286
REMARK  6 active torsions:
REMARK  status: ('A' for Active; 'I' for Inactive)
REMARK    1  A    between atoms: S_1  and  N_3 
REMARK    2  A    between atoms: S_1  and  C_4 
REMARK    3  A    between atoms: C_10  and  C_15 
REMARK    4  A    between atoms: N_11  and  C_23 
REMARK    5  A    between atoms: C_15  and  N_21 
REMARK    6  A    between atoms: C_27  and  O_28 
ROOT
HETATM    1  C   UNK N   1      32.749  20.420  -4.749  0.00  0.00     0.122 A 
HETATM    2  C   UNK N   1      31.500  20.359  -5.389  0.00  0.00     0.046 A 
HETATM    3  C   UNK N   1      30.741  21.547  -5.180  0.00  0.00    -0.002 A 
HETATM    4  C   UNK N   1      31.389  22.484  -4.415  0.00  0.00     0.132 A 
HETATM    5  S   UNK N   1      32.864  21.890  -3.994  0.00  0.00    -0.062 SA
HETATM    6  C   UNK N   1      29.420  21.809  -5.783  0.00  0.00     0.041 A 
HETATM    7  C   UNK N   1      28.696  22.961  -5.709  0.00  0.00     0.057 A 
HETATM    8  N   UNK N   1      29.136  24.135  -4.960  0.00  0.00    -0.238 N 
HETATM    9  S   UNK N   1      30.705  24.057  -4.135  0.00  0.00     0.277 S 
HETATM   10  O   UNK N   1      30.441  24.422  -2.666  0.00  0.00    -0.199 OA
HETATM   11  O   UNK N   1      31.533  25.213  -4.716  0.00  0.00    -0.199 OA
ENDROOT
BRANCH   8  12
HETATM   12  C   UNK N   1      28.382  25.361  -4.844  0.00  0.00     0.053 A 
HETATM   13  C   UNK N   1      27.507  25.608  -3.767  0.00  0.00     0.067 A 
HETATM   14  C   UNK N   1      26.797  26.813  -3.682  0.00  0.00     0.067 A 
HETATM   15  C   UNK N   1      26.946  27.788  -4.668  0.00  0.00     0.036 A 
HETATM   16  C   UNK N   1      27.805  27.563  -5.741  0.00  0.00     0.005 A 
HETATM   17  C   UNK N   1      28.513  26.364  -5.823  0.00  0.00     0.031 A 
BRANCH  14  18
HETATM   18  O   UNK N   1      25.970  27.033  -2.646  0.00  0.00    -0.361 OA
HETATM   19  H   UNK N   1      26.283  26.939  -1.767  0.00  0.00     0.217 HD
ENDBRANCH  14  18
ENDBRANCH   8  12
BRANCH   7  20
HETATM   20  C   UNK N   1      27.372  22.929  -6.443  0.00  0.00     0.330 C 
BRANCH  20  21
HETATM   21  N   UNK N   1      27.490  22.645  -7.884  0.00  0.00     0.098 N 
HETATM   22  C   UNK N   1      27.056  23.844  -8.620  0.00  0.00     0.299 C 
HETATM   23  C   UNK N   1      25.524  23.913  -8.786  0.00  0.00     0.198 C 
HETATM   24  O   UNK N   1      24.891  22.980  -7.949  0.00  0.00    -0.388 OA
HETATM   25  C   UNK N   1      25.227  21.720  -8.468  0.00  0.00     0.198 C 
HETATM   26  C   UNK N   1      26.736  21.452  -8.319  0.00  0.00     0.299 C 
ENDBRANCH  20  21
ENDBRANCH   7  20
BRANCH   1  27
HETATM   27  S   UNK N   1      34.083  19.247  -4.906  0.00  0.00     0.263 S 
HETATM   28  O   UNK N   1      34.229  18.607  -6.294  0.00  0.00    -0.200 OA
HETATM   29  O   UNK N   1      33.858  18.027  -4.000  0.00  0.00    -0.200 OA
BRANCH  27  30
HETATM   30  N   UNK N   1      35.692  19.814  -4.458  0.00  0.00    -0.324 N 
HETATM   31  H   UNK N   1      36.353  20.414  -4.951  0.00  0.00     0.169 HD
HETATM   32  H   UNK N   1      36.018  19.483  -3.550  0.00  0.00     0.169 HD
ENDBRANCH  27  30
ENDBRANCH   1  27
TORSDOF 6
ENDMDL
MODEL 5
REMARK VINA RESULT:      -6.5      4.296      8.815
REMARK  6 active torsions:
REMARK  status: ('A' for Active; 'I' for Inactive)
REMARK    1  A    between atoms: S_1  and  N_3 
REMARK    2  A    between atoms: S_1  and  C_4 
REMARK    3  A    between atoms: C_10  and  C_15 
REMARK    4  A    between atoms: N_11  and  C_23 
REMARK    5  A    between atoms: C_15  and  N_21 
REMARK    6  A    between atoms: C_27  and  O_28 
ROOT
HETATM    1  C   UNK N   1      34.704  16.433   8.702  0.00  0.00     0.122 A 
HETATM    2  C   UNK N   1      34.599  15.149   8.144  0.00  0.00     0.046 A 
HETATM    3  C   UNK N   1      34.938  14.135   9.087  0.00  0.00    -0.002 A 
HETATM    4  C   UNK N   1      35.282  14.627  10.321  0.00  0.00     0.132 A 
HETATM    5  S   UNK N   1      35.178  16.268  10.280  0.00  0.00    -0.062 SA
HETATM    6  C   UNK N   1      34.856  12.686   8.818  0.00  0.00     0.041 A 
HETATM    7  C   UNK N   1      35.061  11.673   9.705  0.00  0.00     0.057 A 
HETATM    8  N   UNK N   1      35.441  11.894  11.098  0.00  0.00    -0.238 N 
HETATM    9  S   UNK N   1      35.611  13.568  11.660  0.00  0.00     0.277 S 
HETATM   10  O   UNK N   1      37.015  13.680  12.273  0.00  0.00    -0.199 OA
HETATM   11  O   UNK N   1      34.626  13.712  12.828  0.00  0.00    -0.199 OA
ENDROOT
BRANCH   8  12
HETATM   12  C   UNK N   1      35.688  10.841  12.056  0.00  0.00     0.053 A 
HETATM   13  C   UNK N   1      36.961  10.259  12.224  0.00  0.00     0.067 A 
HETATM   14  C   UNK N   1      37.166   9.245  13.168  0.00  0.00     0.067 A 
HETATM   15  C   UNK N   1      36.108   8.794  13.957  0.00  0.00     0.036 A 
HETATM   16  C   UNK N   1      34.842   9.356  13.806  0.00  0.00     0.005 A 
HETATM   17  C   UNK N   1      34.640  10.367  12.867  0.00  0.00     0.031 A 
BRANCH  14  18
HETATM   18  O   UNK N   1      38.387   8.704  13.317  0.00  0.00    -0.361 OA
HETATM   19  H   UNK N   1      38.578   8.175  14.066  0.00  0.00     0.217 HD
ENDBRANCH  14  18
ENDBRANCH   8  12
BRANCH   7  20
HETATM   20  C   UNK N   1      34.895  10.282   9.131  0.00  0.00     0.330 C 
BRANCH  20  21
HETATM   21  N   UNK N   1      33.570  10.030   8.540  0.00  0.00     0.098 N 
HETATM   22  C   UNK N   1      32.586   9.974   9.634  0.00  0.00     0.299 C 
HETATM   23  C   UNK N   1      32.523   8.585  10.301  0.00  0.00     0.198 C 
HETATM   24  O   UNK N   1      33.615   7.794   9.908  0.00  0.00    -0.388 OA
HETATM   25  C   UNK N   1      33.411   7.521   8.547  0.00  0.00     0.198 C 
HETATM   26  C   UNK N   1      33.511   8.809   7.710  0.00  0.00     0.299 C 
ENDBRANCH  20  21
ENDBRANCH   7  20
BRANCH   1  27
HETATM   27  S   UNK N   1      34.194  17.966   7.946  0.00  0.00     0.263 S 
HETATM   28  O   UNK N   1      34.359  18.027   6.420  0.00  0.00    -0.200 OA
HETATM   29  O   UNK N   1      35.067  19.137   8.421  0.00  0.00    -0.200 OA
BRANCH  27  30
HETATM   30  N   UNK N   1      32.548  18.504   8.280  0.00  0.00    -0.324 N 
HETATM   31  H   UNK N   1      31.969  19.212   7.829  0.00  0.00     0.169 HD
HETATM   32  H   UNK N   1      32.097  18.024   9.059  0.00  0.00     0.169 HD
ENDBRANCH  27  30
ENDBRANCH   1  27
TORSDOF 6
ENDMDL
MODEL 6
REMARK VINA RESULT:      -6.5      4.321      9.069
REMARK  6 active torsions:
REMARK  status: ('A' for Active; 'I' for Inactive)
REMARK    1  A    between atoms: S_1  and  N_3 
REMARK    2  A    between atoms: S_1  and  C_4 
REMARK    3  A    between atoms: C_10  and  C_15 
REMARK    4  A    between atoms: N_11  and  C_23 
REMARK    5  A    between atoms: C_15  and  N_21 
REMARK    6  A    between atoms: C_27  and  O_28 
ROOT
HETATM    1  C   UNK N   1      34.484  16.233   9.042  0.00  0.00     0.122 A 
HETATM    2  C   UNK N   1      34.634  16.033  10.424  0.00  0.00     0.046 A 
HETATM    3  C   UNK N   1      34.923  14.671  10.732  0.00  0.00    -0.002 A 
HETATM    4  C   UNK N   1      34.999  13.864   9.624  0.00  0.00     0.132 A 
HETATM    5  S   UNK N   1      34.722  14.778   8.286  0.00  0.00    -0.062 SA
HETATM    6  C   UNK N   1      35.202  14.165  12.089  0.00  0.00     0.041 A 
HETATM    7  C   UNK N   1      35.588  12.904  12.433  0.00  0.00     0.057 A 
HETATM    8  N   UNK N   1      35.752  11.825  11.461  0.00  0.00    -0.238 N 
HETATM    9  S   UNK N   1      35.463  12.193   9.750  0.00  0.00     0.277 S 
HETATM   10  O   UNK N   1      34.428  11.171   9.256  0.00  0.00    -0.199 OA
HETATM   11  O   UNK N   1      36.774  11.851   9.029  0.00  0.00    -0.199 OA
ENDROOT
BRANCH   8  12
HETATM   12  C   UNK N   1      36.138  10.474  11.797  0.00  0.00     0.053 A 
HETATM   13  C   UNK N   1      37.488  10.086  11.922  0.00  0.00     0.067 A 
HETATM   14  C   UNK N   1      37.826   8.769  12.257  0.00  0.00     0.067 A 
HETATM   15  C   UNK N   1      36.828   7.818  12.469  0.00  0.00     0.036 A 
HETATM   16  C   UNK N   1      35.489   8.181  12.350  0.00  0.00     0.005 A 
HETATM   17  C   UNK N   1      35.154   9.494  12.019  0.00  0.00     0.031 A 
BRANCH  14  18
HETATM   18  O   UNK N   1      39.118   8.418  12.376  0.00  0.00    -0.361 OA
HETATM   19  H   UNK N   1      39.348   7.584  12.737  0.00  0.00     0.217 HD
ENDBRANCH  14  18
ENDBRANCH   8  12
BRANCH   7  20
HETATM   20  C   UNK N   1      35.809  12.688  13.915  0.00  0.00     0.330 C 
BRANCH  20  21
HETATM   21  N   UNK N   1      34.567  12.648  14.707  0.00  0.00     0.098 N 
HETATM   22  C   UNK N   1      34.886  13.090  16.075  0.00  0.00     0.299 C 
HETATM   23  C   UNK N   1      35.450  11.950  16.948  0.00  0.00     0.198 C 
HETATM   24  O   UNK N   1      35.799  10.844  16.157  0.00  0.00    -0.388 OA
HETATM   25  C   UNK N   1      34.586  10.327  15.676  0.00  0.00     0.198 C 
HETATM   26  C   UNK N   1      33.911  11.324  14.717  0.00  0.00     0.299 C 
ENDBRANCH  20  21
ENDBRANCH   7  20
BRANCH   1  27
HETATM   27  S   UNK N   1      34.310  17.800   8.207  0.00  0.00     0.263 S 
HETATM   28  O   UNK N   1      34.670  17.786   6.715  0.00  0.00    -0.200 OA
HETATM   29  O   UNK N   1      35.286  18.842   8.774  0.00  0.00    -0.200 OA
BRANCH  27  30
HETATM   30  N   UNK N   1      32.736  18.588   8.323  0.00  0.00    -0.324 N 
HETATM   31  H   UNK N   1      32.314  19.327   7.763  0.00  0.00     0.169 HD
HETATM   32  H   UNK N   1      32.148  18.245   9.083  0.00  0.00     0.169 HD
ENDBRANCH  27  30
ENDBRANCH   1  27
TORSDOF 6
ENDMDL
MODEL 7
REMARK VINA RESULT:      -6.4      3.760      6.504
REMARK  6 active torsions:
REMARK  status: ('A' for Active; 'I' for Inactive)
REMARK    1  A    between atoms: S_1  and  N_3 
REMARK    2  A    between atoms: S_1  and  C_4 
REMARK    3  A    between atoms: C_10  and  C_15 
REMARK    4  A    between atoms: N_11  and  C_23 
REMARK    5  A    between atoms: C_15  and  N_21 
REMARK    6  A    between atoms: C_27  and  O_28 
ROOT
HETATM    1  C   UNK N   1      32.640  17.347   7.869  0.00  0.00     0.122 A 
HETATM    2  C   UNK N   1      32.285  16.789   6.630  0.00  0.00     0.046 A 
HETATM    3  C   UNK N   1      30.882  16.879   6.393  0.00  0.00    -0.002 A 
HETATM    4  C   UNK N   1      30.193  17.490   7.411  0.00  0.00     0.132 A 
HETATM    5  S   UNK N   1      31.261  17.919   8.585  0.00  0.00    -0.062 SA
HETATM    6  C   UNK N   1      30.217  16.444   5.150  0.00  0.00     0.041 A 
HETATM    7  C   UNK N   1      28.904  16.601   4.822  0.00  0.00     0.057 A 
HETATM    8  N   UNK N   1      27.925  17.219   5.713  0.00  0.00    -0.238 N 
HETATM    9  S   UNK N   1      28.491  17.819   7.283  0.00  0.00     0.277 S 
HETATM   10  O   UNK N   1      27.599  17.161   8.346  0.00  0.00    -0.199 OA
HETATM   11  O   UNK N   1      28.139  19.314   7.303  0.00  0.00    -0.199 OA
ENDROOT
BRANCH   8  12
HETATM   12  C   UNK N   1      26.523  17.379   5.403  0.00  0.00     0.053 A 
HETATM   13  C   UNK N   1      25.562  16.404   5.741  0.00  0.00     0.067 A 
HETATM   14  C   UNK N   1      24.209  16.596   5.433  0.00  0.00     0.067 A 
HETATM   15  C   UNK N   1      23.794  17.758   4.782  0.00  0.00     0.036 A 
HETATM   16  C   UNK N   1      24.728  18.732   4.439  0.00  0.00     0.005 A 
HETATM   17  C   UNK N   1      26.074  18.540   4.749  0.00  0.00     0.031 A 
BRANCH  14  18
HETATM   18  O   UNK N   1      23.306  15.659   5.766  0.00  0.00    -0.361 OA
HETATM   19  H   UNK N   1      23.518  15.008   6.407  0.00  0.00     0.217 HD
ENDBRANCH  14  18
ENDBRANCH   8  12
BRANCH   7  20
HETATM   20  C   UNK N   1      28.518  16.055   3.463  0.00  0.00     0.330 C 
BRANCH  20  21
HETATM   21  N   UNK N   1      28.847  14.631   3.272  0.00  0.00     0.098 N 
HETATM   22  C   UNK N   1      28.342  14.221   1.952  0.00  0.00     0.299 C 
HETATM   23  C   UNK N   1      26.846  13.844   1.982  0.00  0.00     0.198 C 
HETATM   24  O   UNK N   1      26.253  14.259   3.185  0.00  0.00    -0.388 OA
HETATM   25  C   UNK N   1      26.821  13.453   4.183  0.00  0.00     0.198 C 
HETATM   26  C   UNK N   1      28.324  13.752   4.338  0.00  0.00     0.299 C 
ENDBRANCH  20  21
ENDBRANCH   7  20
BRANCH   1  27
HETATM   27  S   UNK N   1      34.294  17.620   8.477  0.00  0.00     0.263 S 
HETATM   28  O   UNK N   1      34.828  19.048   8.293  0.00  0.00    -0.200 OA
HETATM   29  O   UNK N   1      35.318  16.780   7.698  0.00  0.00    -0.200 OA
BRANCH  27  30
HETATM   30  N   UNK N   1      34.597  17.199  10.163  0.00  0.00    -0.324 N 
HETATM   31  H   UNK N   1      34.798  16.302  10.604  0.00  0.00     0.169 HD
HETATM   32  H   UNK N   1      34.565  17.989  10.807  0.00  0.00     0.169 HD
ENDBRANCH  27  30
ENDBRANCH   1  27
TORSDOF 6
ENDMDL
MODEL 8
REMARK VINA RESULT:      -6.3      4.630      8.069
REMARK  6 active torsions:
REMARK  status: ('A' for Active; 'I' for Inactive)
REMARK    1  A    between atoms: S_1  and  N_3 
REMARK    2  A    between atoms: S_1  and  C_4 
REMARK    3  A    between atoms: C_10  and  C_15 
REMARK    4  A    between atoms: N_11  and  C_23 
REMARK    5  A    between atoms: C_15  and  N_21 
REMARK    6  A    between atoms: C_27  and  O_28 
ROOT
HETATM    1  C   UNK N   1      30.067  12.644   1.811  0.00  0.00     0.122 A 
HETATM    2  C   UNK N   1      31.040  13.401   2.483  0.00  0.00     0.046 A 
HETATM    3  C   UNK N   1      30.456  14.467   3.229  0.00  0.00    -0.002 A 
HETATM    4  C   UNK N   1      29.088  14.516   3.136  0.00  0.00     0.132 A 
HETATM    5  S   UNK N   1      28.583  13.288   2.165  0.00  0.00    -0.062 SA
HETATM    6  C   UNK N   1      31.214  15.391   4.094  0.00  0.00     0.041 A 
HETATM    7  C   UNK N   1      30.705  16.356   4.911  0.00  0.00     0.057 A 
HETATM    8  N   UNK N   1      29.277  16.640   5.020  0.00  0.00    -0.238 N 
HETATM    9  S   UNK N   1      28.156  15.655   4.061  0.00  0.00     0.277 S 
HETATM   10  O   UNK N   1      27.301  16.639   3.248  0.00  0.00    -0.199 OA
HETATM   11  O   UNK N   1      27.205  15.007   5.077  0.00  0.00    -0.199 OA
ENDROOT
BRANCH   8  12
HETATM   12  C   UNK N   1      28.709  17.669   5.859  0.00  0.00     0.053 A 
HETATM   13  C   UNK N   1      28.455  17.467   7.231  0.00  0.00     0.067 A 
HETATM   14  C   UNK N   1      27.911  18.490   8.018  0.00  0.00     0.067 A 
HETATM   15  C   UNK N   1      27.610  19.728   7.451  0.00  0.00     0.036 A 
HETATM   16  C   UNK N   1      27.852  19.948   6.097  0.00  0.00     0.005 A 
HETATM   17  C   UNK N   1      28.396  18.929   5.316  0.00  0.00     0.031 A 
BRANCH  14  18
HETATM   18  O   UNK N   1      27.680  18.281   9.325  0.00  0.00    -0.361 OA
HETATM   19  H   UNK N   1      26.801  18.252   9.648  0.00  0.00     0.217 HD
ENDBRANCH  14  18
ENDBRANCH   8  12
BRANCH   7  20
HETATM   20  C   UNK N   1      31.740  17.143   5.686  0.00  0.00     0.330 C 
BRANCH  20  21
HETATM   21  N   UNK N   1      32.044  16.589   7.017  0.00  0.00     0.098 N 
HETATM   22  C   UNK N   1      32.271  17.715   7.938  0.00  0.00     0.299 C 
HETATM   23  C   UNK N   1      33.714  18.258   7.863  0.00  0.00     0.198 C 
HETATM   24  O   UNK N   1      34.379  17.750   6.736  0.00  0.00    -0.388 OA
HETATM   25  C   UNK N   1      34.550  16.379   6.986  0.00  0.00     0.198 C 
HETATM   26  C   UNK N   1      33.190  15.657   7.025  0.00  0.00     0.299 C 
ENDBRANCH  20  21
ENDBRANCH   7  20
BRANCH   1  27
HETATM   27  S   UNK N   1      30.332  11.118   0.927  0.00  0.00     0.263 S 
HETATM   28  O   UNK N   1      29.874   9.850   1.663  0.00  0.00    -0.200 OA
HETATM   29  O   UNK N   1      31.830  10.853   0.712  0.00  0.00    -0.200 OA
BRANCH  27  30
HETATM   30  N   UNK N   1      29.647  11.013  -0.696  0.00  0.00    -0.324 N 
HETATM   31  H   UNK N   1      29.516  11.724  -1.415  0.00  0.00     0.169 HD
HETATM   32  H   UNK N   1      29.327  10.081  -0.959  0.00  0.00     0.169 HD
ENDBRANCH  27  30
ENDBRANCH   1  27
TORSDOF 6
ENDMDL
MODEL 9
REMARK VINA RESULT:      -6.3      3.354      8.255
REMARK  6 active torsions:
REMARK  status: ('A' for Active; 'I' for Inactive)
REMARK    1  A    between atoms: S_1  and  N_3 
REMARK    2  A    between atoms: S_1  and  C_4 
REMARK    3  A    between atoms: C_10  and  C_15 
REMARK    4  A    between atoms: N_11  and  C_23 
REMARK    5  A    between atoms: C_15  and  N_21 
REMARK    6  A    between atoms: C_27  and  O_28 
ROOT
HETATM    1  C   UNK N   1      28.085  17.658   5.230  0.00  0.00     0.122 A 
HETATM    2  C   UNK N   1      29.253  17.032   4.765  0.00  0.00     0.046 A 
HETATM    3  C   UNK N   1      30.238  16.925   5.790  0.00  0.00    -0.002 A 
HETATM    4  C   UNK N   1      29.835  17.445   6.994  0.00  0.00     0.132 A 
HETATM    5  S   UNK N   1      28.305  18.027   6.830  0.00  0.00    -0.062 SA
HETATM    6  C   UNK N   1      31.541  16.252   5.627  0.00  0.00     0.041 A 
HETATM    7  C   UNK N   1      32.475  16.024   6.592  0.00  0.00     0.057 A 
HETATM    8  N   UNK N   1      32.320  16.467   7.975  0.00  0.00    -0.238 N 
HETATM    9  S   UNK N   1      30.825  17.313   8.417  0.00  0.00     0.277 S 
HETATM   10  O   UNK N   1      31.252  18.640   9.062  0.00  0.00    -0.199 OA
HETATM   11  O   UNK N   1      30.197  16.478   9.542  0.00  0.00    -0.199 OA
ENDROOT
BRANCH   8  12
HETATM   12  C   UNK N   1      33.301  16.260   9.015  0.00  0.00     0.053 A 
HETATM   13  C   UNK N   1      33.264  15.142   9.874  0.00  0.00     0.067 A 
HETATM   14  C   UNK N   1      34.236  14.969  10.867  0.00  0.00     0.067 A 
HETATM   15  C   UNK N   1      35.259  15.905  11.021  0.00  0.00     0.036 A 
HETATM   16  C   UNK N   1      35.313  17.017  10.183  0.00  0.00     0.005 A 
HETATM   17  C   UNK N   1      34.345  17.186   9.194  0.00  0.00     0.031 A 
BRANCH  14  18
HETATM   18  O   UNK N   1      34.187  13.896  11.674  0.00  0.00    -0.361 OA
HETATM   19  H   UNK N   1      33.365  13.598  12.010  0.00  0.00     0.217 HD
ENDBRANCH  14  18
ENDBRANCH   8  12
BRANCH   7  20
HETATM   20  C   UNK N   1      33.716  15.298   6.117  0.00  0.00     0.330 C 
BRANCH  20  21
HETATM   21  N   UNK N   1      33.462  13.934   5.623  0.00  0.00     0.098 N 
HETATM   22  C   UNK N   1      33.149  13.081   6.782  0.00  0.00     0.299 C 
HETATM   23  C   UNK N   1      34.416  12.560   7.491  0.00  0.00     0.198 C 
HETATM   24  O   UNK N   1      35.554  13.252   7.049  0.00  0.00    -0.388 OA
HETATM   25  C   UNK N   1      35.735  12.863   5.712  0.00  0.00     0.198 C 
HETATM   26  C   UNK N   1      34.576  13.369   4.834  0.00  0.00     0.299 C 
ENDBRANCH  20  21
ENDBRANCH   7  20
BRANCH   1  27
HETATM   27  S   UNK N   1      26.544  17.823   4.348  0.00  0.00     0.263 S 
HETATM   28  O   UNK N   1      26.346  16.834   3.190  0.00  0.00    -0.200 OA
HETATM   29  O   UNK N   1      26.451  19.184   3.642  0.00  0.00    -0.200 OA
BRANCH  27  30
HETATM   30  N   UNK N   1      25.068  17.746   5.312  0.00  0.00    -0.324 N 
HETATM   31  H   UNK N   1      24.669  16.990   5.867  0.00  0.00     0.169 HD
HETATM   32  H   UNK N   1      24.520  18.606   5.313  0.00  0.00     0.169 HD
ENDBRANCH  27  30
ENDBRANCH   1  27
TORSDOF 6
ENDMDL
