MODEL 1
REMARK VINA RESULT:      -6.9      0.000      0.000
REMARK  13 active torsions:
REMARK  status: ('A' for Active; 'I' for Inactive)
REMARK    1  A    between atoms: C_1  and  C_2 
REMARK    2  A    between atoms: C_1  and  C_4 
REMARK    3  A    between atoms: C_1  and  N_11 
REMARK    4  A    between atoms: C_2  and  O_3 
REMARK    5  A    between atoms: C_4  and  C_5 
REMARK       I    between atoms: N_11  and  C_13 
REMARK    6  A    between atoms: C_12  and  C_13 
REMARK    7  A    between atoms: C_12  and  C_15 
REMARK    8  A    between atoms: C_12  and  N_18 
REMARK       I    between atoms: N_18  and  C_19 
REMARK    9  A    between atoms: C_19  and  C_21 
REMARK   10  A    between atoms: C_21  and  N_23 
REMARK       I    between atoms: N_23  and  C_24 
REMARK   11  A    between atoms: C_24  and  O_26 
REMARK   12  A    between atoms: O_26  and  C_27 
REMARK   13  A    between atoms: C_27  and  C_28 
ROOT
HETATM    1  C   UNK N   1      28.904  24.861  -6.706  0.00  0.00     0.180 C 
ENDROOT
BRANCH   1   2
HETATM    2  C   UNK N   1      29.803  24.395  -5.588  0.00  0.00     0.241 C 
HETATM    3  N   UNK N   1      29.288  23.681  -4.558  0.00  0.00    -0.352 N 
HETATM    4  H   UNK N   1      28.309  23.641  -4.462  0.00  0.00     0.163 HD
HETATM    5  O   UNK N   1      31.005  24.615  -5.657  0.00  0.00    -0.271 OA
BRANCH   3   6
HETATM    6  C   UNK N   1      30.101  22.973  -3.593  0.00  0.00     0.112 C 
BRANCH   6   7
HETATM    7  C   UNK N   1      29.431  22.989  -2.226  0.00  0.00     0.189 C 
BRANCH   7   8
HETATM    8  O   UNK N   1      30.394  23.061  -1.217  0.00  0.00    -0.399 OA
HETATM    9  H   UNK N   1      30.360  22.768  -0.293  0.00  0.00     0.209 HD
ENDBRANCH   7   8
ENDBRANCH   6   7
BRANCH   6  10
HETATM   10  C   UNK N   1      30.220  21.543  -4.108  0.00  0.00     0.065 C 
BRANCH  10  11
HETATM   11  C   UNK N   1      31.610  21.003  -4.123  0.00  0.00    -0.056 A 
HETATM   12  C   UNK N   1      31.974  20.104  -5.131  0.00  0.00     0.007 A 
HETATM   13  C   UNK N   1      33.260  19.560  -5.154  0.00  0.00     0.001 A 
HETATM   14  C   UNK N   1      34.185  19.911  -4.166  0.00  0.00     0.000 A 
HETATM   15  C   UNK N   1      33.821  20.808  -3.154  0.00  0.00     0.001 A 
HETATM   16  C   UNK N   1      32.533  21.351  -3.130  0.00  0.00     0.007 A 
ENDBRANCH  10  11
ENDBRANCH   6  10
ENDBRANCH   3   6
ENDBRANCH   1   2
BRANCH   1  17
HETATM   17  C   UNK N   1      29.238  26.345  -6.985  0.00  0.00     0.009 C 
HETATM   18  C   UNK N   1      28.549  26.868  -8.232  0.00  0.00     0.012 C 
HETATM   19  C   UNK N   1      28.927  27.274  -5.820  0.00  0.00     0.012 C 
ENDBRANCH   1  17
BRANCH   1  20
HETATM   20  N   UNK N   1      29.100  24.142  -7.959  0.00  0.00    -0.346 N 
HETATM   21  C   UNK N   1      28.654  22.929  -8.398  0.00  0.00     0.240 C 
HETATM   22  O   UNK N   1      28.983  22.580  -9.522  0.00  0.00    -0.271 OA
HETATM   23  H   UNK N   1      29.660  24.622  -8.611  0.00  0.00     0.163 HD
BRANCH  21  24
HETATM   24  C   UNK N   1      27.889  21.936  -7.537  0.00  0.00     0.174 C 
HETATM   25  C   UNK N   1      28.571  20.592  -7.738  0.00  0.00     0.042 C 
BRANCH  24  26
HETATM   26  N   UNK N   1      26.478  21.746  -7.863  0.00  0.00    -0.324 N 
HETATM   27  C   UNK N   1      25.440  22.609  -7.706  0.00  0.00     0.361 C 
HETATM   28  O   UNK N   1      24.348  22.306  -8.171  0.00  0.00    -0.238 OA
HETATM   29  H   UNK N   1      26.246  20.870  -8.248  0.00  0.00     0.165 HD
BRANCH  27  30
HETATM   30  O   UNK N   1      25.585  23.781  -7.053  0.00  0.00    -0.299 OA
BRANCH  30  31
HETATM   31  C   UNK N   1      25.679  23.827  -5.679  0.00  0.00     0.219 C 
BRANCH  31  32
HETATM   32  C   UNK N   1      25.763  25.205  -5.127  0.00  0.00    -0.034 A 
HETATM   33  C   UNK N   1      26.321  25.419  -3.862  0.00  0.00     0.009 A 
HETATM   34  C   UNK N   1      26.282  26.692  -3.286  0.00  0.00     0.001 A 
HETATM   35  C   UNK N   1      25.674  27.750  -3.970  0.00  0.00     0.000 A 
HETATM   36  C   UNK N   1      25.111  27.536  -5.230  0.00  0.00     0.001 A 
HETATM   37  C   UNK N   1      25.145  26.261  -5.804  0.00  0.00     0.009 A 
ENDBRANCH  31  32
ENDBRANCH  30  31
ENDBRANCH  27  30
ENDBRANCH  24  26
ENDBRANCH  21  24
ENDBRANCH   1  20
TORSDOF 13
ENDMDL
MODEL 2
REMARK VINA RESULT:      -6.9     12.855     15.458
REMARK  13 active torsions:
REMARK  status: ('A' for Active; 'I' for Inactive)
REMARK    1  A    between atoms: C_1  and  C_2 
REMARK    2  A    between atoms: C_1  and  C_4 
REMARK    3  A    between atoms: C_1  and  N_11 
REMARK    4  A    between atoms: C_2  and  O_3 
REMARK    5  A    between atoms: C_4  and  C_5 
REMARK       I    between atoms: N_11  and  C_13 
REMARK    6  A    between atoms: C_12  and  C_13 
REMARK    7  A    between atoms: C_12  and  C_15 
REMARK    8  A    between atoms: C_12  and  N_18 
REMARK       I    between atoms: N_18  and  C_19 
REMARK    9  A    between atoms: C_19  and  C_21 
REMARK   10  A    between atoms: C_21  and  N_23 
REMARK       I    between atoms: N_23  and  C_24 
REMARK   11  A    between atoms: C_24  and  O_26 
REMARK   12  A    between atoms: O_26  and  C_27 
REMARK   13  A    between atoms: C_27  and  C_28 
ROOT
HETATM    1  C   UNK N   1      22.379  17.004   5.441  0.00  0.00     0.180 C 
ENDROOT
BRANCH   1   2
HETATM    2  C   UNK N   1      21.493  17.266   6.633  0.00  0.00     0.241 C 
HETATM    3  N   UNK N   1      20.967  16.228   7.328  0.00  0.00    -0.352 N 
HETATM    4  H   UNK N   1      21.019  15.328   6.931  0.00  0.00     0.163 HD
HETATM    5  O   UNK N   1      21.309  18.419   6.999  0.00  0.00    -0.271 OA
BRANCH   3   6
HETATM    6  C   UNK N   1      20.336  16.371   8.621  0.00  0.00     0.112 C 
BRANCH   6   7
HETATM    7  C   UNK N   1      19.011  17.109   8.484  0.00  0.00     0.189 C 
BRANCH   7   8
HETATM    8  O   UNK N   1      19.087  18.357   9.104  0.00  0.00    -0.399 OA
HETATM    9  H   UNK N   1      19.220  18.589  10.037  0.00  0.00     0.209 HD
ENDBRANCH   7   8
ENDBRANCH   6   7
BRANCH   6  10
HETATM   10  C   UNK N   1      20.103  14.955   9.137  0.00  0.00     0.065 C 
BRANCH  10  11
HETATM   11  C   UNK N   1      21.170  13.979   8.773  0.00  0.00    -0.056 A 
HETATM   12  C   UNK N   1      20.994  13.177   7.641  0.00  0.00     0.007 A 
HETATM   13  C   UNK N   1      21.963  12.234   7.291  0.00  0.00     0.001 A 
HETATM   14  C   UNK N   1      23.111  12.089   8.075  0.00  0.00     0.000 A 
HETATM   15  C   UNK N   1      23.288  12.888   9.211  0.00  0.00     0.001 A 
HETATM   16  C   UNK N   1      22.317  13.831   9.562  0.00  0.00     0.007 A 
ENDBRANCH  10  11
ENDBRANCH   6  10
ENDBRANCH   3   6
ENDBRANCH   1   2
BRANCH   1  17
HETATM   17  C   UNK N   1      22.941  15.570   5.586  0.00  0.00     0.009 C 
HETATM   18  C   UNK N   1      23.080  14.866   4.248  0.00  0.00     0.012 C 
HETATM   19  C   UNK N   1      24.273  15.505   6.321  0.00  0.00     0.012 C 
ENDBRANCH   1  17
BRANCH   1  20
HETATM   20  N   UNK N   1      21.678  17.054   4.164  0.00  0.00    -0.346 N 
HETATM   21  C   UNK N   1      21.381  18.088   3.323  0.00  0.00     0.240 C 
HETATM   22  O   UNK N   1      20.774  17.823   2.296  0.00  0.00    -0.271 OA
HETATM   23  H   UNK N   1      21.359  16.179   3.848  0.00  0.00     0.163 HD
BRANCH  21  24
HETATM   24  C   UNK N   1      21.641  19.552   3.641  0.00  0.00     0.174 C 
HETATM   25  C   UNK N   1      20.319  20.271   3.426  0.00  0.00     0.042 C 
BRANCH  24  26
HETATM   26  N   UNK N   1      22.631  20.231   2.810  0.00  0.00    -0.324 N 
HETATM   27  C   UNK N   1      23.976  20.326   2.985  0.00  0.00     0.361 C 
HETATM   28  O   UNK N   1      24.650  20.830   2.094  0.00  0.00    -0.238 OA
HETATM   29  H   UNK N   1      22.275  20.685   2.012  0.00  0.00     0.165 HD
BRANCH  27  30
HETATM   30  O   UNK N   1      24.577  19.885   4.108  0.00  0.00    -0.299 OA
BRANCH  30  31
HETATM   31  C   UNK N   1      25.442  18.812   4.082  0.00  0.00     0.219 C 
BRANCH  31  32
HETATM   32  C   UNK N   1      26.483  18.851   5.143  0.00  0.00    -0.034 A 
HETATM   33  C   UNK N   1      27.088  17.665   5.574  0.00  0.00     0.009 A 
HETATM   34  C   UNK N   1      27.969  17.682   6.658  0.00  0.00     0.001 A 
HETATM   35  C   UNK N   1      28.237  18.884   7.321  0.00  0.00     0.000 A 
HETATM   36  C   UNK N   1      27.628  20.068   6.897  0.00  0.00     0.001 A 
HETATM   37  C   UNK N   1      26.742  20.049   5.815  0.00  0.00     0.009 A 
ENDBRANCH  31  32
ENDBRANCH  30  31
ENDBRANCH  27  30
ENDBRANCH  24  26
ENDBRANCH  21  24
ENDBRANCH   1  20
TORSDOF 13
ENDMDL
MODEL 3
REMARK VINA RESULT:      -6.9     17.082     21.628
REMARK  13 active torsions:
REMARK  status: ('A' for Active; 'I' for Inactive)
REMARK    1  A    between atoms: C_1  and  C_2 
REMARK    2  A    between atoms: C_1  and  C_4 
REMARK    3  A    between atoms: C_1  and  N_11 
REMARK    4  A    between atoms: C_2  and  O_3 
REMARK    5  A    between atoms: C_4  and  C_5 
REMARK       I    between atoms: N_11  and  C_13 
REMARK    6  A    between atoms: C_12  and  C_13 
REMARK    7  A    between atoms: C_12  and  C_15 
REMARK    8  A    between atoms: C_12  and  N_18 
REMARK       I    between atoms: N_18  and  C_19 
REMARK    9  A    between atoms: C_19  and  C_21 
REMARK   10  A    between atoms: C_21  and  N_23 
REMARK       I    between atoms: N_23  and  C_24 
REMARK   11  A    between atoms: C_24  and  O_26 
REMARK   12  A    between atoms: O_26  and  C_27 
REMARK   13  A    between atoms: C_27  and  C_28 
ROOT
HETATM    1  C   UNK N   1      34.880  14.203   9.688  0.00  0.00     0.180 C 
ENDROOT
BRANCH   1   2
HETATM    2  C   UNK N   1      34.590  15.653   9.393  0.00  0.00     0.241 C 
HETATM    3  N   UNK N   1      33.803  15.986   8.340  0.00  0.00    -0.352 N 
HETATM    4  H   UNK N   1      33.590  15.288   7.679  0.00  0.00     0.163 HD
HETATM    5  O   UNK N   1      35.019  16.515  10.148  0.00  0.00    -0.271 OA
BRANCH   3   6
HETATM    6  C   UNK N   1      33.258  17.311   8.138  0.00  0.00     0.112 C 
BRANCH   6   7
HETATM    7  C   UNK N   1      34.280  18.203   7.448  0.00  0.00     0.189 C 
BRANCH   7   8
HETATM    8  O   UNK N   1      34.887  19.051   8.376  0.00  0.00    -0.399 OA
HETATM    9  H   UNK N   1      35.822  19.276   8.505  0.00  0.00     0.209 HD
ENDBRANCH   7   8
ENDBRANCH   6   7
BRANCH   6  10
HETATM   10  C   UNK N   1      32.028  17.132   7.255  0.00  0.00     0.065 C 
BRANCH  10  11
HETATM   11  C   UNK N   1      30.736  17.480   7.913  0.00  0.00    -0.056 A 
HETATM   12  C   UNK N   1      29.543  17.030   7.339  0.00  0.00     0.007 A 
HETATM   13  C   UNK N   1      28.316  17.364   7.916  0.00  0.00     0.001 A 
HETATM   14  C   UNK N   1      28.280  18.153   9.070  0.00  0.00     0.000 A 
HETATM   15  C   UNK N   1      29.472  18.607   9.645  0.00  0.00     0.001 A 
HETATM   16  C   UNK N   1      30.700  18.274   9.066  0.00  0.00     0.007 A 
ENDBRANCH  10  11
ENDBRANCH   6  10
ENDBRANCH   3   6
ENDBRANCH   1   2
BRANCH   1  17
HETATM   17  C   UNK N   1      34.425  13.378   8.461  0.00  0.00     0.009 C 
HETATM   18  C   UNK N   1      35.595  12.891   7.626  0.00  0.00     0.012 C 
HETATM   19  C   UNK N   1      33.539  12.191   8.814  0.00  0.00     0.012 C 
ENDBRANCH   1  17
BRANCH   1  20
HETATM   20  N   UNK N   1      36.295  13.914   9.888  0.00  0.00    -0.346 N 
HETATM   21  C   UNK N   1      36.996  13.487  10.978  0.00  0.00     0.240 C 
HETATM   22  O   UNK N   1      38.200  13.323  10.846  0.00  0.00    -0.271 OA
HETATM   23  H   UNK N   1      36.848  14.053   9.086  0.00  0.00     0.163 HD
BRANCH  21  24
HETATM   24  C   UNK N   1      36.403  13.330  12.370  0.00  0.00     0.174 C 
HETATM   25  C   UNK N   1      36.213  14.738  12.908  0.00  0.00     0.042 C 
BRANCH  24  26
HETATM   26  N   UNK N   1      37.219  12.611  13.346  0.00  0.00    -0.324 N 
HETATM   27  C   UNK N   1      36.842  11.661  14.241  0.00  0.00     0.361 C 
HETATM   28  O   UNK N   1      37.711  11.081  14.882  0.00  0.00    -0.238 OA
HETATM   29  H   UNK N   1      38.174  12.849  13.357  0.00  0.00     0.165 HD
BRANCH  27  30
HETATM   30  O   UNK N   1      35.546  11.348  14.440  0.00  0.00    -0.299 OA
BRANCH  30  31
HETATM   31  C   UNK N   1      34.708  12.184  15.146  0.00  0.00     0.219 C 
BRANCH  31  32
HETATM   32  C   UNK N   1      35.025  12.271  16.596  0.00  0.00    -0.034 A 
HETATM   33  C   UNK N   1      35.191  11.103  17.348  0.00  0.00     0.009 A 
HETATM   34  C   UNK N   1      35.359  11.181  18.733  0.00  0.00     0.001 A 
HETATM   35  C   UNK N   1      35.350  12.426  19.370  0.00  0.00     0.000 A 
HETATM   36  C   UNK N   1      35.178  13.593  18.621  0.00  0.00     0.001 A 
HETATM   37  C   UNK N   1      35.005  13.515  17.235  0.00  0.00     0.009 A 
ENDBRANCH  31  32
ENDBRANCH  30  31
ENDBRANCH  27  30
ENDBRANCH  24  26
ENDBRANCH  21  24
ENDBRANCH   1  20
TORSDOF 13
ENDMDL
MODEL 4
REMARK VINA RESULT:      -6.5     10.261     12.529
REMARK  13 active torsions:
REMARK  status: ('A' for Active; 'I' for Inactive)
REMARK    1  A    between atoms: C_1  and  C_2 
REMARK    2  A    between atoms: C_1  and  C_4 
REMARK    3  A    between atoms: C_1  and  N_11 
REMARK    4  A    between atoms: C_2  and  O_3 
REMARK    5  A    between atoms: C_4  and  C_5 
REMARK       I    between atoms: N_11  and  C_13 
REMARK    6  A    between atoms: C_12  and  C_13 
REMARK    7  A    between atoms: C_12  and  C_15 
REMARK    8  A    between atoms: C_12  and  N_18 
REMARK       I    between atoms: N_18  and  C_19 
REMARK    9  A    between atoms: C_19  and  C_21 
REMARK   10  A    between atoms: C_21  and  N_23 
REMARK       I    between atoms: N_23  and  C_24 
REMARK   11  A    between atoms: C_24  and  O_26 
REMARK   12  A    between atoms: O_26  and  C_27 
REMARK   13  A    between atoms: C_27  and  C_28 
ROOT
HETATM    1  C   UNK N   1      27.096  19.234   5.177  0.00  0.00     0.180 C 
ENDROOT
BRANCH   1   2
HETATM    2  C   UNK N   1      27.900  17.972   4.992  0.00  0.00     0.241 C 
HETATM    3  N   UNK N   1      29.164  18.039   4.509  0.00  0.00    -0.352 N 
HETATM    4  H   UNK N   1      29.467  18.887   4.111  0.00  0.00     0.163 HD
HETATM    5  O   UNK N   1      27.420  16.901   5.342  0.00  0.00    -0.271 OA
BRANCH   3   6
HETATM    6  C   UNK N   1      30.093  16.930   4.547  0.00  0.00     0.112 C 
BRANCH   6   7
HETATM    7  C   UNK N   1      29.966  16.091   3.283  0.00  0.00     0.189 C 
BRANCH   7   8
HETATM    8  O   UNK N   1      30.560  16.748   2.204  0.00  0.00    -0.399 OA
HETATM    9  H   UNK N   1      31.247  17.433   2.186  0.00  0.00     0.209 HD
ENDBRANCH   7   8
ENDBRANCH   6   7
BRANCH   6  10
HETATM   10  C   UNK N   1      31.484  17.547   4.635  0.00  0.00     0.065 C 
BRANCH  10  11
HETATM   11  C   UNK N   1      32.130  17.431   5.975  0.00  0.00    -0.056 A 
HETATM   12  C   UNK N   1      31.323  17.224   7.098  0.00  0.00     0.007 A 
HETATM   13  C   UNK N   1      31.898  17.140   8.368  0.00  0.00     0.001 A 
HETATM   14  C   UNK N   1      33.282  17.264   8.518  0.00  0.00     0.000 A 
HETATM   15  C   UNK N   1      34.091  17.474   7.396  0.00  0.00     0.001 A 
HETATM   16  C   UNK N   1      33.516  17.561   6.124  0.00  0.00     0.007 A 
ENDBRANCH  10  11
ENDBRANCH   6  10
ENDBRANCH   3   6
ENDBRANCH   1   2
BRANCH   1  17
HETATM   17  C   UNK N   1      27.838  20.111   6.213  0.00  0.00     0.009 C 
HETATM   18  C   UNK N   1      27.174  21.462   6.408  0.00  0.00     0.012 C 
HETATM   19  C   UNK N   1      28.013  19.443   7.570  0.00  0.00     0.012 C 
ENDBRANCH   1  17
BRANCH   1  20
HETATM   20  N   UNK N   1      26.966  20.033   3.965  0.00  0.00    -0.346 N 
HETATM   21  C   UNK N   1      25.877  20.451   3.256  0.00  0.00     0.240 C 
HETATM   22  O   UNK N   1      26.079  21.129   2.260  0.00  0.00    -0.271 OA
HETATM   23  H   UNK N   1      27.826  20.327   3.587  0.00  0.00     0.163 HD
BRANCH  21  24
HETATM   24  C   UNK N   1      24.448  20.022   3.551  0.00  0.00     0.174 C 
HETATM   25  C   UNK N   1      24.455  18.502   3.543  0.00  0.00     0.042 C 
BRANCH  24  26
HETATM   26  N   UNK N   1      23.432  20.445   2.590  0.00  0.00    -0.324 N 
HETATM   27  C   UNK N   1      22.082  20.495   2.739  0.00  0.00     0.361 C 
HETATM   28  O   UNK N   1      21.412  21.012   1.853  0.00  0.00    -0.238 OA
HETATM   29  H   UNK N   1      23.773  20.732   1.713  0.00  0.00     0.165 HD
BRANCH  27  30
HETATM   30  O   UNK N   1      21.470  19.990   3.830  0.00  0.00    -0.299 OA
BRANCH  30  31
HETATM   31  C   UNK N   1      20.603  18.923   3.733  0.00  0.00     0.219 C 
BRANCH  31  32
HETATM   32  C   UNK N   1      21.076  17.697   4.429  0.00  0.00    -0.034 A 
HETATM   33  C   UNK N   1      21.476  17.763   5.768  0.00  0.00     0.009 A 
HETATM   34  C   UNK N   1      22.042  16.645   6.385  0.00  0.00     0.001 A 
HETATM   35  C   UNK N   1      22.222  15.462   5.660  0.00  0.00     0.000 A 
HETATM   36  C   UNK N   1      21.829  15.397   4.320  0.00  0.00     0.001 A 
HETATM   37  C   UNK N   1      21.267  16.518   3.702  0.00  0.00     0.009 A 
ENDBRANCH  31  32
ENDBRANCH  30  31
ENDBRANCH  27  30
ENDBRANCH  24  26
ENDBRANCH  21  24
ENDBRANCH   1  20
TORSDOF 13
ENDMDL
MODEL 5
REMARK VINA RESULT:      -6.5      1.915      6.520
REMARK  13 active torsions:
REMARK  status: ('A' for Active; 'I' for Inactive)
REMARK    1  A    between atoms: C_1  and  C_2 
REMARK    2  A    between atoms: C_1  and  C_4 
REMARK    3  A    between atoms: C_1  and  N_11 
REMARK    4  A    between atoms: C_2  and  O_3 
REMARK    5  A    between atoms: C_4  and  C_5 
REMARK       I    between atoms: N_11  and  C_13 
REMARK    6  A    between atoms: C_12  and  C_13 
REMARK    7  A    between atoms: C_12  and  C_15 
REMARK    8  A    between atoms: C_12  and  N_18 
REMARK       I    between atoms: N_18  and  C_19 
REMARK    9  A    between atoms: C_19  and  C_21 
REMARK   10  A    between atoms: C_21  and  N_23 
REMARK       I    between atoms: N_23  and  C_24 
REMARK   11  A    between atoms: C_24  and  O_26 
REMARK   12  A    between atoms: O_26  and  C_27 
REMARK   13  A    between atoms: C_27  and  C_28 
ROOT
HETATM    1  C   UNK N   1      26.647  25.091  -5.022  0.00  0.00     0.180 C 
ENDROOT
BRANCH   1   2
HETATM    2  C   UNK N   1      26.254  24.096  -6.085  0.00  0.00     0.241 C 
HETATM    3  N   UNK N   1      27.035  23.931  -7.179  0.00  0.00    -0.352 N 
HETATM    4  H   UNK N   1      27.742  24.594  -7.352  0.00  0.00     0.163 HD
HETATM    5  O   UNK N   1      25.261  23.401  -5.915  0.00  0.00    -0.271 OA
BRANCH   3   6
HETATM    6  C   UNK N   1      26.887  22.831  -8.107  0.00  0.00     0.112 C 
BRANCH   6   7
HETATM    7  C   UNK N   1      25.801  23.144  -9.128  0.00  0.00     0.189 C 
BRANCH   7   8
HETATM    8  O   UNK N   1      24.550  22.773  -8.631  0.00  0.00    -0.399 OA
HETATM    9  H   UNK N   1      23.815  23.317  -8.308  0.00  0.00     0.209 HD
ENDBRANCH   7   8
ENDBRANCH   6   7
BRANCH   6  10
HETATM   10  C   UNK N   1      28.236  22.677  -8.800  0.00  0.00     0.065 C 
BRANCH  10  11
HETATM   11  C   UNK N   1      28.757  21.280  -8.841  0.00  0.00    -0.056 A 
HETATM   12  C   UNK N   1      28.570  20.457  -7.725  0.00  0.00     0.007 A 
HETATM   13  C   UNK N   1      29.071  19.154  -7.724  0.00  0.00     0.001 A 
HETATM   14  C   UNK N   1      29.763  18.670  -8.839  0.00  0.00     0.000 A 
HETATM   15  C   UNK N   1      29.953  19.493  -9.955  0.00  0.00     0.001 A 
HETATM   16  C   UNK N   1      29.453  20.799  -9.956  0.00  0.00     0.007 A 
ENDBRANCH  10  11
ENDBRANCH   6  10
ENDBRANCH   3   6
ENDBRANCH   1   2
BRANCH   1  17
HETATM   17  C   UNK N   1      25.563  26.193  -4.991  0.00  0.00     0.009 C 
HETATM   18  C   UNK N   1      25.815  27.222  -3.903  0.00  0.00     0.012 C 
HETATM   19  C   UNK N   1      25.381  26.912  -6.320  0.00  0.00     0.012 C 
ENDBRANCH   1  17
BRANCH   1  20
HETATM   20  N   UNK N   1      26.710  24.525  -3.679  0.00  0.00    -0.346 N 
HETATM   21  C   UNK N   1      27.727  23.945  -2.977  0.00  0.00     0.240 C 
HETATM   22  O   UNK N   1      27.482  23.559  -1.844  0.00  0.00    -0.271 OA
HETATM   23  H   UNK N   1      25.860  24.570  -3.187  0.00  0.00     0.163 HD
BRANCH  21  24
HETATM   24  C   UNK N   1      29.098  23.633  -3.556  0.00  0.00     0.174 C 
HETATM   25  C   UNK N   1      29.867  22.918  -2.458  0.00  0.00     0.042 C 
BRANCH  24  26
HETATM   26  N   UNK N   1      29.908  24.780  -3.962  0.00  0.00    -0.324 N 
HETATM   27  C   UNK N   1      30.343  25.124  -5.202  0.00  0.00     0.361 C 
HETATM   28  O   UNK N   1      30.900  26.206  -5.350  0.00  0.00    -0.238 OA
HETATM   29  H   UNK N   1      30.177  25.386  -3.234  0.00  0.00     0.165 HD
BRANCH  27  30
HETATM   30  O   UNK N   1      30.179  24.309  -6.263  0.00  0.00    -0.299 OA
BRANCH  30  31
HETATM   31  C   UNK N   1      31.242  23.955  -7.065  0.00  0.00     0.219 C 
BRANCH  31  32
HETATM   32  C   UNK N   1      31.618  22.520  -6.970  0.00  0.00    -0.034 A 
HETATM   33  C   UNK N   1      31.355  21.803  -5.797  0.00  0.00     0.009 A 
HETATM   34  C   UNK N   1      31.822  20.494  -5.657  0.00  0.00     0.001 A 
HETATM   35  C   UNK N   1      32.565  19.904  -6.684  0.00  0.00     0.000 A 
HETATM   36  C   UNK N   1      32.835  20.620  -7.853  0.00  0.00     0.001 A 
HETATM   37  C   UNK N   1      32.371  21.932  -7.992  0.00  0.00     0.009 A 
ENDBRANCH  31  32
ENDBRANCH  30  31
ENDBRANCH  27  30
ENDBRANCH  24  26
ENDBRANCH  21  24
ENDBRANCH   1  20
TORSDOF 13
ENDMDL
MODEL 6
REMARK VINA RESULT:      -6.5     18.219     22.112
REMARK  13 active torsions:
REMARK  status: ('A' for Active; 'I' for Inactive)
REMARK    1  A    between atoms: C_1  and  C_2 
REMARK    2  A    between atoms: C_1  and  C_4 
REMARK    3  A    between atoms: C_1  and  N_11 
REMARK    4  A    between atoms: C_2  and  O_3 
REMARK    5  A    between atoms: C_4  and  C_5 
REMARK       I    between atoms: N_11  and  C_13 
REMARK    6  A    between atoms: C_12  and  C_13 
REMARK    7  A    between atoms: C_12  and  C_15 
REMARK    8  A    between atoms: C_12  and  N_18 
REMARK       I    between atoms: N_18  and  C_19 
REMARK    9  A    between atoms: C_19  and  C_21 
REMARK   10  A    between atoms: C_21  and  N_23 
REMARK       I    between atoms: N_23  and  C_24 
REMARK   11  A    between atoms: C_24  and  O_26 
REMARK   12  A    between atoms: O_26  and  C_27 
REMARK   13  A    between atoms: C_27  and  C_28 
ROOT
HETATM    1  C   UNK N   1      35.530  11.942  12.440  0.00  0.00     0.180 C 
ENDROOT
BRANCH   1   2
HETATM    2  C   UNK N   1      36.324  12.267  13.680  0.00  0.00     0.241 C 
HETATM    3  N   UNK N   1      35.967  13.320  14.455  0.00  0.00    -0.352 N 
HETATM    4  H   UNK N   1      35.315  13.964  14.095  0.00  0.00     0.163 HD
HETATM    5  O   UNK N   1      37.248  11.535  14.008  0.00  0.00    -0.271 OA
BRANCH   3   6
HETATM    6  C   UNK N   1      36.493  13.548  15.783  0.00  0.00     0.112 C 
BRANCH   6   7
HETATM    7  C   UNK N   1      37.189  14.900  15.852  0.00  0.00     0.189 C 
BRANCH   7   8
HETATM    8  O   UNK N   1      37.188  15.508  14.595  0.00  0.00    -0.399 OA
HETATM    9  H   UNK N   1      37.289  15.124  13.710  0.00  0.00     0.209 HD
ENDBRANCH   7   8
ENDBRANCH   6   7
BRANCH   6  10
HETATM   10  C   UNK N   1      35.293  13.521  16.724  0.00  0.00     0.065 C 
BRANCH  10  11
HETATM   11  C   UNK N   1      35.316  12.418  17.728  0.00  0.00    -0.056 A 
HETATM   12  C   UNK N   1      35.306  11.094  17.277  0.00  0.00     0.007 A 
HETATM   13  C   UNK N   1      35.298  10.041  18.194  0.00  0.00     0.001 A 
HETATM   14  C   UNK N   1      35.299  10.310  19.566  0.00  0.00     0.000 A 
HETATM   15  C   UNK N   1      35.307  11.634  20.020  0.00  0.00     0.001 A 
HETATM   16  C   UNK N   1      35.312  12.689  19.101  0.00  0.00     0.007 A 
ENDBRANCH  10  11
ENDBRANCH   6  10
ENDBRANCH   3   6
ENDBRANCH   1   2
BRANCH   1  17
HETATM   17  C   UNK N   1      34.724  10.653  12.728  0.00  0.00     0.009 C 
HETATM   18  C   UNK N   1      33.811  10.799  13.932  0.00  0.00     0.012 C 
HETATM   19  C   UNK N   1      33.905  10.163  11.541  0.00  0.00     0.012 C 
ENDBRANCH   1  17
BRANCH   1  20
HETATM   20  N   UNK N   1      34.563  12.969  12.072  0.00  0.00    -0.346 N 
HETATM   21  C   UNK N   1      34.707  14.192  11.483  0.00  0.00     0.240 C 
HETATM   22  O   UNK N   1      33.694  14.847  11.290  0.00  0.00    -0.271 OA
HETATM   23  H   UNK N   1      33.632  12.737  12.289  0.00  0.00     0.163 HD
BRANCH  21  24
HETATM   24  C   UNK N   1      36.047  14.842  11.175  0.00  0.00     0.174 C 
HETATM   25  C   UNK N   1      35.743  16.289  10.826  0.00  0.00     0.042 C 
BRANCH  24  26
HETATM   26  N   UNK N   1      36.795  14.284  10.051  0.00  0.00    -0.324 N 
HETATM   27  C   UNK N   1      36.443  14.211   8.740  0.00  0.00     0.361 C 
HETATM   28  O   UNK N   1      37.276  13.825   7.929  0.00  0.00    -0.238 OA
HETATM   29  H   UNK N   1      37.677  13.908  10.274  0.00  0.00     0.165 HD
BRANCH  27  30
HETATM   30  O   UNK N   1      35.207  14.548   8.318  0.00  0.00    -0.299 OA
BRANCH  30  31
HETATM   31  C   UNK N   1      35.023  15.352   7.214  0.00  0.00     0.219 C 
BRANCH  31  32
HETATM   32  C   UNK N   1      33.648  15.905   7.094  0.00  0.00    -0.034 A 
HETATM   33  C   UNK N   1      33.248  16.534   5.910  0.00  0.00     0.009 A 
HETATM   34  C   UNK N   1      32.005  17.168   5.840  0.00  0.00     0.001 A 
HETATM   35  C   UNK N   1      31.165  17.185   6.958  0.00  0.00     0.000 A 
HETATM   36  C   UNK N   1      31.565  16.563   8.143  0.00  0.00     0.001 A 
HETATM   37  C   UNK N   1      32.812  15.932   8.215  0.00  0.00     0.009 A 
ENDBRANCH  31  32
ENDBRANCH  30  31
ENDBRANCH  27  30
ENDBRANCH  24  26
ENDBRANCH  21  24
ENDBRANCH   1  20
TORSDOF 13
ENDMDL
MODEL 7
REMARK VINA RESULT:      -6.5      1.920      4.415
REMARK  13 active torsions:
REMARK  status: ('A' for Active; 'I' for Inactive)
REMARK    1  A    between atoms: C_1  and  C_2 
REMARK    2  A    between atoms: C_1  and  C_4 
REMARK    3  A    between atoms: C_1  and  N_11 
REMARK    4  A    between atoms: C_2  and  O_3 
REMARK    5  A    between atoms: C_4  and  C_5 
REMARK       I    between atoms: N_11  and  C_13 
REMARK    6  A    between atoms: C_12  and  C_13 
REMARK    7  A    between atoms: C_12  and  C_15 
REMARK    8  A    between atoms: C_12  and  N_18 
REMARK       I    between atoms: N_18  and  C_19 
REMARK    9  A    between atoms: C_19  and  C_21 
REMARK   10  A    between atoms: C_21  and  N_23 
REMARK       I    between atoms: N_23  and  C_24 
REMARK   11  A    between atoms: C_24  and  O_26 
REMARK   12  A    between atoms: O_26  and  C_27 
REMARK   13  A    between atoms: C_27  and  C_28 
ROOT
HETATM    1  C   UNK N   1      27.520  26.606  -5.007  0.00  0.00     0.180 C 
ENDROOT
BRANCH   1   2
HETATM    2  C   UNK N   1      28.636  25.841  -4.342  0.00  0.00     0.241 C 
HETATM    3  N   UNK N   1      28.467  24.533  -4.027  0.00  0.00    -0.352 N 
HETATM    4  H   UNK N   1      27.557  24.159  -4.065  0.00  0.00     0.163 HD
HETATM    5  O   UNK N   1      29.710  26.396  -4.150  0.00  0.00    -0.271 OA
BRANCH   3   6
HETATM    6  C   UNK N   1      29.552  23.660  -3.637  0.00  0.00     0.112 C 
BRANCH   6   7
HETATM    7  C   UNK N   1      29.260  23.025  -2.285  0.00  0.00     0.189 C 
BRANCH   7   8
HETATM    8  O   UNK N   1      30.400  23.054  -1.481  0.00  0.00    -0.399 OA
HETATM    9  H   UNK N   1      30.669  23.683  -0.793  0.00  0.00     0.209 HD
ENDBRANCH   7   8
ENDBRANCH   6   7
BRANCH   6  10
HETATM   10  C   UNK N   1      29.640  22.588  -4.718  0.00  0.00     0.065 C 
BRANCH  10  11
HETATM   11  C   UNK N   1      30.951  21.881  -4.786  0.00  0.00    -0.056 A 
HETATM   12  C   UNK N   1      32.080  22.592  -5.205  0.00  0.00     0.007 A 
HETATM   13  C   UNK N   1      33.316  21.950  -5.305  0.00  0.00     0.001 A 
HETATM   14  C   UNK N   1      33.425  20.593  -4.990  0.00  0.00     0.000 A 
HETATM   15  C   UNK N   1      32.296  19.878  -4.573  0.00  0.00     0.001 A 
HETATM   16  C   UNK N   1      31.058  20.521  -4.474  0.00  0.00     0.007 A 
ENDBRANCH  10  11
ENDBRANCH   6  10
ENDBRANCH   3   6
ENDBRANCH   1   2
BRANCH   1  17
HETATM   17  C   UNK N   1      27.171  27.807  -4.097  0.00  0.00     0.009 C 
HETATM   18  C   UNK N   1      26.891  29.071  -4.890  0.00  0.00     0.012 C 
HETATM   19  C   UNK N   1      26.004  27.545  -3.155  0.00  0.00     0.012 C 
ENDBRANCH   1  17
BRANCH   1  20
HETATM   20  N   UNK N   1      27.876  27.154  -6.310  0.00  0.00    -0.346 N 
HETATM   21  C   UNK N   1      27.965  26.587  -7.549  0.00  0.00     0.240 C 
HETATM   22  O   UNK N   1      28.291  27.311  -8.478  0.00  0.00    -0.271 OA
HETATM   23  H   UNK N   1      28.093  28.114  -6.294  0.00  0.00     0.163 HD
BRANCH  21  24
HETATM   24  C   UNK N   1      27.814  25.099  -7.822  0.00  0.00     0.174 C 
HETATM   25  C   UNK N   1      28.049  24.918  -9.312  0.00  0.00     0.042 C 
BRANCH  24  26
HETATM   26  N   UNK N   1      26.509  24.513  -7.525  0.00  0.00    -0.324 N 
HETATM   27  C   UNK N   1      26.214  23.269  -7.066  0.00  0.00     0.361 C 
HETATM   28  O   UNK N   1      25.057  23.018  -6.750  0.00  0.00    -0.238 OA
HETATM   29  H   UNK N   1      25.736  25.102  -7.681  0.00  0.00     0.165 HD
BRANCH  27  30
HETATM   30  O   UNK N   1      27.158  22.312  -6.954  0.00  0.00    -0.299 OA
BRANCH  30  31
HETATM   31  C   UNK N   1      27.289  21.321  -7.903  0.00  0.00     0.219 C 
BRANCH  31  32
HETATM   32  C   UNK N   1      28.684  20.842  -8.086  0.00  0.00    -0.034 A 
HETATM   33  C   UNK N   1      29.009  19.510  -7.808  0.00  0.00     0.009 A 
HETATM   34  C   UNK N   1      30.341  19.090  -7.854  0.00  0.00     0.001 A 
HETATM   35  C   UNK N   1      31.351  20.005  -8.167  0.00  0.00     0.000 A 
HETATM   36  C   UNK N   1      31.029  21.337  -8.439  0.00  0.00     0.001 A 
HETATM   37  C   UNK N   1      29.696  21.758  -8.388  0.00  0.00     0.009 A 
ENDBRANCH  31  32
ENDBRANCH  30  31
ENDBRANCH  27  30
ENDBRANCH  24  26
ENDBRANCH  21  24
ENDBRANCH   1  20
TORSDOF 13
ENDMDL
MODEL 8
REMARK VINA RESULT:      -6.4     12.710     15.597
REMARK  13 active torsions:
REMARK  status: ('A' for Active; 'I' for Inactive)
REMARK    1  A    between atoms: C_1  and  C_2 
REMARK    2  A    between atoms: C_1  and  C_4 
REMARK    3  A    between atoms: C_1  and  N_11 
REMARK    4  A    between atoms: C_2  and  O_3 
REMARK    5  A    between atoms: C_4  and  C_5 
REMARK       I    between atoms: N_11  and  C_13 
REMARK    6  A    between atoms: C_12  and  C_13 
REMARK    7  A    between atoms: C_12  and  C_15 
REMARK    8  A    between atoms: C_12  and  N_18 
REMARK       I    between atoms: N_18  and  C_19 
REMARK    9  A    between atoms: C_19  and  C_21 
REMARK   10  A    between atoms: C_21  and  N_23 
REMARK       I    between atoms: N_23  and  C_24 
REMARK   11  A    between atoms: C_24  and  O_26 
REMARK   12  A    between atoms: O_26  and  C_27 
REMARK   13  A    between atoms: C_27  and  C_28 
ROOT
HETATM    1  C   UNK N   1      28.957  16.917   6.706  0.00  0.00     0.180 C 
ENDROOT
BRANCH   1   2
HETATM    2  C   UNK N   1      30.099  16.347   5.903  0.00  0.00     0.241 C 
HETATM    3  N   UNK N   1      30.866  17.165   5.142  0.00  0.00    -0.352 N 
HETATM    4  H   UNK N   1      30.549  18.083   4.979  0.00  0.00     0.163 HD
HETATM    5  O   UNK N   1      30.360  15.155   5.997  0.00  0.00    -0.271 OA
BRANCH   3   6
HETATM    6  C   UNK N   1      32.126  16.762   4.557  0.00  0.00     0.112 C 
BRANCH   6   7
HETATM    7  C   UNK N   1      32.101  16.974   3.049  0.00  0.00     0.189 C 
BRANCH   7   8
HETATM    8  O   UNK N   1      30.784  17.001   2.587  0.00  0.00    -0.399 OA
HETATM    9  H   UNK N   1      30.334  17.636   2.008  0.00  0.00     0.209 HD
ENDBRANCH   7   8
ENDBRANCH   6   7
BRANCH   6  10
HETATM   10  C   UNK N   1      33.192  17.644   5.198  0.00  0.00     0.065 C 
BRANCH  10  11
HETATM   11  C   UNK N   1      33.694  17.152   6.514  0.00  0.00    -0.056 A 
HETATM   12  C   UNK N   1      33.804  15.774   6.722  0.00  0.00     0.007 A 
HETATM   13  C   UNK N   1      34.245  15.283   7.953  0.00  0.00     0.001 A 
HETATM   14  C   UNK N   1      34.575  16.172   8.981  0.00  0.00     0.000 A 
HETATM   15  C   UNK N   1      34.464  17.552   8.775  0.00  0.00     0.001 A 
HETATM   16  C   UNK N   1      34.021  18.042   7.543  0.00  0.00     0.007 A 
ENDBRANCH  10  11
ENDBRANCH   6  10
ENDBRANCH   3   6
ENDBRANCH   1   2
BRANCH   1  17
HETATM   17  C   UNK N   1      29.558  17.900   7.738  0.00  0.00     0.009 C 
HETATM   18  C   UNK N   1      28.492  18.578   8.579  0.00  0.00     0.012 C 
HETATM   19  C   UNK N   1      30.589  17.266   8.661  0.00  0.00     0.012 C 
ENDBRANCH   1  17
BRANCH   1  20
HETATM   20  N   UNK N   1      27.998  17.676   5.911  0.00  0.00    -0.346 N 
HETATM   21  C   UNK N   1      26.703  17.428   5.558  0.00  0.00     0.240 C 
HETATM   22  O   UNK N   1      26.135  18.265   4.873  0.00  0.00    -0.271 OA
HETATM   23  H   UNK N   1      28.351  18.526   5.565  0.00  0.00     0.163 HD
BRANCH  21  24
HETATM   24  C   UNK N   1      25.970  16.127   5.848  0.00  0.00     0.174 C 
HETATM   25  C   UNK N   1      26.487  15.118   4.836  0.00  0.00     0.042 C 
BRANCH  24  26
HETATM   26  N   UNK N   1      24.516  16.157   5.712  0.00  0.00    -0.324 N 
HETATM   27  C   UNK N   1      23.574  15.530   6.463  0.00  0.00     0.361 C 
HETATM   28  O   UNK N   1      22.393  15.795   6.266  0.00  0.00    -0.238 OA
HETATM   29  H   UNK N   1      24.172  16.707   4.972  0.00  0.00     0.165 HD
BRANCH  27  30
HETATM   30  O   UNK N   1      23.905  14.628   7.410  0.00  0.00    -0.299 OA
BRANCH  30  31
HETATM   31  C   UNK N   1      23.256  13.416   7.502  0.00  0.00     0.219 C 
BRANCH  31  32
HETATM   32  C   UNK N   1      23.280  12.821   8.865  0.00  0.00    -0.034 A 
HETATM   33  C   UNK N   1      22.085  12.623   9.563  0.00  0.00     0.009 A 
HETATM   34  C   UNK N   1      22.114  12.186  10.890  0.00  0.00     0.001 A 
HETATM   35  C   UNK N   1      23.339  11.960  11.525  0.00  0.00     0.000 A 
HETATM   36  C   UNK N   1      24.535  12.164  10.831  0.00  0.00     0.001 A 
HETATM   37  C   UNK N   1      24.505  12.606   9.504  0.00  0.00     0.009 A 
ENDBRANCH  31  32
ENDBRANCH  30  31
ENDBRANCH  27  30
ENDBRANCH  24  26
ENDBRANCH  21  24
ENDBRANCH   1  20
TORSDOF 13
ENDMDL
MODEL 9
REMARK VINA RESULT:      -6.4     10.992     14.347
REMARK  13 active torsions:
REMARK  status: ('A' for Active; 'I' for Inactive)
REMARK    1  A    between atoms: C_1  and  C_2 
REMARK    2  A    between atoms: C_1  and  C_4 
REMARK    3  A    between atoms: C_1  and  N_11 
REMARK    4  A    between atoms: C_2  and  O_3 
REMARK    5  A    between atoms: C_4  and  C_5 
REMARK       I    between atoms: N_11  and  C_13 
REMARK    6  A    between atoms: C_12  and  C_13 
REMARK    7  A    between atoms: C_12  and  C_15 
REMARK    8  A    between atoms: C_12  and  N_18 
REMARK       I    between atoms: N_18  and  C_19 
REMARK    9  A    between atoms: C_19  and  C_21 
REMARK   10  A    between atoms: C_21  and  N_23 
REMARK       I    between atoms: N_23  and  C_24 
REMARK   11  A    between atoms: C_24  and  O_26 
REMARK   12  A    between atoms: O_26  and  C_27 
REMARK   13  A    between atoms: C_27  and  C_28 
ROOT
HETATM    1  C   UNK N   1      24.275  17.974   4.528  0.00  0.00     0.180 C 
ENDROOT
BRANCH   1   2
HETATM    2  C   UNK N   1      22.876  18.534   4.573  0.00  0.00     0.241 C 
HETATM    3  N   UNK N   1      22.307  19.027   3.446  0.00  0.00    -0.352 N 
HETATM    4  H   UNK N   1      22.884  19.183   2.663  0.00  0.00     0.163 HD
HETATM    5  O   UNK N   1      22.243  18.479   5.619  0.00  0.00    -0.271 OA
BRANCH   3   6
HETATM    6  C   UNK N   1      20.899  19.334   3.331  0.00  0.00     0.112 C 
BRANCH   6   7
HETATM    7  C   UNK N   1      20.707  20.792   2.934  0.00  0.00     0.189 C 
BRANCH   7   8
HETATM    8  O   UNK N   1      21.945  21.416   2.774  0.00  0.00    -0.399 OA
HETATM    9  H   UNK N   1      22.491  21.902   3.412  0.00  0.00     0.209 HD
ENDBRANCH   7   8
ENDBRANCH   6   7
BRANCH   6  10
HETATM   10  C   UNK N   1      20.352  18.413   2.247  0.00  0.00     0.065 C 
BRANCH  10  11
HETATM   11  C   UNK N   1      20.251  16.979   2.644  0.00  0.00    -0.056 A 
HETATM   12  C   UNK N   1      20.720  16.000   1.762  0.00  0.00     0.007 A 
HETATM   13  C   UNK N   1      20.613  14.648   2.094  0.00  0.00     0.001 A 
HETATM   14  C   UNK N   1      20.033  14.271   3.310  0.00  0.00     0.000 A 
HETATM   15  C   UNK N   1      19.560  15.249   4.192  0.00  0.00     0.001 A 
HETATM   16  C   UNK N   1      19.666  16.603   3.859  0.00  0.00     0.007 A 
ENDBRANCH  10  11
ENDBRANCH   6  10
ENDBRANCH   3   6
ENDBRANCH   1   2
BRANCH   1  17
HETATM   17  C   UNK N   1      24.215  16.630   3.765  0.00  0.00     0.009 C 
HETATM   18  C   UNK N   1      25.592  16.122   3.379  0.00  0.00     0.012 C 
HETATM   19  C   UNK N   1      23.473  15.531   4.514  0.00  0.00     0.012 C 
ENDBRANCH   1  17
BRANCH   1  20
HETATM   20  N   UNK N   1      25.226  18.819   3.817  0.00  0.00    -0.346 N 
HETATM   21  C   UNK N   1      26.129  19.746   4.250  0.00  0.00     0.240 C 
HETATM   22  O   UNK N   1      26.811  20.308   3.405  0.00  0.00    -0.271 OA
HETATM   23  H   UNK N   1      25.214  18.699   2.840  0.00  0.00     0.163 HD
BRANCH  21  24
HETATM   24  C   UNK N   1      26.250  20.215   5.692  0.00  0.00     0.174 C 
HETATM   25  C   UNK N   1      27.247  21.362   5.680  0.00  0.00     0.042 C 
BRANCH  24  26
HETATM   26  N   UNK N   1      26.745  19.235   6.654  0.00  0.00    -0.324 N 
HETATM   27  C   UNK N   1      27.887  18.499   6.616  0.00  0.00     0.361 C 
HETATM   28  O   UNK N   1      28.187  17.828   7.596  0.00  0.00    -0.238 OA
HETATM   29  H   UNK N   1      26.171  19.085   7.440  0.00  0.00     0.165 HD
BRANCH  27  30
HETATM   30  O   UNK N   1      28.689  18.490   5.531  0.00  0.00    -0.299 OA
BRANCH  30  31
HETATM   31  C   UNK N   1      29.258  17.322   5.073  0.00  0.00     0.219 C 
BRANCH  31  32
HETATM   32  C   UNK N   1      30.736  17.271   5.226  0.00  0.00    -0.034 A 
HETATM   33  C   UNK N   1      31.302  17.082   6.492  0.00  0.00     0.009 A 
HETATM   34  C   UNK N   1      32.687  17.164   6.658  0.00  0.00     0.001 A 
HETATM   35  C   UNK N   1      33.507  17.446   5.561  0.00  0.00     0.000 A 
HETATM   36  C   UNK N   1      32.943  17.641   4.298  0.00  0.00     0.001 A 
HETATM   37  C   UNK N   1      31.556  17.564   4.132  0.00  0.00     0.009 A 
ENDBRANCH  31  32
ENDBRANCH  30  31
ENDBRANCH  27  30
ENDBRANCH  24  26
ENDBRANCH  21  24
ENDBRANCH   1  20
TORSDOF 13
ENDMDL
