REMARK  5 active torsions:
REMARK  status: ('A' for Active; 'I' for Inactive)
REMARK    1  A    between atoms: C_3  and  S_11 
REMARK    2  A    between atoms: C_6  and  C_7 
REMARK       I    between atoms: C_7  and  N_9 
REMARK    3  A    between atoms: N_9  and  C_10 
REMARK    4  A    between atoms: C_10  and  C_15 
REMARK    5  A    between atoms: S_11  and  N_12 
ROOT
HETATM    1  C   UNK N   1       0.607  -0.906   0.525  0.00  0.00     0.018 A 
HETATM    2  C   UNK N   1       1.898  -1.396   0.380  0.00  0.00     0.026 A 
HETATM    3  C   UNK N   1       2.097  -2.731   0.040  0.00  0.00     0.079 A 
HETATM    4  C   UNK N   1       0.998  -3.586  -0.126  0.00  0.00     0.026 A 
HETATM    5  C   UNK N   1      -0.306  -3.091   0.020  0.00  0.00     0.018 A 
HETATM    6  C   UNK N   1      -0.505  -1.738   0.330  0.00  0.00     0.032 A 
ENDROOT
BRANCH   6   7
HETATM    7  C   UNK N   1      -1.846  -1.122   0.337  0.00  0.00     0.251 C 
HETATM    8  O   UNK N   1      -2.848  -1.770   0.080  0.00  0.00    -0.268 OA
HETATM    9  N   UNK N   1      -1.907   0.213   0.529  0.00  0.00    -0.353 N 
HETATM   10  H   UNK N   1      -1.072   0.656   0.806  0.00  0.00     0.163 HD
BRANCH   9  11
HETATM   11  C   UNK N   1      -3.061   1.058   0.373  0.00  0.00     0.161 C 
BRANCH  11  12
HETATM   12  C   UNK N   1      -2.568   2.472   0.186  0.00  0.00    -0.040 A 
HETATM   13  C   UNK N   1      -3.473   3.511  -0.054  0.00  0.00     0.012 A 
HETATM   14  C   UNK N   1      -3.005   4.820  -0.238  0.00  0.00     0.043 A 
HETATM   15  C   UNK N   1      -1.632   5.092  -0.183  0.00  0.00     0.116 A 
HETATM   16  C   UNK N   1      -0.726   4.062   0.055  0.00  0.00     0.043 A 
HETATM   17  F   UNK N   1      -1.177   6.355  -0.361  0.00  0.00    -0.206 F 
HETATM   18  C   UNK N   1      -1.190   2.762   0.237  0.00  0.00     0.012 A 
ENDBRANCH  11  12
ENDBRANCH   9  11
ENDBRANCH   6   7
BRANCH   3  19
HETATM   19  S   UNK N   1       3.752  -3.291  -0.326  0.00  0.00     0.256 S 
HETATM   20  O   UNK N   1       4.763  -2.133  -0.342  0.00  0.00    -0.201 OA
HETATM   21  O   UNK N   1       3.865  -3.810  -1.766  0.00  0.00    -0.201 OA
BRANCH  19  22
HETATM   22  N   UNK N   1       4.494  -4.534   0.680  0.00  0.00    -0.324 N 
HETATM   23  H   UNK N   1       4.085  -5.266   1.262  0.00  0.00     0.169 HD
HETATM   24  H   UNK N   1       5.514  -4.519   0.680  0.00  0.00     0.169 HD
ENDBRANCH  19  22
ENDBRANCH   3  19
TORSDOF 5
