MODEL 1
REMARK VINA RESULT:      -7.7      0.000      0.000
REMARK  5 active torsions:
REMARK  status: ('A' for Active; 'I' for Inactive)
REMARK    1  A    between atoms: C_3  and  S_11 
REMARK    2  A    between atoms: C_6  and  C_7 
REMARK       I    between atoms: C_7  and  N_9 
REMARK    3  A    between atoms: N_9  and  C_10 
REMARK    4  A    between atoms: C_10  and  C_15 
REMARK    5  A    between atoms: S_11  and  N_12 
ROOT
HETATM    1  C   UNK N   1      35.695  15.859  11.604  0.00  0.00     0.018 A 
HETATM    2  C   UNK N   1      35.456  16.841  10.652  0.00  0.00     0.026 A 
HETATM    3  C   UNK N   1      34.837  16.506   9.452  0.00  0.00     0.079 A 
HETATM    4  C   UNK N   1      34.484  15.174   9.190  0.00  0.00     0.026 A 
HETATM    5  C   UNK N   1      34.725  14.182  10.151  0.00  0.00     0.018 A 
HETATM    6  C   UNK N   1      35.319  14.527  11.374  0.00  0.00     0.032 A 
ENDROOT
BRANCH   6   7
HETATM    7  C   UNK N   1      35.450  13.564  12.484  0.00  0.00     0.251 C 
HETATM    8  O   UNK N   1      34.502  12.898  12.867  0.00  0.00    -0.268 OA
HETATM    9  N   UNK N   1      36.634  13.533  13.132  0.00  0.00    -0.353 N 
HETATM   10  H   UNK N   1      37.374  14.038  12.722  0.00  0.00     0.163 HD
BRANCH   9  11
HETATM   11  C   UNK N   1      36.932  12.840  14.357  0.00  0.00     0.161 C 
BRANCH  11  12
HETATM   12  C   UNK N   1      36.700  13.805  15.494  0.00  0.00    -0.040 A 
HETATM   13  C   UNK N   1      37.369  15.033  15.527  0.00  0.00     0.012 A 
HETATM   14  C   UNK N   1      37.156  15.919  16.593  0.00  0.00     0.043 A 
HETATM   15  C   UNK N   1      36.275  15.578  17.628  0.00  0.00     0.116 A 
HETATM   16  C   UNK N   1      35.607  14.357  17.601  0.00  0.00     0.043 A 
HETATM   17  F   UNK N   1      36.068  16.431  18.659  0.00  0.00    -0.206 F 
HETATM   18  C   UNK N   1      35.818  13.477  16.543  0.00  0.00     0.012 A 
ENDBRANCH  11  12
ENDBRANCH   9  11
ENDBRANCH   6   7
BRANCH   3  19
HETATM   19  S   UNK N   1      34.369  17.811   8.328  0.00  0.00     0.256 S 
HETATM   20  O   UNK N   1      34.715  17.469   6.869  0.00  0.00    -0.201 OA
HETATM   21  O   UNK N   1      35.213  19.074   8.549  0.00  0.00    -0.201 OA
BRANCH  19  22
HETATM   22  N   UNK N   1      32.697  18.367   8.285  0.00  0.00    -0.324 N 
HETATM   23  H   UNK N   1      31.934  18.266   8.955  0.00  0.00     0.169 HD
HETATM   24  H   UNK N   1      32.448  18.880   7.439  0.00  0.00     0.169 HD
ENDBRANCH  19  22
ENDBRANCH   3  19
TORSDOF 5
ENDMDL
MODEL 2
REMARK VINA RESULT:      -7.1      1.816      2.340
REMARK  5 active torsions:
REMARK  status: ('A' for Active; 'I' for Inactive)
REMARK    1  A    between atoms: C_3  and  S_11 
REMARK    2  A    between atoms: C_6  and  C_7 
REMARK       I    between atoms: C_7  and  N_9 
REMARK    3  A    between atoms: N_9  and  C_10 
REMARK    4  A    between atoms: C_10  and  C_15 
REMARK    5  A    between atoms: S_11  and  N_12 
ROOT
HETATM    1  C   UNK N   1      35.810  14.281   9.567  0.00  0.00     0.018 A 
HETATM    2  C   UNK N   1      35.221  15.271   8.792  0.00  0.00     0.026 A 
HETATM    3  C   UNK N   1      34.976  16.526   9.342  0.00  0.00     0.079 A 
HETATM    4  C   UNK N   1      35.295  16.781  10.683  0.00  0.00     0.026 A 
HETATM    5  C   UNK N   1      35.890  15.781  11.466  0.00  0.00     0.018 A 
HETATM    6  C   UNK N   1      36.166  14.528  10.901  0.00  0.00     0.032 A 
ENDROOT
BRANCH   6   7
HETATM    7  C   UNK N   1      36.935  13.494  11.620  0.00  0.00     0.251 C 
HETATM    8  O   UNK N   1      37.980  13.049  11.174  0.00  0.00    -0.268 OA
HETATM    9  N   UNK N   1      36.375  12.978  12.736  0.00  0.00    -0.353 N 
HETATM   10  H   UNK N   1      35.573  13.437  13.077  0.00  0.00     0.163 HD
BRANCH   9  11
HETATM   11  C   UNK N   1      36.826  11.832  13.480  0.00  0.00     0.161 C 
BRANCH  11  12
HETATM   12  C   UNK N   1      36.304  11.970  14.889  0.00  0.00    -0.040 A 
HETATM   13  C   UNK N   1      35.731  13.172  15.317  0.00  0.00     0.012 A 
HETATM   14  C   UNK N   1      35.259  13.295  16.631  0.00  0.00     0.043 A 
HETATM   15  C   UNK N   1      35.359  12.217  17.520  0.00  0.00     0.116 A 
HETATM   16  C   UNK N   1      35.929  11.018  17.100  0.00  0.00     0.043 A 
HETATM   17  F   UNK N   1      34.905  12.333  18.790  0.00  0.00    -0.206 F 
HETATM   18  C   UNK N   1      36.399  10.896  15.795  0.00  0.00     0.012 A 
ENDBRANCH  11  12
ENDBRANCH   9  11
ENDBRANCH   6   7
BRANCH   3  19
HETATM   19  S   UNK N   1      34.396  17.836   8.277  0.00  0.00     0.256 S 
HETATM   20  O   UNK N   1      34.681  17.545   6.795  0.00  0.00    -0.201 OA
HETATM   21  O   UNK N   1      35.194  19.130   8.489  0.00  0.00    -0.201 OA
BRANCH  19  22
HETATM   22  N   UNK N   1      32.701  18.318   8.332  0.00  0.00    -0.324 N 
HETATM   23  H   UNK N   1      32.241  19.127   8.750  0.00  0.00     0.169 HD
HETATM   24  H   UNK N   1      32.066  17.672   7.862  0.00  0.00     0.169 HD
ENDBRANCH  19  22
ENDBRANCH   3  19
TORSDOF 5
ENDMDL
MODEL 3
REMARK VINA RESULT:      -6.9      6.903     10.608
REMARK  5 active torsions:
REMARK  status: ('A' for Active; 'I' for Inactive)
REMARK    1  A    between atoms: C_3  and  S_11 
REMARK    2  A    between atoms: C_6  and  C_7 
REMARK       I    between atoms: C_7  and  N_9 
REMARK    3  A    between atoms: N_9  and  C_10 
REMARK    4  A    between atoms: C_10  and  C_15 
REMARK    5  A    between atoms: S_11  and  N_12 
ROOT
HETATM    1  C   UNK N   1      33.479  16.583   6.035  0.00  0.00     0.018 A 
HETATM    2  C   UNK N   1      34.307  16.309   7.115  0.00  0.00     0.026 A 
HETATM    3  C   UNK N   1      33.909  16.668   8.400  0.00  0.00     0.079 A 
HETATM    4  C   UNK N   1      32.690  17.332   8.599  0.00  0.00     0.026 A 
HETATM    5  C   UNK N   1      31.854  17.608   7.508  0.00  0.00     0.018 A 
HETATM    6  C   UNK N   1      32.242  17.216   6.218  0.00  0.00     0.032 A 
ENDROOT
BRANCH   6   7
HETATM    7  C   UNK N   1      31.339  17.331   5.057  0.00  0.00     0.251 C 
HETATM    8  O   UNK N   1      31.756  17.635   3.951  0.00  0.00    -0.268 OA
HETATM    9  N   UNK N   1      30.016  17.197   5.292  0.00  0.00    -0.353 N 
HETATM   10  H   UNK N   1      29.759  16.878   6.188  0.00  0.00     0.163 HD
BRANCH   9  11
HETATM   11  C   UNK N   1      28.942  17.471   4.375  0.00  0.00     0.161 C 
BRANCH  11  12
HETATM   12  C   UNK N   1      28.186  18.666   4.902  0.00  0.00    -0.040 A 
HETATM   13  C   UNK N   1      27.477  19.497   4.028  0.00  0.00     0.012 A 
HETATM   14  C   UNK N   1      26.787  20.611   4.526  0.00  0.00     0.043 A 
HETATM   15  C   UNK N   1      26.805  20.897   5.897  0.00  0.00     0.116 A 
HETATM   16  C   UNK N   1      27.509  20.074   6.772  0.00  0.00     0.043 A 
HETATM   17  F   UNK N   1      26.140  21.973   6.380  0.00  0.00    -0.206 F 
HETATM   18  C   UNK N   1      28.195  18.968   6.278  0.00  0.00     0.012 A 
ENDBRANCH  11  12
ENDBRANCH   9  11
ENDBRANCH   6   7
BRANCH   3  19
HETATM   19  S   UNK N   1      34.897  16.138   9.789  0.00  0.00     0.256 S 
HETATM   20  O   UNK N   1      35.679  17.302  10.419  0.00  0.00    -0.201 OA
HETATM   21  O   UNK N   1      36.039  15.212   9.347  0.00  0.00    -0.201 OA
BRANCH  19  22
HETATM   22  N   UNK N   1      34.126  15.317  11.145  0.00  0.00    -0.324 N 
HETATM   23  H   UNK N   1      34.064  15.558  12.135  0.00  0.00     0.169 HD
HETATM   24  H   UNK N   1      33.657  14.446  10.895  0.00  0.00     0.169 HD
ENDBRANCH  19  22
ENDBRANCH   3  19
TORSDOF 5
ENDMDL
MODEL 4
REMARK VINA RESULT:      -6.6      3.936      5.988
REMARK  5 active torsions:
REMARK  status: ('A' for Active; 'I' for Inactive)
REMARK    1  A    between atoms: C_3  and  S_11 
REMARK    2  A    between atoms: C_6  and  C_7 
REMARK       I    between atoms: C_7  and  N_9 
REMARK    3  A    between atoms: N_9  and  C_10 
REMARK    4  A    between atoms: C_10  and  C_15 
REMARK    5  A    between atoms: S_11  and  N_12 
ROOT
HETATM    1  C   UNK N   1      31.975  17.602   7.901  0.00  0.00     0.018 A 
HETATM    2  C   UNK N   1      30.999  17.243   6.981  0.00  0.00     0.026 A 
HETATM    3  C   UNK N   1      31.338  17.073   5.643  0.00  0.00     0.079 A 
HETATM    4  C   UNK N   1      32.657  17.291   5.218  0.00  0.00     0.026 A 
HETATM    5  C   UNK N   1      33.643  17.653   6.146  0.00  0.00     0.018 A 
HETATM    6  C   UNK N   1      33.306  17.793   7.500  0.00  0.00     0.032 A 
ENDROOT
BRANCH   6   7
HETATM    7  C   UNK N   1      34.324  18.011   8.546  0.00  0.00     0.251 C 
HETATM    8  O   UNK N   1      35.154  18.901   8.454  0.00  0.00    -0.268 OA
HETATM    9  N   UNK N   1      34.370  17.114   9.554  0.00  0.00    -0.353 N 
HETATM   10  H   UNK N   1      33.626  16.471   9.605  0.00  0.00     0.163 HD
BRANCH   9  11
HETATM   11  C   UNK N   1      35.390  16.997  10.562  0.00  0.00     0.161 C 
BRANCH  11  12
HETATM   12  C   UNK N   1      35.360  15.579  11.078  0.00  0.00    -0.040 A 
HETATM   13  C   UNK N   1      34.813  14.554  10.299  0.00  0.00     0.012 A 
HETATM   14  C   UNK N   1      34.779  13.241  10.791  0.00  0.00     0.043 A 
HETATM   15  C   UNK N   1      35.290  12.951  12.062  0.00  0.00     0.116 A 
HETATM   16  C   UNK N   1      35.834  13.967  12.843  0.00  0.00     0.043 A 
HETATM   17  F   UNK N   1      35.257  11.685  12.541  0.00  0.00    -0.206 F 
HETATM   18  C   UNK N   1      35.868  15.271  12.356  0.00  0.00     0.012 A 
ENDBRANCH  11  12
ENDBRANCH   9  11
ENDBRANCH   6   7
BRANCH   3  19
HETATM   19  S   UNK N   1      30.112  16.429   4.516  0.00  0.00     0.256 S 
HETATM   20  O   UNK N   1      28.685  16.829   4.926  0.00  0.00    -0.201 OA
HETATM   21  O   UNK N   1      30.029  14.898   4.589  0.00  0.00    -0.201 OA
BRANCH  19  22
HETATM   22  N   UNK N   1      30.220  16.811   2.799  0.00  0.00    -0.324 N 
HETATM   23  H   UNK N   1      30.893  16.530   2.085  0.00  0.00     0.169 HD
HETATM   24  H   UNK N   1      29.478  17.422   2.458  0.00  0.00     0.169 HD
ENDBRANCH  19  22
ENDBRANCH   3  19
TORSDOF 5
ENDMDL
MODEL 5
REMARK VINA RESULT:      -6.5     19.309     22.247
REMARK  5 active torsions:
REMARK  status: ('A' for Active; 'I' for Inactive)
REMARK    1  A    between atoms: C_3  and  S_11 
REMARK    2  A    between atoms: C_6  and  C_7 
REMARK       I    between atoms: C_7  and  N_9 
REMARK    3  A    between atoms: N_9  and  C_10 
REMARK    4  A    between atoms: C_10  and  C_15 
REMARK    5  A    between atoms: S_11  and  N_12 
ROOT
HETATM    1  C   UNK N   1      28.575  23.762  -4.304  0.00  0.00     0.018 A 
HETATM    2  C   UNK N   1      29.666  23.118  -3.737  0.00  0.00     0.026 A 
HETATM    3  C   UNK N   1      30.323  22.116  -4.446  0.00  0.00     0.079 A 
HETATM    4  C   UNK N   1      29.867  21.739  -5.717  0.00  0.00     0.026 A 
HETATM    5  C   UNK N   1      28.765  22.390  -6.290  0.00  0.00     0.018 A 
HETATM    6  C   UNK N   1      28.125  23.421  -5.588  0.00  0.00     0.032 A 
ENDROOT
BRANCH   6   7
HETATM    7  C   UNK N   1      27.069  24.251  -6.199  0.00  0.00     0.251 C 
HETATM    8  O   UNK N   1      26.951  24.344  -7.411  0.00  0.00    -0.268 OA
HETATM    9  N   UNK N   1      26.310  24.992  -5.364  0.00  0.00    -0.353 N 
HETATM   10  H   UNK N   1      26.408  24.809  -4.401  0.00  0.00     0.163 HD
BRANCH   9  11
HETATM   11  C   UNK N   1      25.372  26.020  -5.729  0.00  0.00     0.161 C 
BRANCH  11  12
HETATM   12  C   UNK N   1      25.991  27.349  -5.371  0.00  0.00    -0.040 A 
HETATM   13  C   UNK N   1      25.585  28.030  -4.218  0.00  0.00     0.012 A 
HETATM   14  C   UNK N   1      26.158  29.270  -3.899  0.00  0.00     0.043 A 
HETATM   15  C   UNK N   1      27.135  29.831  -4.732  0.00  0.00     0.116 A 
HETATM   16  C   UNK N   1      27.542  29.158  -5.880  0.00  0.00     0.043 A 
HETATM   17  F   UNK N   1      27.689  31.028  -4.426  0.00  0.00    -0.206 F 
HETATM   18  C   UNK N   1      26.974  27.927  -6.198  0.00  0.00     0.012 A 
ENDBRANCH  11  12
ENDBRANCH   9  11
ENDBRANCH   6   7
BRANCH   3  19
HETATM   19  S   UNK N   1      31.832  21.435  -3.779  0.00  0.00     0.256 S 
HETATM   20  O   UNK N   1      31.964  21.691  -2.269  0.00  0.00    -0.201 OA
HETATM   21  O   UNK N   1      33.068  22.170  -4.318  0.00  0.00    -0.201 OA
BRANCH  19  22
HETATM   22  N   UNK N   1      32.180  19.719  -3.985  0.00  0.00    -0.324 N 
HETATM   23  H   UNK N   1      33.032  19.178  -3.830  0.00  0.00     0.169 HD
HETATM   24  H   UNK N   1      31.389  19.169  -4.320  0.00  0.00     0.169 HD
ENDBRANCH  19  22
ENDBRANCH   3  19
TORSDOF 5
ENDMDL
MODEL 6
REMARK VINA RESULT:      -6.5      4.882      6.916
REMARK  5 active torsions:
REMARK  status: ('A' for Active; 'I' for Inactive)
REMARK    1  A    between atoms: C_3  and  S_11 
REMARK    2  A    between atoms: C_6  and  C_7 
REMARK       I    between atoms: C_7  and  N_9 
REMARK    3  A    between atoms: N_9  and  C_10 
REMARK    4  A    between atoms: C_10  and  C_15 
REMARK    5  A    between atoms: S_11  and  N_12 
ROOT
HETATM    1  C   UNK N   1      34.670  12.470  15.990  0.00  0.00     0.018 A 
HETATM    2  C   UNK N   1      34.873  12.610  14.623  0.00  0.00     0.026 A 
HETATM    3  C   UNK N   1      35.850  13.484  14.155  0.00  0.00     0.079 A 
HETATM    4  C   UNK N   1      36.607  14.242  15.060  0.00  0.00     0.026 A 
HETATM    5  C   UNK N   1      36.403  14.100  16.440  0.00  0.00     0.018 A 
HETATM    6  C   UNK N   1      35.440  13.195  16.910  0.00  0.00     0.032 A 
ENDROOT
BRANCH   6   7
HETATM    7  C   UNK N   1      35.290  12.881  18.344  0.00  0.00     0.251 C 
HETATM    8  O   UNK N   1      35.153  13.761  19.180  0.00  0.00    -0.268 OA
HETATM    9  N   UNK N   1      35.424  11.588  18.707  0.00  0.00    -0.353 N 
HETATM   10  H   UNK N   1      35.455  10.927  17.976  0.00  0.00     0.163 HD
BRANCH   9  11
HETATM   11  C   UNK N   1      35.525  11.070  20.045  0.00  0.00     0.161 C 
BRANCH  11  12
HETATM   12  C   UNK N   1      34.290  10.243  20.308  0.00  0.00    -0.040 A 
HETATM   13  C   UNK N   1      33.878   9.274  19.388  0.00  0.00     0.012 A 
HETATM   14  C   UNK N   1      32.723   8.518  19.635  0.00  0.00     0.043 A 
HETATM   15  C   UNK N   1      31.978   8.731  20.802  0.00  0.00     0.116 A 
HETATM   16  C   UNK N   1      32.383   9.694  21.722  0.00  0.00     0.043 A 
HETATM   17  F   UNK N   1      30.862   8.003  21.043  0.00  0.00    -0.206 F 
HETATM   18  C   UNK N   1      33.529  10.445  21.477  0.00  0.00     0.012 A 
ENDBRANCH  11  12
ENDBRANCH   9  11
ENDBRANCH   6   7
BRANCH   3  19
HETATM   19  S   UNK N   1      36.223  13.508  12.410  0.00  0.00     0.256 S 
HETATM   20  O   UNK N   1      35.993  14.895  11.789  0.00  0.00    -0.201 OA
HETATM   21  O   UNK N   1      35.230  12.652  11.611  0.00  0.00    -0.201 OA
BRANCH  19  22
HETATM   22  N   UNK N   1      37.821  13.015  11.853  0.00  0.00    -0.324 N 
HETATM   23  H   UNK N   1      38.254  13.046  10.929  0.00  0.00     0.169 HD
HETATM   24  H   UNK N   1      38.419  12.630  12.584  0.00  0.00     0.169 HD
ENDBRANCH  19  22
ENDBRANCH   3  19
TORSDOF 5
ENDMDL
MODEL 7
REMARK VINA RESULT:      -6.4      4.617      8.437
REMARK  5 active torsions:
REMARK  status: ('A' for Active; 'I' for Inactive)
REMARK    1  A    between atoms: C_3  and  S_11 
REMARK    2  A    between atoms: C_6  and  C_7 
REMARK       I    between atoms: C_7  and  N_9 
REMARK    3  A    between atoms: N_9  and  C_10 
REMARK    4  A    between atoms: C_10  and  C_15 
REMARK    5  A    between atoms: S_11  and  N_12 
ROOT
HETATM    1  C   UNK N   1      34.554  14.036  10.322  0.00  0.00     0.018 A 
HETATM    2  C   UNK N   1      34.934  13.375  11.483  0.00  0.00     0.026 A 
HETATM    3  C   UNK N   1      35.622  14.063  12.478  0.00  0.00     0.079 A 
HETATM    4  C   UNK N   1      35.958  15.412  12.296  0.00  0.00     0.026 A 
HETATM    5  C   UNK N   1      35.575  16.080  11.124  0.00  0.00     0.018 A 
HETATM    6  C   UNK N   1      34.852  15.394  10.137  0.00  0.00     0.032 A 
ENDROOT
BRANCH   6   7
HETATM    7  C   UNK N   1      34.282  16.079   8.961  0.00  0.00     0.251 C 
HETATM    8  O   UNK N   1      34.601  15.770   7.825  0.00  0.00    -0.268 OA
HETATM    9  N   UNK N   1      33.476  17.136   9.198  0.00  0.00    -0.353 N 
HETATM   10  H   UNK N   1      33.202  17.279  10.133  0.00  0.00     0.163 HD
BRANCH   9  11
HETATM   11  C   UNK N   1      32.976  18.077   8.231  0.00  0.00     0.161 C 
BRANCH  11  12
HETATM   12  C   UNK N   1      31.501  17.810   8.057  0.00  0.00    -0.040 A 
HETATM   13  C   UNK N   1      30.575  18.342   8.960  0.00  0.00     0.012 A 
HETATM   14  C   UNK N   1      29.207  18.079   8.797  0.00  0.00     0.043 A 
HETATM   15  C   UNK N   1      28.763  17.284   7.732  0.00  0.00     0.116 A 
HETATM   16  C   UNK N   1      29.681  16.751   6.831  0.00  0.00     0.043 A 
HETATM   17  F   UNK N   1      27.443  17.028   7.573  0.00  0.00    -0.206 F 
HETATM   18  C   UNK N   1      31.039  17.011   6.992  0.00  0.00     0.012 A 
ENDBRANCH  11  12
ENDBRANCH   9  11
ENDBRANCH   6   7
BRANCH   3  19
HETATM   19  S   UNK N   1      35.932  13.248  14.035  0.00  0.00     0.256 S 
HETATM   20  O   UNK N   1      36.236  11.752  13.853  0.00  0.00    -0.201 OA
HETATM   21  O   UNK N   1      34.668  13.195  14.904  0.00  0.00    -0.201 OA
BRANCH  19  22
HETATM   22  N   UNK N   1      37.205  13.849  15.096  0.00  0.00    -0.324 N 
HETATM   23  H   UNK N   1      37.336  14.754  15.549  0.00  0.00     0.169 HD
HETATM   24  H   UNK N   1      37.942  13.172  15.291  0.00  0.00     0.169 HD
ENDBRANCH  19  22
ENDBRANCH   3  19
TORSDOF 5
ENDMDL
MODEL 8
REMARK VINA RESULT:      -6.4      6.494      9.058
REMARK  5 active torsions:
REMARK  status: ('A' for Active; 'I' for Inactive)
REMARK    1  A    between atoms: C_3  and  S_11 
REMARK    2  A    between atoms: C_6  and  C_7 
REMARK       I    between atoms: C_7  and  N_9 
REMARK    3  A    between atoms: N_9  and  C_10 
REMARK    4  A    between atoms: C_10  and  C_15 
REMARK    5  A    between atoms: S_11  and  N_12 
ROOT
HETATM    1  C   UNK N   1      35.495  10.715  17.962  0.00  0.00     0.018 A 
HETATM    2  C   UNK N   1      35.764  11.255  16.711  0.00  0.00     0.026 A 
HETATM    3  C   UNK N   1      35.688  12.632  16.521  0.00  0.00     0.079 A 
HETATM    4  C   UNK N   1      35.313  13.469  17.582  0.00  0.00     0.026 A 
HETATM    5  C   UNK N   1      35.042  12.924  18.846  0.00  0.00     0.018 A 
HETATM    6  C   UNK N   1      35.151  11.540  19.043  0.00  0.00     0.032 A 
ENDROOT
BRANCH   6   7
HETATM    7  C   UNK N   1      35.039  10.925  20.380  0.00  0.00     0.251 C 
HETATM    8  O   UNK N   1      35.918  10.207  20.829  0.00  0.00    -0.268 OA
HETATM    9  N   UNK N   1      33.875  11.100  21.041  0.00  0.00    -0.353 N 
HETATM   10  H   UNK N   1      33.245  11.752  20.655  0.00  0.00     0.163 HD
BRANCH   9  11
HETATM   11  C   UNK N   1      33.455  10.437  22.247  0.00  0.00     0.161 C 
BRANCH  11  12
HETATM   12  C   UNK N   1      32.648   9.228  21.844  0.00  0.00    -0.040 A 
HETATM   13  C   UNK N   1      32.711   8.052  22.599  0.00  0.00     0.012 A 
HETATM   14  C   UNK N   1      31.966   6.929  22.210  0.00  0.00     0.043 A 
HETATM   15  C   UNK N   1      31.158   6.980  21.067  0.00  0.00     0.116 A 
HETATM   16  C   UNK N   1      31.091   8.147  20.312  0.00  0.00     0.043 A 
HETATM   17  F   UNK N   1      30.438   5.897  20.690  0.00  0.00    -0.206 F 
HETATM   18  C   UNK N   1      31.831   9.262  20.696  0.00  0.00     0.012 A 
ENDBRANCH  11  12
ENDBRANCH   9  11
ENDBRANCH   6   7
BRANCH   3  19
HETATM   19  S   UNK N   1      36.219  13.319  14.962  0.00  0.00     0.256 S 
HETATM   20  O   UNK N   1      35.035  13.606  14.024  0.00  0.00    -0.201 OA
HETATM   21  O   UNK N   1      37.014  12.296  14.138  0.00  0.00    -0.201 OA
BRANCH  19  22
HETATM   22  N   UNK N   1      37.187  14.791  14.942  0.00  0.00    -0.324 N 
HETATM   23  H   UNK N   1      36.921  15.776  14.966  0.00  0.00     0.169 HD
HETATM   24  H   UNK N   1      38.194  14.630  14.900  0.00  0.00     0.169 HD
ENDBRANCH  19  22
ENDBRANCH   3  19
TORSDOF 5
ENDMDL
MODEL 9
REMARK VINA RESULT:      -6.4     18.790     21.435
REMARK  5 active torsions:
REMARK  status: ('A' for Active; 'I' for Inactive)
REMARK    1  A    between atoms: C_3  and  S_11 
REMARK    2  A    between atoms: C_6  and  C_7 
REMARK       I    between atoms: C_7  and  N_9 
REMARK    3  A    between atoms: N_9  and  C_10 
REMARK    4  A    between atoms: C_10  and  C_15 
REMARK    5  A    between atoms: S_11  and  N_12 
ROOT
HETATM    1  C   UNK N   1      30.136  20.979  -6.176  0.00  0.00     0.018 A 
HETATM    2  C   UNK N   1      31.300  20.564  -5.544  0.00  0.00     0.026 A 
HETATM    3  C   UNK N   1      31.884  21.370  -4.570  0.00  0.00     0.079 A 
HETATM    4  C   UNK N   1      31.315  22.611  -4.251  0.00  0.00     0.026 A 
HETATM    5  C   UNK N   1      30.138  23.030  -4.890  0.00  0.00     0.018 A 
HETATM    6  C   UNK N   1      29.534  22.202  -5.846  0.00  0.00     0.032 A 
ENDROOT
BRANCH   6   7
HETATM    7  C   UNK N   1      28.215  22.510  -6.433  0.00  0.00     0.251 C 
HETATM    8  O   UNK N   1      27.899  22.108  -7.541  0.00  0.00    -0.268 OA
HETATM    9  N   UNK N   1      27.417  23.350  -5.740  0.00  0.00    -0.353 N 
HETATM   10  H   UNK N   1      27.702  23.572  -4.824  0.00  0.00     0.163 HD
BRANCH   9  11
HETATM   11  C   UNK N   1      26.194  23.955  -6.196  0.00  0.00     0.161 C 
BRANCH  11  12
HETATM   12  C   UNK N   1      26.018  25.251  -5.443  0.00  0.00    -0.040 A 
HETATM   13  C   UNK N   1      26.580  25.413  -4.173  0.00  0.00     0.012 A 
HETATM   14  C   UNK N   1      26.402  26.617  -3.476  0.00  0.00     0.043 A 
HETATM   15  C   UNK N   1      25.663  27.660  -4.048  0.00  0.00     0.116 A 
HETATM   16  C   UNK N   1      25.101  27.505  -5.312  0.00  0.00     0.043 A 
HETATM   17  F   UNK N   1      25.489  28.823  -3.377  0.00  0.00    -0.206 F 
HETATM   18  C   UNK N   1      25.276  26.309  -6.004  0.00  0.00     0.012 A 
ENDBRANCH  11  12
ENDBRANCH   9  11
ENDBRANCH   6   7
BRANCH   3  19
HETATM   19  S   UNK N   1      33.267  20.734  -3.639  0.00  0.00     0.256 S 
HETATM   20  O   UNK N   1      33.189  21.119  -2.153  0.00  0.00    -0.201 OA
HETATM   21  O   UNK N   1      34.583  21.406  -4.056  0.00  0.00    -0.201 OA
BRANCH  19  22
HETATM   22  N   UNK N   1      33.602  19.003  -3.647  0.00  0.00    -0.324 N 
HETATM   23  H   UNK N   1      34.383  18.464  -3.271  0.00  0.00     0.169 HD
HETATM   24  H   UNK N   1      32.887  18.441  -4.109  0.00  0.00     0.169 HD
ENDBRANCH  19  22
ENDBRANCH   3  19
TORSDOF 5
ENDMDL
