MODEL 1
REMARK VINA RESULT:      -7.5      0.000      0.000
REMARK  5 active torsions:
REMARK  status: ('A' for Active; 'I' for Inactive)
REMARK    1  A    between atoms: C_3  and  S_11 
REMARK    2  A    between atoms: C_6  and  C_7 
REMARK       I    between atoms: C_7  and  N_9 
REMARK    3  A    between atoms: N_9  and  C_10 
REMARK    4  A    between atoms: C_10  and  C_15 
REMARK    5  A    between atoms: S_11  and  N_12 
ROOT
HETATM    1  C   UNK N   1      35.537  13.629  12.390  0.00  0.00     0.251 C 
HETATM    2  O   UNK N   1      34.567  12.906  12.597  0.00  0.00    -0.268 OA
HETATM    3  N   UNK N   1      36.699  13.443  13.040  0.00  0.00    -0.353 N 
HETATM    4  H   UNK N   1      37.453  14.010  12.759  0.00  0.00     0.163 HD
ENDROOT
BRANCH   1   5
HETATM    5  C   UNK N   1      35.519  14.676  11.367  0.00  0.00     0.032 A 
HETATM    6  C   UNK N   1      35.145  14.290  10.071  0.00  0.00     0.018 A 
HETATM    7  C   UNK N   1      34.887  15.234   9.099  0.00  0.00     0.026 A 
HETATM    8  C   UNK N   1      34.987  16.582   9.404  0.00  0.00     0.079 A 
HETATM    9  C   UNK N   1      35.418  16.992  10.677  0.00  0.00     0.026 A 
HETATM   10  C   UNK N   1      35.704  16.032  11.661  0.00  0.00     0.018 A 
BRANCH   8  11
HETATM   11  S   UNK N   1      34.304  17.741   8.240  0.00  0.00     0.256 S 
HETATM   12  O   UNK N   1      34.991  19.108   8.394  0.00  0.00    -0.201 OA
HETATM   13  O   UNK N   1      34.684  17.392   6.794  0.00  0.00    -0.201 OA
BRANCH  11  14
HETATM   14  N   UNK N   1      32.581  18.106   8.221  0.00  0.00    -0.324 N 
HETATM   15  H   UNK N   1      31.946  18.872   8.447  0.00  0.00     0.169 HD
HETATM   16  H   UNK N   1      32.055  17.303   7.877  0.00  0.00     0.169 HD
ENDBRANCH  11  14
ENDBRANCH   8  11
ENDBRANCH   1   5
BRANCH   3  17
HETATM   17  C   UNK N   1      36.963  12.514  14.092  0.00  0.00     0.164 C 
BRANCH  17  18
HETATM   18  C   UNK N   1      36.420  13.132  15.331  0.00  0.00     0.001 A 
HETATM   19  C   UNK N   1      36.957  14.341  15.760  0.00  0.00     0.054 A 
HETATM   20  C   UNK N   1      36.521  14.915  16.953  0.00  0.00     0.117 A 
HETATM   21  C   UNK N   1      35.555  14.271  17.733  0.00  0.00     0.045 A 
HETATM   22  F   UNK N   1      37.044  16.094  17.358  0.00  0.00    -0.206 F 
HETATM   23  C   UNK N   1      35.011  13.057  17.311  0.00  0.00     0.046 A 
HETATM   24  C   UNK N   1      35.431  12.484  16.110  0.00  0.00     0.124 A 
HETATM   25  F   UNK N   1      34.907  11.289  15.730  0.00  0.00    -0.205 F 
ENDBRANCH  17  18
ENDBRANCH   3  17
TORSDOF 5
ENDMDL
MODEL 2
REMARK VINA RESULT:      -7.2      1.306      2.502
REMARK  5 active torsions:
REMARK  status: ('A' for Active; 'I' for Inactive)
REMARK    1  A    between atoms: C_3  and  S_11 
REMARK    2  A    between atoms: C_6  and  C_7 
REMARK       I    between atoms: C_7  and  N_9 
REMARK    3  A    between atoms: N_9  and  C_10 
REMARK    4  A    between atoms: C_10  and  C_15 
REMARK    5  A    between atoms: S_11  and  N_12 
ROOT
HETATM    1  C   UNK N   1      36.992  13.540  11.371  0.00  0.00     0.251 C 
HETATM    2  O   UNK N   1      38.050  13.150  10.885  0.00  0.00    -0.268 OA
HETATM    3  N   UNK N   1      36.637  13.213  12.625  0.00  0.00    -0.353 N 
HETATM    4  H   UNK N   1      35.815  13.632  12.971  0.00  0.00     0.163 HD
ENDROOT
BRANCH   1   5
HETATM    5  C   UNK N   1      36.100  14.452  10.653  0.00  0.00     0.032 A 
HETATM    6  C   UNK N   1      35.921  15.729  11.205  0.00  0.00     0.018 A 
HETATM    7  C   UNK N   1      35.282  16.723  10.495  0.00  0.00     0.026 A 
HETATM    8  C   UNK N   1      34.817  16.465   9.214  0.00  0.00     0.079 A 
HETATM    9  C   UNK N   1      34.931  15.177   8.664  0.00  0.00     0.026 A 
HETATM   10  C   UNK N   1      35.561  14.157   9.396  0.00  0.00     0.018 A 
BRANCH   8  11
HETATM   11  S   UNK N   1      34.333  17.858   8.219  0.00  0.00     0.256 S 
HETATM   12  O   UNK N   1      35.231  19.065   8.531  0.00  0.00    -0.201 OA
HETATM   13  O   UNK N   1      34.654  17.639   6.733  0.00  0.00    -0.201 OA
BRANCH  11  14
HETATM   14  N   UNK N   1      32.691  18.495   8.278  0.00  0.00    -0.324 N 
HETATM   15  H   UNK N   1      32.096  19.055   8.888  0.00  0.00     0.169 HD
HETATM   16  H   UNK N   1      32.176  18.217   7.442  0.00  0.00     0.169 HD
ENDBRANCH  11  14
ENDBRANCH   8  11
ENDBRANCH   1   5
BRANCH   3  17
HETATM   17  C   UNK N   1      37.317  12.326  13.515  0.00  0.00     0.164 C 
BRANCH  17  18
HETATM   18  C   UNK N   1      36.584  12.399  14.807  0.00  0.00     0.001 A 
HETATM   19  C   UNK N   1      35.903  11.268  15.248  0.00  0.00     0.054 A 
HETATM   20  C   UNK N   1      35.150  11.320  16.419  0.00  0.00     0.117 A 
HETATM   21  C   UNK N   1      35.061  12.510  17.148  0.00  0.00     0.045 A 
HETATM   22  F   UNK N   1      34.497  10.215  16.843  0.00  0.00    -0.206 F 
HETATM   23  C   UNK N   1      35.740  13.650  16.713  0.00  0.00     0.046 A 
HETATM   24  C   UNK N   1      36.509  13.601  15.550  0.00  0.00     0.124 A 
HETATM   25  F   UNK N   1      37.142  14.729  15.130  0.00  0.00    -0.205 F 
ENDBRANCH  17  18
ENDBRANCH   3  17
TORSDOF 5
ENDMDL
MODEL 3
REMARK VINA RESULT:      -7.2     18.887     22.418
REMARK  5 active torsions:
REMARK  status: ('A' for Active; 'I' for Inactive)
REMARK    1  A    between atoms: C_3  and  S_11 
REMARK    2  A    between atoms: C_6  and  C_7 
REMARK       I    between atoms: C_7  and  N_9 
REMARK    3  A    between atoms: N_9  and  C_10 
REMARK    4  A    between atoms: C_10  and  C_15 
REMARK    5  A    between atoms: S_11  and  N_12 
ROOT
HETATM    1  C   UNK N   1      26.911  25.017  -3.919  0.00  0.00     0.251 C 
HETATM    2  O   UNK N   1      26.377  25.569  -2.962  0.00  0.00    -0.268 OA
HETATM    3  N   UNK N   1      26.662  25.409  -5.181  0.00  0.00    -0.353 N 
HETATM    4  H   UNK N   1      27.192  24.972  -5.887  0.00  0.00     0.163 HD
ENDROOT
BRANCH   1   5
HETATM    5  C   UNK N   1      27.915  23.965  -3.746  0.00  0.00     0.032 A 
HETATM    6  C   UNK N   1      28.561  23.509  -4.904  0.00  0.00     0.018 A 
HETATM    7  C   UNK N   1      29.665  22.686  -4.821  0.00  0.00     0.026 A 
HETATM    8  C   UNK N   1      30.153  22.312  -3.578  0.00  0.00     0.079 A 
HETATM    9  C   UNK N   1      29.487  22.708  -2.406  0.00  0.00     0.026 A 
HETATM   10  C   UNK N   1      28.348  23.525  -2.490  0.00  0.00     0.018 A 
BRANCH   8  11
HETATM   11  S   UNK N   1      31.765  21.563  -3.519  0.00  0.00     0.256 S 
HETATM   12  O   UNK N   1      32.779  22.437  -4.275  0.00  0.00    -0.201 OA
HETATM   13  O   UNK N   1      32.360  21.594  -2.104  0.00  0.00    -0.201 OA
BRANCH  11  14
HETATM   14  N   UNK N   1      32.036  19.933  -4.130  0.00  0.00    -0.324 N 
HETATM   15  H   UNK N   1      32.427  19.042  -3.823  0.00  0.00     0.169 HD
HETATM   16  H   UNK N   1      31.697  19.856  -5.089  0.00  0.00     0.169 HD
ENDBRANCH  11  14
ENDBRANCH   8  11
ENDBRANCH   1   5
BRANCH   3  17
HETATM   17  C   UNK N   1      25.715  26.387  -5.612  0.00  0.00     0.164 C 
BRANCH  17  18
HETATM   18  C   UNK N   1      26.458  27.673  -5.686  0.00  0.00     0.001 A 
HETATM   19  C   UNK N   1      27.339  27.871  -6.745  0.00  0.00     0.054 A 
HETATM   20  C   UNK N   1      28.103  29.035  -6.809  0.00  0.00     0.117 A 
HETATM   21  C   UNK N   1      28.001  30.001  -5.804  0.00  0.00     0.045 A 
HETATM   22  F   UNK N   1      28.951  29.221  -7.845  0.00  0.00    -0.206 F 
HETATM   23  C   UNK N   1      27.120  29.811  -4.737  0.00  0.00     0.046 A 
HETATM   24  C   UNK N   1      26.340  28.656  -4.674  0.00  0.00     0.124 A 
HETATM   25  F   UNK N   1      25.508  28.479  -3.614  0.00  0.00    -0.205 F 
ENDBRANCH  17  18
ENDBRANCH   3  17
TORSDOF 5
ENDMDL
MODEL 4
REMARK VINA RESULT:      -6.9      7.936     11.287
REMARK  5 active torsions:
REMARK  status: ('A' for Active; 'I' for Inactive)
REMARK    1  A    between atoms: C_3  and  S_11 
REMARK    2  A    between atoms: C_6  and  C_7 
REMARK       I    between atoms: C_7  and  N_9 
REMARK    3  A    between atoms: N_9  and  C_10 
REMARK    4  A    between atoms: C_10  and  C_15 
REMARK    5  A    between atoms: S_11  and  N_12 
ROOT
HETATM    1  C   UNK N   1      30.844  16.922   4.751  0.00  0.00     0.251 C 
HETATM    2  O   UNK N   1      31.133  16.240   3.772  0.00  0.00    -0.268 OA
HETATM    3  N   UNK N   1      29.633  17.493   4.872  0.00  0.00    -0.353 N 
HETATM    4  H   UNK N   1      29.450  17.954   5.723  0.00  0.00     0.163 HD
ENDROOT
BRANCH   1   5
HETATM    5  C   UNK N   1      31.760  17.084   5.881  0.00  0.00     0.032 A 
HETATM    6  C   UNK N   1      31.252  16.793   7.156  0.00  0.00     0.018 A 
HETATM    7  C   UNK N   1      32.090  16.703   8.248  0.00  0.00     0.026 A 
HETATM    8  C   UNK N   1      33.454  16.890   8.087  0.00  0.00     0.079 A 
HETATM    9  C   UNK N   1      33.979  17.239   6.830  0.00  0.00     0.026 A 
HETATM   10  C   UNK N   1      33.124  17.355   5.723  0.00  0.00     0.018 A 
BRANCH   8  11
HETATM   11  S   UNK N   1      34.514  16.412   9.433  0.00  0.00     0.256 S 
HETATM   12  O   UNK N   1      35.614  15.464   8.926  0.00  0.00    -0.201 OA
HETATM   13  O   UNK N   1      35.362  17.587   9.939  0.00  0.00    -0.201 OA
BRANCH  11  14
HETATM   14  N   UNK N   1      33.867  15.620  10.867  0.00  0.00    -0.324 N 
HETATM   15  H   UNK N   1      33.460  14.727  11.145  0.00  0.00     0.169 HD
HETATM   16  H   UNK N   1      33.913  16.250  11.668  0.00  0.00     0.169 HD
ENDBRANCH  11  14
ENDBRANCH   8  11
ENDBRANCH   1   5
BRANCH   3  17
HETATM   17  C   UNK N   1      28.581  17.505   3.907  0.00  0.00     0.164 C 
BRANCH  17  18
HETATM   18  C   UNK N   1      27.698  18.644   4.275  0.00  0.00     0.001 A 
HETATM   19  C   UNK N   1      28.207  19.636   5.107  0.00  0.00     0.054 A 
HETATM   20  C   UNK N   1      27.389  20.683   5.528  0.00  0.00     0.117 A 
HETATM   21  C   UNK N   1      26.049  20.732   5.131  0.00  0.00     0.045 A 
HETATM   22  F   UNK N   1      27.894  21.645   6.331  0.00  0.00    -0.206 F 
HETATM   23  C   UNK N   1      25.529  19.741   4.296  0.00  0.00     0.046 A 
HETATM   24  C   UNK N   1      26.347  18.699   3.858  0.00  0.00     0.124 A 
HETATM   25  F   UNK N   1      25.814  17.731   3.067  0.00  0.00    -0.205 F 
ENDBRANCH  17  18
ENDBRANCH   3  17
TORSDOF 5
ENDMDL
MODEL 5
REMARK VINA RESULT:      -6.9      7.615     11.003
REMARK  5 active torsions:
REMARK  status: ('A' for Active; 'I' for Inactive)
REMARK    1  A    between atoms: C_3  and  S_11 
REMARK    2  A    between atoms: C_6  and  C_7 
REMARK       I    between atoms: C_7  and  N_9 
REMARK    3  A    between atoms: N_9  and  C_10 
REMARK    4  A    between atoms: C_10  and  C_15 
REMARK    5  A    between atoms: S_11  and  N_12 
ROOT
HETATM    1  C   UNK N   1      30.916  17.266   5.289  0.00  0.00     0.251 C 
HETATM    2  O   UNK N   1      31.234  17.254   4.103  0.00  0.00    -0.268 OA
HETATM    3  N   UNK N   1      29.630  17.161   5.668  0.00  0.00    -0.353 N 
HETATM    4  H   UNK N   1      29.464  17.095   6.637  0.00  0.00     0.163 HD
ENDROOT
BRANCH   1   5
HETATM    5  C   UNK N   1      31.913  17.307   6.359  0.00  0.00     0.032 A 
HETATM    6  C   UNK N   1      31.452  17.085   7.665  0.00  0.00     0.018 A 
HETATM    7  C   UNK N   1      32.337  16.886   8.704  0.00  0.00     0.026 A 
HETATM    8  C   UNK N   1      33.701  16.893   8.457  0.00  0.00     0.079 A 
HETATM    9  C   UNK N   1      34.188  17.172   7.169  0.00  0.00     0.026 A 
HETATM   10  C   UNK N   1      33.288  17.399   6.115  0.00  0.00     0.018 A 
BRANCH   8  11
HETATM   11  S   UNK N   1      34.772  16.282   9.739  0.00  0.00     0.256 S 
HETATM   12  O   UNK N   1      35.829  15.341   9.138  0.00  0.00    -0.201 OA
HETATM   13  O   UNK N   1      35.668  17.388  10.314  0.00  0.00    -0.201 OA
BRANCH  11  14
HETATM   14  N   UNK N   1      34.128  15.403  11.124  0.00  0.00    -0.324 N 
HETATM   15  H   UNK N   1      34.182  14.480  11.553  0.00  0.00     0.169 HD
HETATM   16  H   UNK N   1      33.506  16.006  11.665  0.00  0.00     0.169 HD
ENDBRANCH  11  14
ENDBRANCH   8  11
ENDBRANCH   1   5
BRANCH   3  17
HETATM   17  C   UNK N   1      28.478  17.132   4.825  0.00  0.00     0.164 C 
BRANCH  17  18
HETATM   18  C   UNK N   1      27.816  18.454   4.989  0.00  0.00     0.001 A 
HETATM   19  C   UNK N   1      27.362  19.115   3.852  0.00  0.00     0.054 A 
HETATM   20  C   UNK N   1      26.799  20.385   3.961  0.00  0.00     0.117 A 
HETATM   21  C   UNK N   1      26.702  21.008   5.209  0.00  0.00     0.045 A 
HETATM   22  F   UNK N   1      26.355  21.017   2.851  0.00  0.00    -0.206 F 
HETATM   23  C   UNK N   1      27.155  20.353   6.356  0.00  0.00     0.046 A 
HETATM   24  C   UNK N   1      27.705  19.075   6.257  0.00  0.00     0.124 A 
HETATM   25  F   UNK N   1      28.163  18.465   7.382  0.00  0.00    -0.205 F 
ENDBRANCH  17  18
ENDBRANCH   3  17
TORSDOF 5
ENDMDL
MODEL 6
REMARK VINA RESULT:      -6.7     13.419     14.997
REMARK  5 active torsions:
REMARK  status: ('A' for Active; 'I' for Inactive)
REMARK    1  A    between atoms: C_3  and  S_11 
REMARK    2  A    between atoms: C_6  and  C_7 
REMARK       I    between atoms: C_7  and  N_9 
REMARK    3  A    between atoms: N_9  and  C_10 
REMARK    4  A    between atoms: C_10  and  C_15 
REMARK    5  A    between atoms: S_11  and  N_12 
ROOT
HETATM    1  C   UNK N   1      23.310  15.007   5.574  0.00  0.00     0.251 C 
HETATM    2  O   UNK N   1      24.080  14.324   4.905  0.00  0.00    -0.268 OA
HETATM    3  N   UNK N   1      23.201  14.836   6.903  0.00  0.00    -0.353 N 
HETATM    4  H   UNK N   1      22.625  15.477   7.380  0.00  0.00     0.163 HD
ENDROOT
BRANCH   1   5
HETATM    5  C   UNK N   1      22.535  16.102   4.988  0.00  0.00     0.032 A 
HETATM    6  C   UNK N   1      22.578  17.336   5.653  0.00  0.00     0.018 A 
HETATM    7  C   UNK N   1      22.066  18.474   5.066  0.00  0.00     0.026 A 
HETATM    8  C   UNK N   1      21.511  18.404   3.797  0.00  0.00     0.079 A 
HETATM    9  C   UNK N   1      21.403  17.168   3.136  0.00  0.00     0.026 A 
HETATM   10  C   UNK N   1      21.903  16.005   3.743  0.00  0.00     0.018 A 
BRANCH   8  11
HETATM   11  S   UNK N   1      21.200  19.937   2.951  0.00  0.00     0.256 S 
HETATM   12  O   UNK N   1      20.250  20.815   3.783  0.00  0.00    -0.201 OA
HETATM   13  O   UNK N   1      22.448  20.830   2.906  0.00  0.00    -0.201 OA
BRANCH  11  14
HETATM   14  N   UNK N   1      20.521  19.961   1.325  0.00  0.00    -0.324 N 
HETATM   15  H   UNK N   1      20.726  20.342   0.402  0.00  0.00     0.169 HD
HETATM   16  H   UNK N   1      19.652  19.426   1.300  0.00  0.00     0.169 HD
ENDBRANCH  11  14
ENDBRANCH   8  11
ENDBRANCH   1   5
BRANCH   3  17
HETATM   17  C   UNK N   1      23.825  13.830   7.702  0.00  0.00     0.164 C 
BRANCH  17  18
HETATM   18  C   UNK N   1      22.808  13.408   8.700  0.00  0.00     0.001 A 
HETATM   19  C   UNK N   1      21.627  14.138   8.794  0.00  0.00     0.054 A 
HETATM   20  C   UNK N   1      20.680  13.813   9.765  0.00  0.00     0.117 A 
HETATM   21  C   UNK N   1      20.919  12.765  10.658  0.00  0.00     0.045 A 
HETATM   22  F   UNK N   1      19.534  14.524   9.844  0.00  0.00    -0.206 F 
HETATM   23  C   UNK N   1      22.101  12.026  10.572  0.00  0.00     0.046 A 
HETATM   24  C   UNK N   1      23.046  12.335   9.593  0.00  0.00     0.124 A 
HETATM   25  F   UNK N   1      24.201  11.621   9.543  0.00  0.00    -0.205 F 
ENDBRANCH  17  18
ENDBRANCH   3  17
TORSDOF 5
ENDMDL
MODEL 7
REMARK VINA RESULT:      -6.7      3.647      5.776
REMARK  5 active torsions:
REMARK  status: ('A' for Active; 'I' for Inactive)
REMARK    1  A    between atoms: C_3  and  S_11 
REMARK    2  A    between atoms: C_6  and  C_7 
REMARK       I    between atoms: C_7  and  N_9 
REMARK    3  A    between atoms: N_9  and  C_10 
REMARK    4  A    between atoms: C_10  and  C_15 
REMARK    5  A    between atoms: S_11  and  N_12 
ROOT
HETATM    1  C   UNK N   1      34.456  17.700   8.867  0.00  0.00     0.251 C 
HETATM    2  O   UNK N   1      35.301  18.590   8.885  0.00  0.00    -0.268 OA
HETATM    3  N   UNK N   1      34.415  16.755   9.823  0.00  0.00    -0.353 N 
HETATM    4  H   UNK N   1      33.659  16.126   9.784  0.00  0.00     0.163 HD
ENDROOT
BRANCH   1   5
HETATM    5  C   UNK N   1      33.392  17.661   7.862  0.00  0.00     0.032 A 
HETATM    6  C   UNK N   1      33.790  17.616   6.518  0.00  0.00     0.018 A 
HETATM    7  C   UNK N   1      32.877  17.357   5.517  0.00  0.00     0.026 A 
HETATM    8  C   UNK N   1      31.548  17.126   5.840  0.00  0.00     0.079 A 
HETATM    9  C   UNK N   1      31.115  17.225   7.174  0.00  0.00     0.026 A 
HETATM   10  C   UNK N   1      32.040  17.512   8.190  0.00  0.00     0.018 A 
BRANCH   8  11
HETATM   11  S   UNK N   1      30.499  16.450   4.573  0.00  0.00     0.256 S 
HETATM   12  O   UNK N   1      30.575  14.914   4.591  0.00  0.00    -0.201 OA
HETATM   13  O   UNK N   1      29.012  16.666   4.885  0.00  0.00    -0.201 OA
BRANCH  11  14
HETATM   14  N   UNK N   1      30.715  16.888   2.881  0.00  0.00    -0.324 N 
HETATM   15  H   UNK N   1      31.176  16.541   2.040  0.00  0.00     0.169 HD
HETATM   16  H   UNK N   1      30.226  17.761   2.678  0.00  0.00     0.169 HD
ENDBRANCH  11  14
ENDBRANCH   8  11
ENDBRANCH   1   5
BRANCH   3  17
HETATM   17  C   UNK N   1      35.346  16.562  10.889  0.00  0.00     0.164 C 
BRANCH  17  18
HETATM   18  C   UNK N   1      35.325  15.107  11.194  0.00  0.00     0.001 A 
HETATM   19  C   UNK N   1      34.776  14.240  10.254  0.00  0.00     0.054 A 
HETATM   20  C   UNK N   1      34.678  12.878  10.534  0.00  0.00     0.117 A 
HETATM   21  C   UNK N   1      35.112  12.379  11.766  0.00  0.00     0.045 A 
HETATM   22  F   UNK N   1      34.150  12.043   9.612  0.00  0.00    -0.206 F 
HETATM   23  C   UNK N   1      35.663  13.241  12.716  0.00  0.00     0.046 A 
HETATM   24  C   UNK N   1      35.780  14.603  12.436  0.00  0.00     0.124 A 
HETATM   25  F   UNK N   1      36.296  15.429  13.384  0.00  0.00    -0.205 F 
ENDBRANCH  17  18
ENDBRANCH   3  17
TORSDOF 5
ENDMDL
MODEL 8
REMARK VINA RESULT:      -6.7      4.873      8.949
REMARK  5 active torsions:
REMARK  status: ('A' for Active; 'I' for Inactive)
REMARK    1  A    between atoms: C_3  and  S_11 
REMARK    2  A    between atoms: C_6  and  C_7 
REMARK       I    between atoms: C_7  and  N_9 
REMARK    3  A    between atoms: N_9  and  C_10 
REMARK    4  A    between atoms: C_10  and  C_15 
REMARK    5  A    between atoms: S_11  and  N_12 
ROOT
HETATM    1  C   UNK N   1      34.285  17.063   9.323  0.00  0.00     0.251 C 
HETATM    2  O   UNK N   1      34.986  17.981   8.907  0.00  0.00    -0.268 OA
HETATM    3  N   UNK N   1      32.981  16.980   9.006  0.00  0.00    -0.353 N 
HETATM    4  H   UNK N   1      32.508  16.172   9.309  0.00  0.00     0.163 HD
ENDROOT
BRANCH   1   5
HETATM    5  C   UNK N   1      34.839  15.959  10.110  0.00  0.00     0.032 A 
HETATM    6  C   UNK N   1      35.605  16.304  11.234  0.00  0.00     0.018 A 
HETATM    7  C   UNK N   1      35.980  15.347  12.154  0.00  0.00     0.026 A 
HETATM    8  C   UNK N   1      35.589  14.029  11.976  0.00  0.00     0.079 A 
HETATM    9  C   UNK N   1      34.872  13.650  10.828  0.00  0.00     0.026 A 
HETATM   10  C   UNK N   1      34.510  14.619   9.879  0.00  0.00     0.018 A 
BRANCH   8  11
HETATM   11  S   UNK N   1      35.786  12.920  13.353  0.00  0.00     0.256 S 
HETATM   12  O   UNK N   1      34.521  12.935  14.226  0.00  0.00    -0.201 OA
HETATM   13  O   UNK N   1      35.808  11.451  12.907  0.00  0.00    -0.201 OA
BRANCH  11  14
HETATM   14  N   UNK N   1      37.117  13.108  14.492  0.00  0.00    -0.324 N 
HETATM   15  H   UNK N   1      37.753  12.535  15.046  0.00  0.00     0.169 HD
HETATM   16  H   UNK N   1      37.311  14.098  14.646  0.00  0.00     0.169 HD
ENDBRANCH  11  14
ENDBRANCH   8  11
ENDBRANCH   1   5
BRANCH   3  17
HETATM   17  C   UNK N   1      32.205  17.933   8.279  0.00  0.00     0.164 C 
BRANCH  17  18
HETATM   18  C   UNK N   1      31.796  17.255   7.020  0.00  0.00     0.001 A 
HETATM   19  C   UNK N   1      30.586  16.568   6.999  0.00  0.00     0.054 A 
HETATM   20  C   UNK N   1      30.203  15.864   5.859  0.00  0.00     0.117 A 
HETATM   21  C   UNK N   1      31.038  15.830   4.738  0.00  0.00     0.045 A 
HETATM   22  F   UNK N   1      29.023  15.205   5.846  0.00  0.00    -0.206 F 
HETATM   23  C   UNK N   1      32.255  16.516   4.750  0.00  0.00     0.046 A 
HETATM   24  C   UNK N   1      32.637  17.236   5.882  0.00  0.00     0.124 A 
HETATM   25  F   UNK N   1      33.837  17.875   5.882  0.00  0.00    -0.205 F 
ENDBRANCH  17  18
ENDBRANCH   3  17
TORSDOF 5
ENDMDL
MODEL 9
REMARK VINA RESULT:      -6.5      4.294      6.216
REMARK  5 active torsions:
REMARK  status: ('A' for Active; 'I' for Inactive)
REMARK    1  A    between atoms: C_3  and  S_11 
REMARK    2  A    between atoms: C_6  and  C_7 
REMARK       I    between atoms: C_7  and  N_9 
REMARK    3  A    between atoms: N_9  and  C_10 
REMARK    4  A    between atoms: C_10  and  C_15 
REMARK    5  A    between atoms: S_11  and  N_12 
ROOT
HETATM    1  C   UNK N   1      33.804  17.637   8.252  0.00  0.00     0.251 C 
HETATM    2  O   UNK N   1      34.632  18.251   7.587  0.00  0.00    -0.268 OA
HETATM    3  N   UNK N   1      34.098  17.174   9.480  0.00  0.00    -0.353 N 
HETATM    4  H   UNK N   1      33.356  16.766   9.983  0.00  0.00     0.163 HD
ENDROOT
BRANCH   1   5
HETATM    5  C   UNK N   1      32.426  17.448   7.794  0.00  0.00     0.032 A 
HETATM    6  C   UNK N   1      31.406  17.854   8.668  0.00  0.00     0.018 A 
HETATM    7  C   UNK N   1      30.096  17.921   8.242  0.00  0.00     0.026 A 
HETATM    8  C   UNK N   1      29.779  17.595   6.932  0.00  0.00     0.079 A 
HETATM    9  C   UNK N   1      30.775  17.129   6.057  0.00  0.00     0.026 A 
HETATM   10  C   UNK N   1      32.105  17.038   6.496  0.00  0.00     0.018 A 
BRANCH   8  11
HETATM   11  S   UNK N   1      28.161  18.039   6.343  0.00  0.00     0.256 S 
HETATM   12  O   UNK N   1      28.213  18.333   4.835  0.00  0.00    -0.201 OA
HETATM   13  O   UNK N   1      27.195  16.846   6.368  0.00  0.00    -0.201 OA
BRANCH  11  14
HETATM   14  N   UNK N   1      27.280  19.399   7.034  0.00  0.00    -0.324 N 
HETATM   15  H   UNK N   1      26.725  20.200   6.732  0.00  0.00     0.169 HD
HETATM   16  H   UNK N   1      27.344  19.379   8.052  0.00  0.00     0.169 HD
ENDBRANCH  11  14
ENDBRANCH   8  11
ENDBRANCH   1   5
BRANCH   3  17
HETATM   17  C   UNK N   1      35.366  17.208  10.137  0.00  0.00     0.164 C 
BRANCH  17  18
HETATM   18  C   UNK N   1      35.613  15.825  10.624  0.00  0.00     0.001 A 
HETATM   19  C   UNK N   1      35.637  15.599  11.997  0.00  0.00     0.054 A 
HETATM   20  C   UNK N   1      35.934  14.330  12.491  0.00  0.00     0.117 A 
HETATM   21  C   UNK N   1      36.226  13.283  11.612  0.00  0.00     0.045 A 
HETATM   22  F   UNK N   1      35.948  14.119  13.826  0.00  0.00    -0.206 F 
HETATM   23  C   UNK N   1      36.205  13.500  10.232  0.00  0.00     0.046 A 
HETATM   24  C   UNK N   1      35.893  14.764   9.731  0.00  0.00     0.124 A 
HETATM   25  F   UNK N   1      35.904  14.960   8.386  0.00  0.00    -0.205 F 
ENDBRANCH  17  18
ENDBRANCH   3  17
TORSDOF 5
ENDMDL
