MODEL 1
REMARK VINA RESULT:      -7.4      0.000      0.000
REMARK  5 active torsions:
REMARK  status: ('A' for Active; 'I' for Inactive)
REMARK    1  A    between atoms: C_3  and  S_11 
REMARK    2  A    between atoms: C_6  and  C_7 
REMARK       I    between atoms: C_7  and  N_9 
REMARK    3  A    between atoms: N_9  and  C_10 
REMARK    4  A    between atoms: C_10  and  C_15 
REMARK    5  A    between atoms: S_11  and  N_12 
ROOT
HETATM    1  C   UNK N   1      28.211  17.944   8.666  0.00  0.00     0.251 C 
HETATM    2  O   UNK N   1      27.674  17.186   9.462  0.00  0.00    -0.268 OA
HETATM    3  N   UNK N   1      27.480  18.986   8.179  0.00  0.00    -0.352 N 
HETATM    4  H   UNK N   1      26.522  19.018   8.405  0.00  0.00     0.163 HD
ENDROOT
BRANCH   1   5
HETATM    5  C   UNK N   1      29.643  17.706   8.308  0.00  0.00     0.032 A 
HETATM    6  C   UNK N   1      30.014  16.793   7.310  0.00  0.00     0.018 A 
HETATM    7  C   UNK N   1      31.355  16.591   6.985  0.00  0.00     0.026 A 
HETATM    8  C   UNK N   1      32.349  17.310   7.649  0.00  0.00     0.079 A 
HETATM    9  C   UNK N   1      32.000  18.216   8.655  0.00  0.00     0.026 A 
HETATM   10  C   UNK N   1      30.654  18.406   8.989  0.00  0.00     0.018 A 
BRANCH   8  11
HETATM   11  S   UNK N   1      34.059  17.088   7.185  0.00  0.00     0.256 S 
HETATM   12  O   UNK N   1      34.235  16.956   5.664  0.00  0.00    -0.201 OA
HETATM   13  O   UNK N   1      34.923  18.320   7.493  0.00  0.00    -0.201 OA
BRANCH  11  14
HETATM   14  N   UNK N   1      34.939  15.718   7.863  0.00  0.00    -0.324 N 
HETATM   15  H   UNK N   1      34.884  14.703   7.936  0.00  0.00     0.169 HD
HETATM   16  H   UNK N   1      35.778  16.051   8.338  0.00  0.00     0.169 HD
ENDBRANCH  11  14
ENDBRANCH   8  11
ENDBRANCH   1   5
BRANCH   3  17
HETATM   17  C   UNK N   1      28.010  20.048   7.355  0.00  0.00     0.167 C 
BRANCH  17  18
HETATM   18  C   UNK N   1      27.368  20.084   6.005  0.00  0.00     0.037 A 
HETATM   19  C   UNK N   1      27.865  19.289   4.957  0.00  0.00     0.130 A 
HETATM   20  C   UNK N   1      27.231  19.299   3.711  0.00  0.00     0.085 A 
HETATM   21  F   UNK N   1      28.951  18.500   5.146  0.00  0.00    -0.205 F 
HETATM   22  C   UNK N   1      26.103  20.097   3.503  0.00  0.00     0.122 A 
HETATM   23  C   UNK N   1      25.606  20.888   4.542  0.00  0.00     0.085 A 
HETATM   24  F   UNK N   1      25.485  20.094   2.298  0.00  0.00    -0.206 F 
HETATM   25  C   UNK N   1      26.235  20.885   5.790  0.00  0.00     0.130 A 
HETATM   26  F   UNK N   1      25.729  21.648   6.791  0.00  0.00    -0.205 F 
ENDBRANCH  17  18
ENDBRANCH   3  17
TORSDOF 5
ENDMDL
MODEL 2
REMARK VINA RESULT:      -7.3      8.304     11.360
REMARK  5 active torsions:
REMARK  status: ('A' for Active; 'I' for Inactive)
REMARK    1  A    between atoms: C_3  and  S_11 
REMARK    2  A    between atoms: C_6  and  C_7 
REMARK       I    between atoms: C_7  and  N_9 
REMARK    3  A    between atoms: N_9  and  C_10 
REMARK    4  A    between atoms: C_10  and  C_15 
REMARK    5  A    between atoms: S_11  and  N_12 
ROOT
HETATM    1  C   UNK N   1      37.012  13.309  10.923  0.00  0.00     0.251 C 
HETATM    2  O   UNK N   1      38.195  13.127  10.670  0.00  0.00    -0.268 OA
HETATM    3  N   UNK N   1      36.415  12.487  11.831  0.00  0.00    -0.352 N 
HETATM    4  H   UNK N   1      36.933  11.717  12.160  0.00  0.00     0.163 HD
ENDROOT
BRANCH   1   5
HETATM    5  C   UNK N   1      36.307  14.444  10.251  0.00  0.00     0.032 A 
HETATM    6  C   UNK N   1      36.095  15.670  10.899  0.00  0.00     0.018 A 
HETATM    7  C   UNK N   1      35.443  16.720  10.252  0.00  0.00     0.026 A 
HETATM    8  C   UNK N   1      35.001  16.562   8.939  0.00  0.00     0.079 A 
HETATM    9  C   UNK N   1      35.192  15.343   8.280  0.00  0.00     0.026 A 
HETATM   10  C   UNK N   1      35.834  14.287   8.937  0.00  0.00     0.018 A 
BRANCH   8  11
HETATM   11  S   UNK N   1      34.219  17.931   8.099  0.00  0.00     0.256 S 
HETATM   12  O   UNK N   1      34.889  19.274   8.432  0.00  0.00    -0.201 OA
HETATM   13  O   UNK N   1      34.389  17.867   6.574  0.00  0.00    -0.201 OA
BRANCH  11  14
HETATM   14  N   UNK N   1      32.498  18.205   8.368  0.00  0.00    -0.324 N 
HETATM   15  H   UNK N   1      31.843  18.442   9.113  0.00  0.00     0.169 HD
HETATM   16  H   UNK N   1      31.991  18.087   7.490  0.00  0.00     0.169 HD
ENDBRANCH  11  14
ENDBRANCH   8  11
ENDBRANCH   1   5
BRANCH   3  17
HETATM   17  C   UNK N   1      35.077  12.666  12.345  0.00  0.00     0.167 C 
BRANCH  17  18
HETATM   18  C   UNK N   1      35.028  12.545  13.835  0.00  0.00     0.037 A 
HETATM   19  C   UNK N   1      34.317  11.496  14.443  0.00  0.00     0.130 A 
HETATM   20  C   UNK N   1      34.313  11.369  15.835  0.00  0.00     0.085 A 
HETATM   21  F   UNK N   1      33.641  10.595  13.689  0.00  0.00    -0.205 F 
HETATM   22  C   UNK N   1      35.015  12.281  16.626  0.00  0.00     0.122 A 
HETATM   23  C   UNK N   1      35.724  13.326  16.026  0.00  0.00     0.085 A 
HETATM   24  F   UNK N   1      35.019  12.147  17.973  0.00  0.00    -0.206 F 
HETATM   25  C   UNK N   1      35.731  13.461  14.635  0.00  0.00     0.130 A 
HETATM   26  F   UNK N   1      36.437  14.472  14.069  0.00  0.00    -0.205 F 
ENDBRANCH  17  18
ENDBRANCH   3  17
TORSDOF 5
ENDMDL
MODEL 3
REMARK VINA RESULT:      -7.3      8.367     11.434
REMARK  5 active torsions:
REMARK  status: ('A' for Active; 'I' for Inactive)
REMARK    1  A    between atoms: C_3  and  S_11 
REMARK    2  A    between atoms: C_6  and  C_7 
REMARK       I    between atoms: C_7  and  N_9 
REMARK    3  A    between atoms: N_9  and  C_10 
REMARK    4  A    between atoms: C_10  and  C_15 
REMARK    5  A    between atoms: S_11  and  N_12 
ROOT
HETATM    1  C   UNK N   1      37.036  13.294  11.027  0.00  0.00     0.251 C 
HETATM    2  O   UNK N   1      38.199  13.063  10.729  0.00  0.00    -0.268 OA
HETATM    3  N   UNK N   1      36.459  12.532  11.999  0.00  0.00    -0.352 N 
HETATM    4  H   UNK N   1      36.969  11.762  12.339  0.00  0.00     0.163 HD
ENDROOT
BRANCH   1   5
HETATM    5  C   UNK N   1      36.333  14.419  10.337  0.00  0.00     0.032 A 
HETATM    6  C   UNK N   1      36.063  15.632  10.988  0.00  0.00     0.018 A 
HETATM    7  C   UNK N   1      35.414  16.673  10.324  0.00  0.00     0.026 A 
HETATM    8  C   UNK N   1      35.035  16.520   8.991  0.00  0.00     0.079 A 
HETATM    9  C   UNK N   1      35.285  15.314   8.328  0.00  0.00     0.026 A 
HETATM   10  C   UNK N   1      35.923  14.266   9.001  0.00  0.00     0.018 A 
BRANCH   8  11
HETATM   11  S   UNK N   1      34.258  17.880   8.132  0.00  0.00     0.256 S 
HETATM   12  O   UNK N   1      34.944  19.222   8.430  0.00  0.00    -0.201 OA
HETATM   13  O   UNK N   1      34.411  17.784   6.606  0.00  0.00    -0.201 OA
BRANCH  11  14
HETATM   14  N   UNK N   1      32.542  18.175   8.412  0.00  0.00    -0.324 N 
HETATM   15  H   UNK N   1      31.882  18.331   9.173  0.00  0.00     0.169 HD
HETATM   16  H   UNK N   1      32.047  18.198   7.520  0.00  0.00     0.169 HD
ENDBRANCH  11  14
ENDBRANCH   8  11
ENDBRANCH   1   5
BRANCH   3  17
HETATM   17  C   UNK N   1      35.152  12.776  12.565  0.00  0.00     0.167 C 
BRANCH  17  18
HETATM   18  C   UNK N   1      35.172  12.733  14.060  0.00  0.00     0.037 A 
HETATM   19  C   UNK N   1      35.936  13.660  14.791  0.00  0.00     0.130 A 
HETATM   20  C   UNK N   1      35.914  13.636  16.188  0.00  0.00     0.085 A 
HETATM   21  F   UNK N   1      36.687  14.590  14.151  0.00  0.00    -0.205 F 
HETATM   22  C   UNK N   1      35.135  12.694  16.863  0.00  0.00     0.122 A 
HETATM   23  C   UNK N   1      34.375  11.770  16.141  0.00  0.00     0.085 A 
HETATM   24  F   UNK N   1      35.108  12.682  18.217  0.00  0.00    -0.206 F 
HETATM   25  C   UNK N   1      34.392  11.785  14.744  0.00  0.00     0.130 A 
HETATM   26  F   UNK N   1      33.636  10.892  14.059  0.00  0.00    -0.205 F 
ENDBRANCH  17  18
ENDBRANCH   3  17
TORSDOF 5
ENDMDL
MODEL 4
REMARK VINA RESULT:      -7.1      1.439      2.184
REMARK  5 active torsions:
REMARK  status: ('A' for Active; 'I' for Inactive)
REMARK    1  A    between atoms: C_3  and  S_11 
REMARK    2  A    between atoms: C_6  and  C_7 
REMARK       I    between atoms: C_7  and  N_9 
REMARK    3  A    between atoms: N_9  and  C_10 
REMARK    4  A    between atoms: C_10  and  C_15 
REMARK    5  A    between atoms: S_11  and  N_12 
ROOT
HETATM    1  C   UNK N   1      28.065  17.345   8.338  0.00  0.00     0.251 C 
HETATM    2  O   UNK N   1      27.558  17.476   9.444  0.00  0.00    -0.268 OA
HETATM    3  N   UNK N   1      27.241  17.130   7.275  0.00  0.00    -0.352 N 
HETATM    4  H   UNK N   1      26.285  16.983   7.459  0.00  0.00     0.163 HD
ENDROOT
BRANCH   1   5
HETATM    5  C   UNK N   1      29.551  17.466   8.218  0.00  0.00     0.032 A 
HETATM    6  C   UNK N   1      30.266  18.477   8.875  0.00  0.00     0.018 A 
HETATM    7  C   UNK N   1      31.653  18.568   8.757  0.00  0.00     0.026 A 
HETATM    8  C   UNK N   1      32.349  17.638   7.985  0.00  0.00     0.079 A 
HETATM    9  C   UNK N   1      31.652  16.629   7.312  0.00  0.00     0.026 A 
HETATM   10  C   UNK N   1      30.259  16.550   7.421  0.00  0.00     0.018 A 
BRANCH   8  11
HETATM   11  S   UNK N   1      34.130  17.727   7.887  0.00  0.00     0.256 S 
HETATM   12  O   UNK N   1      34.638  17.609   6.442  0.00  0.00    -0.201 OA
HETATM   13  O   UNK N   1      34.680  19.100   8.300  0.00  0.00    -0.201 OA
BRANCH  11  14
HETATM   14  N   UNK N   1      35.077  16.550   8.797  0.00  0.00    -0.324 N 
HETATM   15  H   UNK N   1      34.991  15.628   9.224  0.00  0.00     0.169 HD
HETATM   16  H   UNK N   1      36.020  16.910   8.946  0.00  0.00     0.169 HD
ENDBRANCH  11  14
ENDBRANCH   8  11
ENDBRANCH   1   5
BRANCH   3  17
HETATM   17  C   UNK N   1      27.671  17.105   5.895  0.00  0.00     0.167 C 
BRANCH  17  18
HETATM   18  C   UNK N   1      26.976  18.143   5.073  0.00  0.00     0.037 A 
HETATM   19  C   UNK N   1      27.315  19.501   5.206  0.00  0.00     0.130 A 
HETATM   20  C   UNK N   1      26.689  20.459   4.402  0.00  0.00     0.085 A 
HETATM   21  F   UNK N   1      28.254  19.893   6.101  0.00  0.00    -0.205 F 
HETATM   22  C   UNK N   1      25.729  20.071   3.465  0.00  0.00     0.122 A 
HETATM   23  C   UNK N   1      25.390  18.722   3.330  0.00  0.00     0.085 A 
HETATM   24  F   UNK N   1      25.135  21.001   2.680  0.00  0.00    -0.206 F 
HETATM   25  C   UNK N   1      26.009  17.759   4.130  0.00  0.00     0.130 A 
HETATM   26  F   UNK N   1      25.679  16.452   3.974  0.00  0.00    -0.205 F 
ENDBRANCH  17  18
ENDBRANCH   3  17
TORSDOF 5
ENDMDL
MODEL 5
REMARK VINA RESULT:      -6.9      3.198      5.185
REMARK  5 active torsions:
REMARK  status: ('A' for Active; 'I' for Inactive)
REMARK    1  A    between atoms: C_3  and  S_11 
REMARK    2  A    between atoms: C_6  and  C_7 
REMARK       I    between atoms: C_7  and  N_9 
REMARK    3  A    between atoms: N_9  and  C_10 
REMARK    4  A    between atoms: C_10  and  C_15 
REMARK    5  A    between atoms: S_11  and  N_12 
ROOT
HETATM    1  C   UNK N   1      33.623  17.898   7.814  0.00  0.00     0.251 C 
HETATM    2  O   UNK N   1      34.400  18.836   7.929  0.00  0.00    -0.268 OA
HETATM    3  N   UNK N   1      32.680  17.723   8.782  0.00  0.00    -0.352 N 
HETATM    4  H   UNK N   1      32.736  18.292   9.584  0.00  0.00     0.163 HD
ENDROOT
BRANCH   1   5
HETATM    5  C   UNK N   1      33.729  17.029   6.602  0.00  0.00     0.032 A 
HETATM    6  C   UNK N   1      34.334  15.764   6.650  0.00  0.00     0.018 A 
HETATM    7  C   UNK N   1      34.415  14.965   5.510  0.00  0.00     0.026 A 
HETATM    8  C   UNK N   1      33.882  15.416   4.303  0.00  0.00     0.079 A 
HETATM    9  C   UNK N   1      33.285  16.679   4.232  0.00  0.00     0.026 A 
HETATM   10  C   UNK N   1      33.218  17.485   5.374  0.00  0.00     0.018 A 
BRANCH   8  11
HETATM   11  S   UNK N   1      33.938  14.361   2.862  0.00  0.00     0.256 S 
HETATM   12  O   UNK N   1      34.372  15.124   1.601  0.00  0.00    -0.201 OA
HETATM   13  O   UNK N   1      35.023  13.279   2.961  0.00  0.00    -0.201 OA
BRANCH  11  14
HETATM   14  N   UNK N   1      32.468  13.508   2.392  0.00  0.00    -0.324 N 
HETATM   15  H   UNK N   1      31.569  13.674   1.940  0.00  0.00     0.169 HD
HETATM   16  H   UNK N   1      32.540  12.526   2.661  0.00  0.00     0.169 HD
ENDBRANCH  11  14
ENDBRANCH   8  11
ENDBRANCH   1   5
BRANCH   3  17
HETATM   17  C   UNK N   1      31.603  16.762   8.716  0.00  0.00     0.167 C 
BRANCH  17  18
HETATM   18  C   UNK N   1      30.377  17.336   8.080  0.00  0.00     0.037 A 
HETATM   19  C   UNK N   1      29.675  18.382   8.704  0.00  0.00     0.130 A 
HETATM   20  C   UNK N   1      28.554  18.940   8.081  0.00  0.00     0.085 A 
HETATM   21  F   UNK N   1      30.080  18.867   9.903  0.00  0.00    -0.205 F 
HETATM   22  C   UNK N   1      28.131  18.462   6.839  0.00  0.00     0.122 A 
HETATM   23  C   UNK N   1      28.826  17.423   6.216  0.00  0.00     0.085 A 
HETATM   24  F   UNK N   1      27.052  19.014   6.233  0.00  0.00    -0.206 F 
HETATM   25  C   UNK N   1      29.946  16.858   6.832  0.00  0.00     0.130 A 
HETATM   26  F   UNK N   1      30.618  15.860   6.206  0.00  0.00    -0.205 F 
ENDBRANCH  17  18
ENDBRANCH   3  17
TORSDOF 5
ENDMDL
MODEL 6
REMARK VINA RESULT:      -6.8      3.100      4.727
REMARK  5 active torsions:
REMARK  status: ('A' for Active; 'I' for Inactive)
REMARK    1  A    between atoms: C_3  and  S_11 
REMARK    2  A    between atoms: C_6  and  C_7 
REMARK       I    between atoms: C_7  and  N_9 
REMARK    3  A    between atoms: N_9  and  C_10 
REMARK    4  A    between atoms: C_10  and  C_15 
REMARK    5  A    between atoms: S_11  and  N_12 
ROOT
HETATM    1  C   UNK N   1      32.532  16.596   4.192  0.00  0.00     0.251 C 
HETATM    2  O   UNK N   1      33.225  16.900   3.230  0.00  0.00    -0.268 OA
HETATM    3  N   UNK N   1      31.217  16.312   3.972  0.00  0.00    -0.352 N 
HETATM    4  H   UNK N   1      30.860  16.470   3.068  0.00  0.00     0.163 HD
ENDROOT
BRANCH   1   5
HETATM    5  C   UNK N   1      33.177  16.517   5.538  0.00  0.00     0.032 A 
HETATM    6  C   UNK N   1      33.422  17.663   6.310  0.00  0.00     0.018 A 
HETATM    7  C   UNK N   1      34.017  17.567   7.567  0.00  0.00     0.026 A 
HETATM    8  C   UNK N   1      34.368  16.318   8.079  0.00  0.00     0.079 A 
HETATM    9  C   UNK N   1      34.142  15.165   7.320  0.00  0.00     0.026 A 
HETATM   10  C   UNK N   1      33.559  15.265   6.053  0.00  0.00     0.018 A 
BRANCH   8  11
HETATM   11  S   UNK N   1      35.075  16.200   9.715  0.00  0.00     0.256 S 
HETATM   12  O   UNK N   1      36.393  15.411   9.721  0.00  0.00    -0.201 OA
HETATM   13  O   UNK N   1      35.524  17.561  10.268  0.00  0.00    -0.201 OA
BRANCH  11  14
HETATM   14  N   UNK N   1      34.105  15.471  10.995  0.00  0.00    -0.324 N 
HETATM   15  H   UNK N   1      33.160  15.490  11.377  0.00  0.00     0.169 HD
HETATM   16  H   UNK N   1      34.677  14.815  11.527  0.00  0.00     0.169 HD
ENDBRANCH  11  14
ENDBRANCH   8  11
ENDBRANCH   1   5
BRANCH   3  17
HETATM   17  C   UNK N   1      30.311  15.795   4.971  0.00  0.00     0.167 C 
BRANCH  17  18
HETATM   18  C   UNK N   1      29.597  16.889   5.700  0.00  0.00     0.037 A 
HETATM   19  C   UNK N   1      28.662  17.699   5.032  0.00  0.00     0.130 A 
HETATM   20  C   UNK N   1      27.970  18.691   5.733  0.00  0.00     0.085 A 
HETATM   21  F   UNK N   1      28.414  17.520   3.711  0.00  0.00    -0.205 F 
HETATM   22  C   UNK N   1      28.203  18.880   7.097  0.00  0.00     0.122 A 
HETATM   23  C   UNK N   1      29.132  18.078   7.765  0.00  0.00     0.085 A 
HETATM   24  F   UNK N   1      27.521  19.834   7.775  0.00  0.00    -0.206 F 
HETATM   25  C   UNK N   1      29.829  17.085   7.071  0.00  0.00     0.130 A 
HETATM   26  F   UNK N   1      30.715  16.304   7.739  0.00  0.00    -0.205 F 
ENDBRANCH  17  18
ENDBRANCH   3  17
TORSDOF 5
ENDMDL
MODEL 7
REMARK VINA RESULT:      -6.8     11.771     13.759
REMARK  5 active torsions:
REMARK  status: ('A' for Active; 'I' for Inactive)
REMARK    1  A    between atoms: C_3  and  S_11 
REMARK    2  A    between atoms: C_6  and  C_7 
REMARK       I    between atoms: C_7  and  N_9 
REMARK    3  A    between atoms: N_9  and  C_10 
REMARK    4  A    between atoms: C_10  and  C_15 
REMARK    5  A    between atoms: S_11  and  N_12 
ROOT
HETATM    1  C   UNK N   1      25.858  23.954  -6.361  0.00  0.00     0.251 C 
HETATM    2  O   UNK N   1      24.894  23.206  -6.269  0.00  0.00    -0.268 OA
HETATM    3  N   UNK N   1      25.724  25.085  -7.109  0.00  0.00    -0.352 N 
HETATM    4  H   UNK N   1      24.895  25.194  -7.629  0.00  0.00     0.163 HD
ENDROOT
BRANCH   1   5
HETATM    5  C   UNK N   1      27.107  23.602  -5.617  0.00  0.00     0.032 A 
HETATM    6  C   UNK N   1      28.185  22.960  -6.244  0.00  0.00     0.018 A 
HETATM    7  C   UNK N   1      29.345  22.648  -5.535  0.00  0.00     0.026 A 
HETATM    8  C   UNK N   1      29.448  22.984  -4.186  0.00  0.00     0.079 A 
HETATM    9  C   UNK N   1      28.380  23.614  -3.540  0.00  0.00     0.026 A 
HETATM   10  C   UNK N   1      27.212  23.913  -4.250  0.00  0.00     0.018 A 
BRANCH   8  11
HETATM   11  S   UNK N   1      30.960  22.634  -3.301  0.00  0.00     0.256 S 
HETATM   12  O   UNK N   1      32.142  23.469  -3.819  0.00  0.00    -0.201 OA
HETATM   13  O   UNK N   1      30.899  23.063  -1.827  0.00  0.00    -0.201 OA
BRANCH  11  14
HETATM   14  N   UNK N   1      31.552  20.974  -3.282  0.00  0.00    -0.324 N 
HETATM   15  H   UNK N   1      31.209  20.013  -3.277  0.00  0.00     0.169 HD
HETATM   16  H   UNK N   1      32.573  20.973  -3.272  0.00  0.00     0.169 HD
ENDBRANCH  11  14
ENDBRANCH   8  11
ENDBRANCH   1   5
BRANCH   3  17
HETATM   17  C   UNK N   1      26.712  26.136  -7.193  0.00  0.00     0.167 C 
BRANCH  17  18
HETATM   18  C   UNK N   1      26.778  26.945  -5.937  0.00  0.00     0.037 A 
HETATM   19  C   UNK N   1      25.613  27.516  -5.396  0.00  0.00     0.130 A 
HETATM   20  C   UNK N   1      25.679  28.236  -4.199  0.00  0.00     0.085 A 
HETATM   21  F   UNK N   1      24.418  27.366  -6.019  0.00  0.00    -0.205 F 
HETATM   22  C   UNK N   1      26.900  28.389  -3.538  0.00  0.00     0.122 A 
HETATM   23  C   UNK N   1      28.060  27.823  -4.073  0.00  0.00     0.085 A 
HETATM   24  F   UNK N   1      26.956  29.077  -2.373  0.00  0.00    -0.206 F 
HETATM   25  C   UNK N   1      28.003  27.104  -5.270  0.00  0.00     0.130 A 
HETATM   26  F   UNK N   1      29.136  26.548  -5.766  0.00  0.00    -0.205 F 
ENDBRANCH  17  18
ENDBRANCH   3  17
TORSDOF 5
ENDMDL
MODEL 8
REMARK VINA RESULT:      -6.8      3.202      4.903
REMARK  5 active torsions:
REMARK  status: ('A' for Active; 'I' for Inactive)
REMARK    1  A    between atoms: C_3  and  S_11 
REMARK    2  A    between atoms: C_6  and  C_7 
REMARK       I    between atoms: C_7  and  N_9 
REMARK    3  A    between atoms: N_9  and  C_10 
REMARK    4  A    between atoms: C_10  and  C_15 
REMARK    5  A    between atoms: S_11  and  N_12 
ROOT
HETATM    1  C   UNK N   1      33.667  17.874   8.035  0.00  0.00     0.251 C 
HETATM    2  O   UNK N   1      34.448  18.801   8.204  0.00  0.00    -0.268 OA
HETATM    3  N   UNK N   1      32.665  17.705   8.942  0.00  0.00    -0.352 N 
HETATM    4  H   UNK N   1      32.679  18.268   9.750  0.00  0.00     0.163 HD
ENDROOT
BRANCH   1   5
HETATM    5  C   UNK N   1      33.837  17.011   6.825  0.00  0.00     0.032 A 
HETATM    6  C   UNK N   1      34.485  15.769   6.889  0.00  0.00     0.018 A 
HETATM    7  C   UNK N   1      34.625  14.975   5.751  0.00  0.00     0.026 A 
HETATM    8  C   UNK N   1      34.109  15.409   4.530  0.00  0.00     0.079 A 
HETATM    9  C   UNK N   1      33.470  16.649   4.444  0.00  0.00     0.026 A 
HETATM   10  C   UNK N   1      33.344  17.451   5.585  0.00  0.00     0.018 A 
BRANCH   8  11
HETATM   11  S   UNK N   1      34.242  14.358   3.091  0.00  0.00     0.256 S 
HETATM   12  O   UNK N   1      33.075  13.364   2.990  0.00  0.00    -0.201 OA
HETATM   13  O   UNK N   1      34.104  15.136   1.774  0.00  0.00    -0.201 OA
BRANCH  11  14
HETATM   14  N   UNK N   1      35.693  13.375   2.905  0.00  0.00    -0.324 N 
HETATM   15  H   UNK N   1      36.038  12.433   3.091  0.00  0.00     0.169 HD
HETATM   16  H   UNK N   1      36.430  13.929   2.468  0.00  0.00     0.169 HD
ENDBRANCH  11  14
ENDBRANCH   8  11
ENDBRANCH   1   5
BRANCH   3  17
HETATM   17  C   UNK N   1      31.582  16.758   8.803  0.00  0.00     0.167 C 
BRANCH  17  18
HETATM   18  C   UNK N   1      30.409  17.350   8.089  0.00  0.00     0.037 A 
HETATM   19  C   UNK N   1      30.013  16.854   6.835  0.00  0.00     0.130 A 
HETATM   20  C   UNK N   1      28.889  17.387   6.196  0.00  0.00     0.085 A 
HETATM   21  F   UNK N   1      30.706  15.853   6.239  0.00  0.00    -0.205 F 
HETATM   22  C   UNK N   1      28.156  18.410   6.801  0.00  0.00     0.122 A 
HETATM   23  C   UNK N   1      28.546  18.905   8.048  0.00  0.00     0.085 A 
HETATM   24  F   UNK N   1      27.061  18.914   6.185  0.00  0.00    -0.206 F 
HETATM   25  C   UNK N   1      29.669  18.380   8.693  0.00  0.00     0.130 A 
HETATM   26  F   UNK N   1      30.023  18.861   9.911  0.00  0.00    -0.205 F 
ENDBRANCH  17  18
ENDBRANCH   3  17
TORSDOF 5
ENDMDL
MODEL 9
REMARK VINA RESULT:      -6.8      5.566      9.213
REMARK  5 active torsions:
REMARK  status: ('A' for Active; 'I' for Inactive)
REMARK    1  A    between atoms: C_3  and  S_11 
REMARK    2  A    between atoms: C_6  and  C_7 
REMARK       I    between atoms: C_7  and  N_9 
REMARK    3  A    between atoms: N_9  and  C_10 
REMARK    4  A    between atoms: C_10  and  C_15 
REMARK    5  A    between atoms: S_11  and  N_12 
ROOT
HETATM    1  C   UNK N   1      34.585  18.183   8.516  0.00  0.00     0.251 C 
HETATM    2  O   UNK N   1      35.063  19.305   8.412  0.00  0.00    -0.268 OA
HETATM    3  N   UNK N   1      35.043  17.380   9.516  0.00  0.00    -0.352 N 
HETATM    4  H   UNK N   1      35.813  17.698  10.042  0.00  0.00     0.163 HD
ENDROOT
BRANCH   1   5
HETATM    5  C   UNK N   1      33.503  17.779   7.565  0.00  0.00     0.032 A 
HETATM    6  C   UNK N   1      32.163  17.678   7.970  0.00  0.00     0.018 A 
HETATM    7  C   UNK N   1      31.168  17.308   7.066  0.00  0.00     0.026 A 
HETATM    8  C   UNK N   1      31.497  17.043   5.737  0.00  0.00     0.079 A 
HETATM    9  C   UNK N   1      32.828  17.127   5.317  0.00  0.00     0.026 A 
HETATM   10  C   UNK N   1      33.827  17.484   6.230  0.00  0.00     0.018 A 
BRANCH   8  11
HETATM   11  S   UNK N   1      30.206  16.627   4.573  0.00  0.00     0.256 S 
HETATM   12  O   UNK N   1      29.738  15.171   4.722  0.00  0.00    -0.201 OA
HETATM   13  O   UNK N   1      28.904  17.401   4.828  0.00  0.00    -0.201 OA
BRANCH  11  14
HETATM   14  N   UNK N   1      30.538  16.823   2.853  0.00  0.00    -0.324 N 
HETATM   15  H   UNK N   1      31.309  17.016   2.214  0.00  0.00     0.169 HD
HETATM   16  H   UNK N   1      29.675  16.703   2.321  0.00  0.00     0.169 HD
ENDBRANCH  11  14
ENDBRANCH   8  11
ENDBRANCH   1   5
BRANCH   3  17
HETATM   17  C   UNK N   1      34.478  16.096   9.862  0.00  0.00     0.167 C 
BRANCH  17  18
HETATM   18  C   UNK N   1      35.522  15.027   9.942  0.00  0.00     0.037 A 
HETATM   19  C   UNK N   1      36.016  14.605  11.188  0.00  0.00     0.130 A 
HETATM   20  C   UNK N   1      36.961  13.576  11.253  0.00  0.00     0.085 A 
HETATM   21  F   UNK N   1      35.575  15.178  12.335  0.00  0.00    -0.205 F 
HETATM   22  C   UNK N   1      37.415  12.965  10.082  0.00  0.00     0.122 A 
HETATM   23  C   UNK N   1      36.927  13.383   8.841  0.00  0.00     0.085 A 
HETATM   24  F   UNK N   1      38.321  11.961  10.150  0.00  0.00    -0.206 F 
HETATM   25  C   UNK N   1      35.984  14.411   8.767  0.00  0.00     0.130 A 
HETATM   26  F   UNK N   1      35.509  14.793   7.555  0.00  0.00    -0.205 F 
ENDBRANCH  17  18
ENDBRANCH   3  17
TORSDOF 5
ENDMDL
