REMARK  5 active torsions:
REMARK  status: ('A' for Active; 'I' for Inactive)
REMARK    1  A    between atoms: C_3  and  S_11 
REMARK    2  A    between atoms: C_6  and  C_7 
REMARK       I    between atoms: C_7  and  N_9 
REMARK    3  A    between atoms: N_9  and  C_10 
REMARK    4  A    between atoms: C_10  and  C_15 
REMARK    5  A    between atoms: S_11  and  N_12 
ROOT
HETATM    1  C   UNK N   1      -1.838  -1.118  -0.725  0.00  0.00     0.251 C 
HETATM    2  O   UNK N   1      -2.588  -1.766  -1.442  0.00  0.00    -0.268 OA
HETATM    3  N   UNK N   1      -2.306   0.045  -0.191  0.00  0.00    -0.352 N 
HETATM    4  H   UNK N   1      -3.187   0.365  -0.493  0.00  0.00     0.163 HD
ENDROOT
BRANCH   1   5
HETATM    5  C   UNK N   1      -0.472  -1.660  -0.448  0.00  0.00     0.032 A 
HETATM    6  C   UNK N   1       0.522  -0.882   0.164  0.00  0.00     0.018 A 
HETATM    7  C   UNK N   1       1.787  -1.409   0.422  0.00  0.00     0.026 A 
HETATM    8  C   UNK N   1       2.075  -2.730   0.080  0.00  0.00     0.079 A 
HETATM    9  C   UNK N   1       1.101  -3.518  -0.541  0.00  0.00     0.026 A 
HETATM   10  C   UNK N   1      -0.163  -2.982  -0.812  0.00  0.00     0.018 A 
BRANCH   8  11
HETATM   11  S   UNK N   1       3.679  -3.414   0.468  0.00  0.00     0.256 S 
HETATM   12  O   UNK N   1       4.409  -2.603   1.550  0.00  0.00    -0.201 OA
HETATM   13  O   UNK N   1       3.591  -4.800   1.124  0.00  0.00    -0.201 OA
BRANCH  11  14
HETATM   14  N   UNK N   1       4.852  -3.587  -0.837  0.00  0.00    -0.324 N 
HETATM   15  H   UNK N   1       5.105  -4.224  -1.592  0.00  0.00     0.169 HD
HETATM   16  H   UNK N   1       5.486  -2.787  -0.837  0.00  0.00     0.169 HD
ENDBRANCH  11  14
ENDBRANCH   8  11
ENDBRANCH   1   5
BRANCH   3  17
HETATM   17  C   UNK N   1      -1.602   0.841   0.788  0.00  0.00     0.167 C 
BRANCH  17  18
HETATM   18  C   UNK N   1      -1.575   2.290   0.418  0.00  0.00     0.037 A 
HETATM   19  C   UNK N   1      -2.773   3.010   0.268  0.00  0.00     0.130 A 
HETATM   20  C   UNK N   1      -2.735   4.374  -0.037  0.00  0.00     0.085 A 
HETATM   21  F   UNK N   1      -3.971   2.396   0.428  0.00  0.00    -0.205 F 
HETATM   22  C   UNK N   1      -1.509   5.025  -0.192  0.00  0.00     0.122 A 
HETATM   23  C   UNK N   1      -0.316   4.313  -0.044  0.00  0.00     0.085 A 
HETATM   24  F   UNK N   1      -1.477   6.349  -0.475  0.00  0.00    -0.206 F 
HETATM   25  C   UNK N   1      -0.345   2.949   0.259  0.00  0.00     0.130 A 
HETATM   26  F   UNK N   1       0.823   2.277   0.415  0.00  0.00    -0.205 F 
ENDBRANCH  17  18
ENDBRANCH   3  17
TORSDOF 5
