MODEL 1
REMARK VINA RESULT:      -7.9      0.000      0.000
REMARK  5 active torsions:
REMARK  status: ('A' for Active; 'I' for Inactive)
REMARK    1  A    between atoms: C_3  and  S_11 
REMARK    2  A    between atoms: C_6  and  C_7 
REMARK       I    between atoms: C_7  and  N_9 
REMARK    3  A    between atoms: N_9  and  C_10 
REMARK    4  A    between atoms: C_10  and  C_15 
REMARK    5  A    between atoms: S_11  and  N_12 
ROOT
HETATM    1  C   UNK N   1      35.348  13.329  11.948  0.00  0.00     0.251 C 
HETATM    2  O   UNK N   1      34.770  12.269  11.734  0.00  0.00    -0.268 OA
HETATM    3  N   UNK N   1      36.100  13.503  13.052  0.00  0.00    -0.353 N 
HETATM    4  H   UNK N   1      36.654  14.317  13.087  0.00  0.00     0.163 HD
ENDROOT
BRANCH   1   5
HETATM    5  C   UNK N   1      35.280  14.449  11.002  0.00  0.00     0.032 A 
HETATM    6  C   UNK N   1      34.715  14.193   9.745  0.00  0.00     0.018 A 
HETATM    7  C   UNK N   1      34.488  15.217   8.846  0.00  0.00     0.026 A 
HETATM    8  C   UNK N   1      34.810  16.524   9.191  0.00  0.00     0.079 A 
HETATM    9  C   UNK N   1      35.417  16.799  10.427  0.00  0.00     0.026 A 
HETATM   10  C   UNK N   1      35.671  15.754  11.331  0.00  0.00     0.018 A 
BRANCH   8  11
HETATM   11  S   UNK N   1      34.243  17.831   8.123  0.00  0.00     0.256 S 
HETATM   12  O   UNK N   1      35.033  19.124   8.383  0.00  0.00    -0.201 OA
HETATM   13  O   UNK N   1      34.601  17.563   6.654  0.00  0.00    -0.201 OA
BRANCH  11  14
HETATM   14  N   UNK N   1      32.553  18.329   8.128  0.00  0.00    -0.324 N 
HETATM   15  H   UNK N   1      31.760  18.436   7.495  0.00  0.00     0.169 HD
HETATM   16  H   UNK N   1      32.278  18.598   9.072  0.00  0.00     0.169 HD
ENDBRANCH  11  14
ENDBRANCH   8  11
ENDBRANCH   1   5
BRANCH   3  17
HETATM   17  C   UNK N   1      36.175  12.624  14.181  0.00  0.00     0.161 C 
BRANCH  17  18
HETATM   18  C   UNK N   1      36.304  13.495  15.391  0.00  0.00    -0.034 A 
HETATM   19  C   UNK N   1      35.572  13.200  16.539  0.00  0.00     0.054 A 
HETATM   20  C   UNK N   1      35.594  14.079  17.626  0.00  0.00     0.158 A 
HETATM   21  C   UNK N   1      36.337  15.267  17.559  0.00  0.00     0.193 A 
HETATM   22  F   UNK N   1      34.872  13.789  18.733  0.00  0.00    -0.203 F 
HETATM   23  C   UNK N   1      37.079  15.561  16.414  0.00  0.00     0.158 A 
HETATM   24  F   UNK N   1      36.332  16.133  18.601  0.00  0.00    -0.200 F 
HETATM   25  C   UNK N   1      37.063  14.681  15.338  0.00  0.00     0.054 A 
HETATM   26  F   UNK N   1      37.794  16.711  16.331  0.00  0.00    -0.203 F 
ENDBRANCH  17  18
ENDBRANCH   3  17
TORSDOF 5
ENDMDL
MODEL 2
REMARK VINA RESULT:      -7.5      1.432      2.637
REMARK  5 active torsions:
REMARK  status: ('A' for Active; 'I' for Inactive)
REMARK    1  A    between atoms: C_3  and  S_11 
REMARK    2  A    between atoms: C_6  and  C_7 
REMARK       I    between atoms: C_7  and  N_9 
REMARK    3  A    between atoms: N_9  and  C_10 
REMARK    4  A    between atoms: C_10  and  C_15 
REMARK    5  A    between atoms: S_11  and  N_12 
ROOT
HETATM    1  C   UNK N   1      36.968  13.543  11.422  0.00  0.00     0.251 C 
HETATM    2  O   UNK N   1      38.005  13.063  10.974  0.00  0.00    -0.268 OA
HETATM    3  N   UNK N   1      36.540  13.241  12.663  0.00  0.00    -0.353 N 
HETATM    4  H   UNK N   1      35.789  13.773  13.014  0.00  0.00     0.163 HD
ENDROOT
BRANCH   1   5
HETATM    5  C   UNK N   1      36.159  14.491  10.648  0.00  0.00     0.032 A 
HETATM    6  C   UNK N   1      35.958  15.763  11.202  0.00  0.00     0.018 A 
HETATM    7  C   UNK N   1      35.326  16.758  10.482  0.00  0.00     0.026 A 
HETATM    8  C   UNK N   1      34.891  16.506   9.188  0.00  0.00     0.079 A 
HETATM    9  C   UNK N   1      35.041  15.226   8.629  0.00  0.00     0.026 A 
HETATM   10  C   UNK N   1      35.662  14.207   9.370  0.00  0.00     0.018 A 
BRANCH   8  11
HETATM   11  S   UNK N   1      34.341  17.889   8.209  0.00  0.00     0.256 S 
HETATM   12  O   UNK N   1      35.198  19.133   8.500  0.00  0.00    -0.201 OA
HETATM   13  O   UNK N   1      34.628  17.681   6.715  0.00  0.00    -0.201 OA
BRANCH  11  14
HETATM   14  N   UNK N   1      32.677  18.458   8.310  0.00  0.00    -0.324 N 
HETATM   15  H   UNK N   1      32.137  19.266   8.620  0.00  0.00     0.169 HD
HETATM   16  H   UNK N   1      32.048  17.747   7.937  0.00  0.00     0.169 HD
ENDBRANCH  11  14
ENDBRANCH   8  11
ENDBRANCH   1   5
BRANCH   3  17
HETATM   17  C   UNK N   1      37.068  12.224  13.524  0.00  0.00     0.161 C 
BRANCH  17  18
HETATM   18  C   UNK N   1      36.366  12.373  14.838  0.00  0.00    -0.034 A 
HETATM   19  C   UNK N   1      36.467  13.569  15.546  0.00  0.00     0.054 A 
HETATM   20  C   UNK N   1      35.919  13.670  16.827  0.00  0.00     0.158 A 
HETATM   21  C   UNK N   1      35.282  12.565  17.412  0.00  0.00     0.193 A 
HETATM   22  F   UNK N   1      36.030  14.832  17.512  0.00  0.00    -0.203 F 
HETATM   23  C   UNK N   1      35.170  11.368  16.702  0.00  0.00     0.158 A 
HETATM   24  F   UNK N   1      34.779  12.655  18.667  0.00  0.00    -0.200 F 
HETATM   25  C   UNK N   1      35.709  11.273  15.424  0.00  0.00     0.054 A 
HETATM   26  F   UNK N   1      34.566  10.289  17.259  0.00  0.00    -0.203 F 
ENDBRANCH  17  18
ENDBRANCH   3  17
TORSDOF 5
ENDMDL
MODEL 3
REMARK VINA RESULT:      -7.4      0.889      1.972
REMARK  5 active torsions:
REMARK  status: ('A' for Active; 'I' for Inactive)
REMARK    1  A    between atoms: C_3  and  S_11 
REMARK    2  A    between atoms: C_6  and  C_7 
REMARK       I    between atoms: C_7  and  N_9 
REMARK    3  A    between atoms: N_9  and  C_10 
REMARK    4  A    between atoms: C_10  and  C_15 
REMARK    5  A    between atoms: S_11  and  N_12 
ROOT
HETATM    1  C   UNK N   1      35.413  13.711  12.419  0.00  0.00     0.251 C 
HETATM    2  O   UNK N   1      34.439  13.074  12.807  0.00  0.00    -0.268 OA
HETATM    3  N   UNK N   1      36.627  13.536  12.976  0.00  0.00    -0.353 N 
HETATM    4  H   UNK N   1      37.389  13.963  12.521  0.00  0.00     0.163 HD
ENDROOT
BRANCH   1   5
HETATM    5  C   UNK N   1      35.318  14.670  11.312  0.00  0.00     0.032 A 
HETATM    6  C   UNK N   1      34.758  14.209  10.112  0.00  0.00     0.018 A 
HETATM    7  C   UNK N   1      34.506  15.077   9.068  0.00  0.00     0.026 A 
HETATM    8  C   UNK N   1      34.798  16.428   9.205  0.00  0.00     0.079 A 
HETATM    9  C   UNK N   1      35.400  16.904  10.381  0.00  0.00     0.026 A 
HETATM   10  C   UNK N   1      35.679  16.017  11.434  0.00  0.00     0.018 A 
BRANCH   8  11
HETATM   11  S   UNK N   1      34.200  17.541   7.950  0.00  0.00     0.256 S 
HETATM   12  O   UNK N   1      32.816  18.094   8.331  0.00  0.00    -0.201 OA
HETATM   13  O   UNK N   1      35.025  18.835   7.895  0.00  0.00    -0.201 OA
BRANCH  11  14
HETATM   14  N   UNK N   1      34.025  17.005   6.281  0.00  0.00    -0.324 N 
HETATM   15  H   UNK N   1      34.415  17.173   5.353  0.00  0.00     0.169 HD
HETATM   16  H   UNK N   1      33.295  16.296   6.223  0.00  0.00     0.169 HD
ENDBRANCH  11  14
ENDBRANCH   8  11
ENDBRANCH   1   5
BRANCH   3  17
HETATM   17  C   UNK N   1      36.921  12.790  14.165  0.00  0.00     0.161 C 
BRANCH  17  18
HETATM   18  C   UNK N   1      36.599  13.686  15.319  0.00  0.00    -0.034 A 
HETATM   19  C   UNK N   1      37.159  14.959  15.386  0.00  0.00     0.054 A 
HETATM   20  C   UNK N   1      36.961  15.750  16.521  0.00  0.00     0.158 A 
HETATM   21  C   UNK N   1      36.214  15.260  17.602  0.00  0.00     0.193 A 
HETATM   22  F   UNK N   1      37.517  16.982  16.582  0.00  0.00    -0.203 F 
HETATM   23  C   UNK N   1      35.643  13.988  17.535  0.00  0.00     0.158 A 
HETATM   24  F   UNK N   1      36.049  16.015  18.715  0.00  0.00    -0.200 F 
HETATM   25  C   UNK N   1      35.834  13.207  16.402  0.00  0.00     0.054 A 
HETATM   26  F   UNK N   1      34.927  13.497  18.577  0.00  0.00    -0.203 F 
ENDBRANCH  17  18
ENDBRANCH   3  17
TORSDOF 5
ENDMDL
MODEL 4
REMARK VINA RESULT:      -7.3      8.021     11.241
REMARK  5 active torsions:
REMARK  status: ('A' for Active; 'I' for Inactive)
REMARK    1  A    between atoms: C_3  and  S_11 
REMARK    2  A    between atoms: C_6  and  C_7 
REMARK       I    between atoms: C_7  and  N_9 
REMARK    3  A    between atoms: N_9  and  C_10 
REMARK    4  A    between atoms: C_10  and  C_15 
REMARK    5  A    between atoms: S_11  and  N_12 
ROOT
HETATM    1  C   UNK N   1      31.342  17.244   4.985  0.00  0.00     0.251 C 
HETATM    2  O   UNK N   1      31.797  17.448   3.864  0.00  0.00    -0.268 OA
HETATM    3  N   UNK N   1      30.026  17.028   5.175  0.00  0.00    -0.353 N 
HETATM    4  H   UNK N   1      29.752  16.723   6.070  0.00  0.00     0.163 HD
ENDROOT
BRANCH   1   5
HETATM    5  C   UNK N   1      32.205  17.193   6.171  0.00  0.00     0.032 A 
HETATM    6  C   UNK N   1      31.650  16.665   7.345  0.00  0.00     0.018 A 
HETATM    7  C   UNK N   1      32.430  16.455   8.466  0.00  0.00     0.026 A 
HETATM    8  C   UNK N   1      33.785  16.757   8.434  0.00  0.00     0.079 A 
HETATM    9  C   UNK N   1      34.353  17.329   7.283  0.00  0.00     0.026 A 
HETATM   10  C   UNK N   1      33.555  17.566   6.152  0.00  0.00     0.018 A 
BRANCH   8  11
HETATM   11  S   UNK N   1      34.793  16.210   9.795  0.00  0.00     0.256 S 
HETATM   12  O   UNK N   1      35.907  15.271   9.302  0.00  0.00    -0.201 OA
HETATM   13  O   UNK N   1      35.623  17.359  10.388  0.00  0.00    -0.201 OA
BRANCH  11  14
HETATM   14  N   UNK N   1      34.075  15.371  11.168  0.00  0.00    -0.324 N 
HETATM   15  H   UNK N   1      33.563  15.562  12.029  0.00  0.00     0.169 HD
HETATM   16  H   UNK N   1      34.218  14.367  11.069  0.00  0.00     0.169 HD
ENDBRANCH  11  14
ENDBRANCH   8  11
ENDBRANCH   1   5
BRANCH   3  17
HETATM   17  C   UNK N   1      28.985  17.196   4.204  0.00  0.00     0.161 C 
BRANCH  17  18
HETATM   18  C   UNK N   1      28.127  18.321   4.692  0.00  0.00    -0.034 A 
HETATM   19  C   UNK N   1      27.469  19.139   3.775  0.00  0.00     0.054 A 
HETATM   20  C   UNK N   1      26.769  20.264   4.220  0.00  0.00     0.158 A 
HETATM   21  C   UNK N   1      26.741  20.584   5.586  0.00  0.00     0.193 A 
HETATM   22  F   UNK N   1      26.142  21.058   3.322  0.00  0.00    -0.203 F 
HETATM   23  C   UNK N   1      27.391  19.762   6.508  0.00  0.00     0.158 A 
HETATM   24  F   UNK N   1      26.089  21.692   6.012  0.00  0.00    -0.200 F 
HETATM   25  C   UNK N   1      28.079  18.639   6.063  0.00  0.00     0.054 A 
HETATM   26  F   UNK N   1      27.380  20.065   7.830  0.00  0.00    -0.203 F 
ENDBRANCH  17  18
ENDBRANCH   3  17
TORSDOF 5
ENDMDL
MODEL 5
REMARK VINA RESULT:      -7.3      5.585      8.770
REMARK  5 active torsions:
REMARK  status: ('A' for Active; 'I' for Inactive)
REMARK    1  A    between atoms: C_3  and  S_11 
REMARK    2  A    between atoms: C_6  and  C_7 
REMARK       I    between atoms: C_7  and  N_9 
REMARK    3  A    between atoms: N_9  and  C_10 
REMARK    4  A    between atoms: C_10  and  C_15 
REMARK    5  A    between atoms: S_11  and  N_12 
ROOT
HETATM    1  C   UNK N   1      34.144  16.847   7.717  0.00  0.00     0.251 C 
HETATM    2  O   UNK N   1      34.684  17.781   7.133  0.00  0.00    -0.268 OA
HETATM    3  N   UNK N   1      32.934  16.393   7.339  0.00  0.00    -0.353 N 
HETATM    4  H   UNK N   1      32.628  15.552   7.749  0.00  0.00     0.163 HD
ENDROOT
BRANCH   1   5
HETATM    5  C   UNK N   1      34.798  16.156   8.835  0.00  0.00     0.032 A 
HETATM    6  C   UNK N   1      34.954  16.874  10.029  0.00  0.00     0.018 A 
HETATM    7  C   UNK N   1      35.434  16.259  11.169  0.00  0.00     0.026 A 
HETATM    8  C   UNK N   1      35.756  14.908  11.144  0.00  0.00     0.079 A 
HETATM    9  C   UNK N   1      35.650  14.180   9.947  0.00  0.00     0.026 A 
HETATM   10  C   UNK N   1      35.186  14.811   8.782  0.00  0.00     0.018 A 
BRANCH   8  11
HETATM   11  S   UNK N   1      36.098  14.104  12.695  0.00  0.00     0.256 S 
HETATM   12  O   UNK N   1      34.820  13.468  13.268  0.00  0.00    -0.201 OA
HETATM   13  O   UNK N   1      36.983  12.862  12.511  0.00  0.00    -0.201 OA
BRANCH  11  14
HETATM   14  N   UNK N   1      36.794  15.002  14.041  0.00  0.00    -0.324 N 
HETATM   15  H   UNK N   1      37.124  15.938  14.278  0.00  0.00     0.169 HD
HETATM   16  H   UNK N   1      36.903  14.386  14.845  0.00  0.00     0.169 HD
ENDBRANCH  11  14
ENDBRANCH   8  11
ENDBRANCH   1   5
BRANCH   3  17
HETATM   17  C   UNK N   1      32.046  17.012   6.399  0.00  0.00     0.161 C 
BRANCH  17  18
HETATM   18  C   UNK N   1      30.812  17.382   7.160  0.00  0.00    -0.034 A 
HETATM   19  C   UNK N   1      30.922  18.079   8.361  0.00  0.00     0.054 A 
HETATM   20  C   UNK N   1      29.783  18.318   9.136  0.00  0.00     0.158 A 
HETATM   21  C   UNK N   1      28.531  17.842   8.717  0.00  0.00     0.193 A 
HETATM   22  F   UNK N   1      29.900  18.987  10.306  0.00  0.00    -0.203 F 
HETATM   23  C   UNK N   1      28.416  17.151   7.510  0.00  0.00     0.158 A 
HETATM   24  F   UNK N   1      27.434  18.046   9.485  0.00  0.00    -0.200 F 
HETATM   25  C   UNK N   1      29.549  16.923   6.737  0.00  0.00     0.054 A 
HETATM   26  F   UNK N   1      27.214  16.677   7.098  0.00  0.00    -0.203 F 
ENDBRANCH  17  18
ENDBRANCH   3  17
TORSDOF 5
ENDMDL
MODEL 6
REMARK VINA RESULT:      -7.1     19.024     22.336
REMARK  5 active torsions:
REMARK  status: ('A' for Active; 'I' for Inactive)
REMARK    1  A    between atoms: C_3  and  S_11 
REMARK    2  A    between atoms: C_6  and  C_7 
REMARK       I    between atoms: C_7  and  N_9 
REMARK    3  A    between atoms: N_9  and  C_10 
REMARK    4  A    between atoms: C_10  and  C_15 
REMARK    5  A    between atoms: S_11  and  N_12 
ROOT
HETATM    1  C   UNK N   1      27.231  24.517  -3.878  0.00  0.00     0.251 C 
HETATM    2  O   UNK N   1      26.502  24.855  -2.951  0.00  0.00    -0.268 OA
HETATM    3  N   UNK N   1      27.049  25.003  -5.121  0.00  0.00    -0.353 N 
HETATM    4  H   UNK N   1      27.755  24.810  -5.780  0.00  0.00     0.163 HD
ENDROOT
BRANCH   1   5
HETATM    5  C   UNK N   1      28.355  23.595  -3.679  0.00  0.00     0.032 A 
HETATM    6  C   UNK N   1      28.924  23.022  -4.825  0.00  0.00     0.018 A 
HETATM    7  C   UNK N   1      30.068  22.252  -4.740  0.00  0.00     0.026 A 
HETATM    8  C   UNK N   1      30.675  22.048  -3.507  0.00  0.00     0.079 A 
HETATM    9  C   UNK N   1      30.098  22.575  -2.340  0.00  0.00     0.026 A 
HETATM   10  C   UNK N   1      28.921  23.337  -2.423  0.00  0.00     0.018 A 
BRANCH   8  11
HETATM   11  S   UNK N   1      32.287  21.292  -3.487  0.00  0.00     0.256 S 
HETATM   12  O   UNK N   1      33.297  22.150  -4.267  0.00  0.00    -0.201 OA
HETATM   13  O   UNK N   1      32.910  21.314  -2.084  0.00  0.00    -0.201 OA
BRANCH  11  14
HETATM   14  N   UNK N   1      32.522  19.657  -4.098  0.00  0.00    -0.324 N 
HETATM   15  H   UNK N   1      32.165  18.709  -3.974  0.00  0.00     0.169 HD
HETATM   16  H   UNK N   1      33.255  19.657  -4.807  0.00  0.00     0.169 HD
ENDBRANCH  11  14
ENDBRANCH   8  11
ENDBRANCH   1   5
BRANCH   3  17
HETATM   17  C   UNK N   1      25.930  25.772  -5.581  0.00  0.00     0.161 C 
BRANCH  17  18
HETATM   18  C   UNK N   1      26.353  27.207  -5.533  0.00  0.00    -0.034 A 
HETATM   19  C   UNK N   1      27.227  27.704  -6.497  0.00  0.00     0.054 A 
HETATM   20  C   UNK N   1      27.722  29.007  -6.385  0.00  0.00     0.158 A 
HETATM   21  C   UNK N   1      27.354  29.810  -5.295  0.00  0.00     0.193 A 
HETATM   22  F   UNK N   1      28.579  29.478  -7.320  0.00  0.00    -0.203 F 
HETATM   23  C   UNK N   1      26.471  29.319  -4.333  0.00  0.00     0.158 A 
HETATM   24  F   UNK N   1      27.859  31.061  -5.171  0.00  0.00    -0.200 F 
HETATM   25  C   UNK N   1      25.974  28.026  -4.452  0.00  0.00     0.054 A 
HETATM   26  F   UNK N   1      26.115  30.081  -3.269  0.00  0.00    -0.203 F 
ENDBRANCH  17  18
ENDBRANCH   3  17
TORSDOF 5
ENDMDL
MODEL 7
REMARK VINA RESULT:      -7.1     18.914     21.030
REMARK  5 active torsions:
REMARK  status: ('A' for Active; 'I' for Inactive)
REMARK    1  A    between atoms: C_3  and  S_11 
REMARK    2  A    between atoms: C_6  and  C_7 
REMARK       I    between atoms: C_7  and  N_9 
REMARK    3  A    between atoms: N_9  and  C_10 
REMARK    4  A    between atoms: C_10  and  C_15 
REMARK    5  A    between atoms: S_11  and  N_12 
ROOT
HETATM    1  C   UNK N   1      30.194  22.667  -2.645  0.00  0.00     0.251 C 
HETATM    2  O   UNK N   1      30.304  22.967  -1.460  0.00  0.00    -0.268 OA
HETATM    3  N   UNK N   1      29.171  23.131  -3.389  0.00  0.00    -0.353 N 
HETATM    4  H   UNK N   1      29.225  22.977  -4.361  0.00  0.00     0.163 HD
ENDROOT
BRANCH   1   5
HETATM    5  C   UNK N   1      31.181  21.818  -3.321  0.00  0.00     0.032 A 
HETATM    6  C   UNK N   1      32.479  21.799  -2.791  0.00  0.00     0.018 A 
HETATM    7  C   UNK N   1      33.432  20.927  -3.281  0.00  0.00     0.026 A 
HETATM    8  C   UNK N   1      33.104  20.046  -4.303  0.00  0.00     0.079 A 
HETATM    9  C   UNK N   1      31.824  20.078  -4.879  0.00  0.00     0.026 A 
HETATM   10  C   UNK N   1      30.862  20.982  -4.398  0.00  0.00     0.018 A 
BRANCH   8  11
HETATM   11  S   UNK N   1      34.271  18.761  -4.702  0.00  0.00     0.256 S 
HETATM   12  O   UNK N   1      35.697  19.185  -4.313  0.00  0.00    -0.201 OA
HETATM   13  O   UNK N   1      34.083  17.523  -3.814  0.00  0.00    -0.201 OA
BRANCH  11  14
HETATM   14  N   UNK N   1      34.417  18.159  -6.351  0.00  0.00    -0.324 N 
HETATM   15  H   UNK N   1      34.825  17.384  -6.875  0.00  0.00     0.169 HD
HETATM   16  H   UNK N   1      33.937  18.791  -6.992  0.00  0.00     0.169 HD
ENDBRANCH  11  14
ENDBRANCH   8  11
ENDBRANCH   1   5
BRANCH   3  17
HETATM   17  C   UNK N   1      28.013  23.826  -2.910  0.00  0.00     0.161 C 
BRANCH  17  18
HETATM   18  C   UNK N   1      27.258  24.279  -4.120  0.00  0.00    -0.034 A 
HETATM   19  C   UNK N   1      27.559  23.737  -5.368  0.00  0.00     0.054 A 
HETATM   20  C   UNK N   1      26.945  24.246  -6.516  0.00  0.00     0.158 A 
HETATM   21  C   UNK N   1      26.039  25.313  -6.419  0.00  0.00     0.193 A 
HETATM   22  F   UNK N   1      27.251  23.721  -7.725  0.00  0.00    -0.203 F 
HETATM   23  C   UNK N   1      25.728  25.852  -5.170  0.00  0.00     0.158 A 
HETATM   24  F   UNK N   1      25.469  25.826  -7.536  0.00  0.00    -0.200 F 
HETATM   25  C   UNK N   1      26.334  25.339  -4.029  0.00  0.00     0.054 A 
HETATM   26  F   UNK N   1      24.862  26.890  -5.062  0.00  0.00    -0.203 F 
ENDBRANCH  17  18
ENDBRANCH   3  17
TORSDOF 5
ENDMDL
MODEL 8
REMARK VINA RESULT:      -7.1      7.335     10.506
REMARK  5 active torsions:
REMARK  status: ('A' for Active; 'I' for Inactive)
REMARK    1  A    between atoms: C_3  and  S_11 
REMARK    2  A    between atoms: C_6  and  C_7 
REMARK       I    between atoms: C_7  and  N_9 
REMARK    3  A    between atoms: N_9  and  C_10 
REMARK    4  A    between atoms: C_10  and  C_15 
REMARK    5  A    between atoms: S_11  and  N_12 
ROOT
HETATM    1  C   UNK N   1      31.955  17.262   5.161  0.00  0.00     0.251 C 
HETATM    2  O   UNK N   1      32.285  17.906   4.170  0.00  0.00    -0.268 OA
HETATM    3  N   UNK N   1      30.694  16.815   5.314  0.00  0.00    -0.353 N 
HETATM    4  H   UNK N   1      30.535  16.182   6.052  0.00  0.00     0.163 HD
ENDROOT
BRANCH   1   5
HETATM    5  C   UNK N   1      32.919  16.917   6.213  0.00  0.00     0.032 A 
HETATM    6  C   UNK N   1      33.254  17.925   7.129  0.00  0.00     0.018 A 
HETATM    7  C   UNK N   1      34.046  17.650   8.227  0.00  0.00     0.026 A 
HETATM    8  C   UNK N   1      34.509  16.358   8.440  0.00  0.00     0.079 A 
HETATM    9  C   UNK N   1      34.223  15.343   7.512  0.00  0.00     0.026 A 
HETATM   10  C   UNK N   1      33.439  15.628   6.382  0.00  0.00     0.018 A 
BRANCH   8  11
HETATM   11  S   UNK N   1      35.282  15.997  10.003  0.00  0.00     0.256 S 
HETATM   12  O   UNK N   1      36.488  15.063   9.809  0.00  0.00    -0.201 OA
HETATM   13  O   UNK N   1      35.967  17.235  10.601  0.00  0.00    -0.201 OA
BRANCH  11  14
HETATM   14  N   UNK N   1      34.360  15.271  11.317  0.00  0.00    -0.324 N 
HETATM   15  H   UNK N   1      34.496  14.736  12.175  0.00  0.00     0.169 HD
HETATM   16  H   UNK N   1      33.365  15.442  11.173  0.00  0.00     0.169 HD
ENDBRANCH  11  14
ENDBRANCH   8  11
ENDBRANCH   1   5
BRANCH   3  17
HETATM   17  C   UNK N   1      29.560  17.169   4.512  0.00  0.00     0.161 C 
BRANCH  17  18
HETATM   18  C   UNK N   1      28.848  18.264   5.242  0.00  0.00    -0.034 A 
HETATM   19  C   UNK N   1      28.739  18.215   6.630  0.00  0.00     0.054 A 
HETATM   20  C   UNK N   1      27.969  19.167   7.304  0.00  0.00     0.158 A 
HETATM   21  C   UNK N   1      27.291  20.163   6.586  0.00  0.00     0.193 A 
HETATM   22  F   UNK N   1      27.861  19.106   8.652  0.00  0.00    -0.203 F 
HETATM   23  C   UNK N   1      27.404  20.221   5.196  0.00  0.00     0.158 A 
HETATM   24  F   UNK N   1      26.519  21.066   7.239  0.00  0.00    -0.200 F 
HETATM   25  C   UNK N   1      28.177  19.278   4.530  0.00  0.00     0.054 A 
HETATM   26  F   UNK N   1      26.745  21.173   4.489  0.00  0.00    -0.203 F 
ENDBRANCH  17  18
ENDBRANCH   3  17
TORSDOF 5
ENDMDL
MODEL 9
REMARK VINA RESULT:      -7.0      4.067      5.952
REMARK  5 active torsions:
REMARK  status: ('A' for Active; 'I' for Inactive)
REMARK    1  A    between atoms: C_3  and  S_11 
REMARK    2  A    between atoms: C_6  and  C_7 
REMARK       I    between atoms: C_7  and  N_9 
REMARK    3  A    between atoms: N_9  and  C_10 
REMARK    4  A    between atoms: C_10  and  C_15 
REMARK    5  A    between atoms: S_11  and  N_12 
ROOT
HETATM    1  C   UNK N   1      34.243  17.981   8.504  0.00  0.00     0.251 C 
HETATM    2  O   UNK N   1      35.028  18.917   8.394  0.00  0.00    -0.268 OA
HETATM    3  N   UNK N   1      34.312  17.132   9.547  0.00  0.00    -0.353 N 
HETATM    4  H   UNK N   1      33.565  16.499   9.654  0.00  0.00     0.163 HD
ENDROOT
BRANCH   1   5
HETATM    5  C   UNK N   1      33.171  17.754   7.527  0.00  0.00     0.032 A 
HETATM    6  C   UNK N   1      33.546  17.632   6.182  0.00  0.00     0.018 A 
HETATM    7  C   UNK N   1      32.621  17.283   5.217  0.00  0.00     0.026 A 
HETATM    8  C   UNK N   1      31.303  17.037   5.578  0.00  0.00     0.079 A 
HETATM    9  C   UNK N   1      30.895  17.197   6.913  0.00  0.00     0.026 A 
HETATM   10  C   UNK N   1      31.830  17.576   7.890  0.00  0.00     0.018 A 
BRANCH   8  11
HETATM   11  S   UNK N   1      30.223  16.323   4.356  0.00  0.00     0.256 S 
HETATM   12  O   UNK N   1      30.420  14.799   4.282  0.00  0.00    -0.201 OA
HETATM   13  O   UNK N   1      28.749  16.404   4.779  0.00  0.00    -0.201 OA
BRANCH  11  14
HETATM   14  N   UNK N   1      30.278  16.863   2.680  0.00  0.00    -0.324 N 
HETATM   15  H   UNK N   1      30.795  17.500   2.073  0.00  0.00     0.169 HD
HETATM   16  H   UNK N   1      29.558  16.383   2.140  0.00  0.00     0.169 HD
ENDBRANCH  11  14
ENDBRANCH   8  11
ENDBRANCH   1   5
BRANCH   3  17
HETATM   17  C   UNK N   1      35.364  17.057  10.518  0.00  0.00     0.161 C 
BRANCH  17  18
HETATM   18  C   UNK N   1      35.313  15.676  11.094  0.00  0.00    -0.034 A 
HETATM   19  C   UNK N   1      35.988  15.395  12.280  0.00  0.00     0.054 A 
HETATM   20  C   UNK N   1      36.048  14.081  12.754  0.00  0.00     0.158 A 
HETATM   21  C   UNK N   1      35.446  13.041  12.030  0.00  0.00     0.193 A 
HETATM   22  F   UNK N   1      36.713  13.816  13.902  0.00  0.00    -0.203 F 
HETATM   23  C   UNK N   1      34.761  13.320  10.846  0.00  0.00     0.158 A 
HETATM   24  F   UNK N   1      35.532  11.764  12.475  0.00  0.00    -0.200 F 
HETATM   25  C   UNK N   1      34.696  14.629  10.382  0.00  0.00     0.054 A 
HETATM   26  F   UNK N   1      34.183  12.323  10.132  0.00  0.00    -0.203 F 
ENDBRANCH  17  18
ENDBRANCH   3  17
TORSDOF 5
ENDMDL
