MODEL 1
REMARK VINA RESULT:      -5.9      0.000      0.000
REMARK  4 active torsions:
REMARK  status: ('A' for Active; 'I' for Inactive)
REMARK    1  A    between atoms: C_1  and  O_3 
REMARK    2  A    between atoms: C_1  and  C_4 
REMARK    3  A    between atoms: C_4  and  C_5 
REMARK    4  A    between atoms: C_5  and  C_8 
ROOT
HETATM    1  N   UNK N   1      25.525  24.558  -5.885  0.00  0.00    -0.365 N 
HETATM    2  C   UNK N   1      26.297  23.716  -5.149  0.00  0.00     0.096 A 
HETATM    3  C   UNK N   1      26.819  24.403  -4.054  0.00  0.00    -0.030 A 
HETATM    4  C   UNK N   1      26.346  25.681  -4.140  0.00  0.00    -0.002 A 
HETATM    5  C   UNK N   1      26.552  26.783  -3.312  0.00  0.00     0.014 A 
HETATM    6  C   UNK N   1      25.924  27.990  -3.662  0.00  0.00     0.001 A 
HETATM    7  C   UNK N   1      25.115  28.063  -4.819  0.00  0.00     0.002 A 
HETATM    8  C   UNK N   1      24.929  26.927  -5.634  0.00  0.00     0.030 A 
HETATM    9  C   UNK N   1      25.567  25.749  -5.255  0.00  0.00     0.042 A 
HETATM   10  H   UNK N   1      25.034  24.342  -6.712  0.00  0.00     0.165 HD
ENDROOT
BRANCH   3  11
HETATM   11  C   UNK N   1      27.717  23.908  -2.967  0.00  0.00     0.051 C 
BRANCH  11  12
HETATM   12  C   UNK N   1      29.201  23.958  -3.290  0.00  0.00     0.114 C 
BRANCH  12  13
HETATM   13  C   UNK N   1      29.925  22.850  -2.579  0.00  0.00     0.139 C 
HETATM   14  O   UNK N   1      30.330  23.027  -1.442  0.00  0.00    -0.650 OA
BRANCH  13  15
HETATM   15  O   UNK N   1      30.135  21.661  -3.182  0.00  0.00    -0.776 OA
HETATM   16  H   UNK N   1      30.984  21.447  -3.516  0.00  0.00     0.167 HD
ENDBRANCH  13  15
ENDBRANCH  12  13
ENDBRANCH  11  12
ENDBRANCH   3  11
TORSDOF 4
ENDMDL
MODEL 2
REMARK VINA RESULT:      -5.7     17.862     19.502
REMARK  4 active torsions:
REMARK  status: ('A' for Active; 'I' for Inactive)
REMARK    1  A    between atoms: C_1  and  O_3 
REMARK    2  A    between atoms: C_1  and  C_4 
REMARK    3  A    between atoms: C_4  and  C_5 
REMARK    4  A    between atoms: C_5  and  C_8 
ROOT
HETATM    1  N   UNK N   1      21.103  12.082  11.632  0.00  0.00    -0.365 N 
HETATM    2  C   UNK N   1      20.271  12.763  10.799  0.00  0.00     0.096 A 
HETATM    3  C   UNK N   1      21.020  13.372   9.792  0.00  0.00    -0.030 A 
HETATM    4  C   UNK N   1      22.325  13.045  10.031  0.00  0.00    -0.002 A 
HETATM    5  C   UNK N   1      23.486  13.384   9.339  0.00  0.00     0.014 A 
HETATM    6  C   UNK N   1      24.707  12.891   9.832  0.00  0.00     0.001 A 
HETATM    7  C   UNK N   1      24.733  12.081  10.991  0.00  0.00     0.002 A 
HETATM    8  C   UNK N   1      23.537  11.759  11.665  0.00  0.00     0.030 A 
HETATM    9  C   UNK N   1      22.348  12.266  11.148  0.00  0.00     0.042 A 
HETATM   10  H   UNK N   1      20.847  11.561  12.427  0.00  0.00     0.165 HD
ENDROOT
BRANCH   3  11
HETATM   11  C   UNK N   1      20.560  14.222   8.652  0.00  0.00     0.051 C 
BRANCH  11  12
HETATM   12  C   UNK N   1      20.697  15.719   8.873  0.00  0.00     0.114 C 
BRANCH  12  13
HETATM   13  C   UNK N   1      19.340  16.350   9.015  0.00  0.00     0.139 C 
HETATM   14  O   UNK N   1      18.389  15.664   9.351  0.00  0.00    -0.650 OA
BRANCH  13  15
HETATM   15  O   UNK N   1      19.159  17.665   8.772  0.00  0.00    -0.776 OA
HETATM   16  H   UNK N   1      19.896  18.244   8.752  0.00  0.00     0.167 HD
ENDBRANCH  13  15
ENDBRANCH  12  13
ENDBRANCH  11  12
ENDBRANCH   3  11
TORSDOF 4
ENDMDL
MODEL 3
REMARK VINA RESULT:      -5.7      9.687     11.097
REMARK  4 active torsions:
REMARK  status: ('A' for Active; 'I' for Inactive)
REMARK    1  A    between atoms: C_1  and  O_3 
REMARK    2  A    between atoms: C_1  and  C_4 
REMARK    3  A    between atoms: C_4  and  C_5 
REMARK    4  A    between atoms: C_5  and  C_8 
ROOT
HETATM    1  N   UNK N   1      23.818  17.781   5.312  0.00  0.00    -0.365 N 
HETATM    2  C   UNK N   1      22.499  18.022   5.085  0.00  0.00     0.096 A 
HETATM    3  C   UNK N   1      22.370  19.061   4.163  0.00  0.00    -0.030 A 
HETATM    4  C   UNK N   1      23.639  19.445   3.834  0.00  0.00    -0.002 A 
HETATM    5  C   UNK N   1      24.090  20.434   2.963  0.00  0.00     0.014 A 
HETATM    6  C   UNK N   1      25.479  20.601   2.828  0.00  0.00     0.001 A 
HETATM    7  C   UNK N   1      26.370  19.784   3.562  0.00  0.00     0.002 A 
HETATM    8  C   UNK N   1      25.876  18.793   4.435  0.00  0.00     0.030 A 
HETATM    9  C   UNK N   1      24.495  18.657   4.542  0.00  0.00     0.042 A 
HETATM   10  H   UNK N   1      24.200  17.104   5.917  0.00  0.00     0.165 HD
ENDROOT
BRANCH   3  11
HETATM   11  C   UNK N   1      21.130  19.680   3.602  0.00  0.00     0.051 C 
BRANCH  11  12
HETATM   12  C   UNK N   1      20.736  19.185   2.220  0.00  0.00     0.114 C 
BRANCH  12  13
HETATM   13  C   UNK N   1      20.811  20.308   1.225  0.00  0.00     0.139 C 
HETATM   14  O   UNK N   1      20.989  21.448   1.616  0.00  0.00    -0.650 OA
BRANCH  13  15
HETATM   15  O   UNK N   1      20.683  20.070  -0.098  0.00  0.00    -0.776 OA
HETATM   16  H   UNK N   1      20.287  20.713  -0.654  0.00  0.00     0.167 HD
ENDBRANCH  13  15
ENDBRANCH  12  13
ENDBRANCH  11  12
ENDBRANCH   3  11
TORSDOF 4
ENDMDL
MODEL 4
REMARK VINA RESULT:      -5.6     24.120     26.732
REMARK  4 active torsions:
REMARK  status: ('A' for Active; 'I' for Inactive)
REMARK    1  A    between atoms: C_1  and  O_3 
REMARK    2  A    between atoms: C_1  and  C_4 
REMARK    3  A    between atoms: C_4  and  C_5 
REMARK    4  A    between atoms: C_5  and  C_8 
ROOT
HETATM    1  N   UNK N   1      35.300  13.152  19.658  0.00  0.00    -0.365 N 
HETATM    2  C   UNK N   1      35.239  13.794  18.461  0.00  0.00     0.096 A 
HETATM    3  C   UNK N   1      35.192  12.853  17.433  0.00  0.00    -0.030 A 
HETATM    4  C   UNK N   1      35.223  11.626  18.031  0.00  0.00    -0.002 A 
HETATM    5  C   UNK N   1      35.200  10.346  17.480  0.00  0.00     0.014 A 
HETATM    6  C   UNK N   1      35.246   9.254  18.363  0.00  0.00     0.001 A 
HETATM    7  C   UNK N   1      35.314   9.468  19.759  0.00  0.00     0.002 A 
HETATM    8  C   UNK N   1      35.336  10.777  20.281  0.00  0.00     0.030 A 
HETATM    9  C   UNK N   1      35.289  11.834  19.376  0.00  0.00     0.042 A 
HETATM   10  H   UNK N   1      35.343  13.567  20.551  0.00  0.00     0.165 HD
ENDROOT
BRANCH   3  11
HETATM   11  C   UNK N   1      35.119  13.068  15.955  0.00  0.00     0.051 C 
BRANCH  11  12
HETATM   12  C   UNK N   1      36.457  13.035  15.237  0.00  0.00     0.114 C 
BRANCH  12  13
HETATM   13  C   UNK N   1      36.956  14.433  15.001  0.00  0.00     0.139 C 
HETATM   14  O   UNK N   1      37.553  15.017  15.889  0.00  0.00    -0.650 OA
BRANCH  13  15
HETATM   15  O   UNK N   1      36.750  15.051  13.819  0.00  0.00    -0.776 OA
HETATM   16  H   UNK N   1      37.396  14.998  13.143  0.00  0.00     0.167 HD
ENDBRANCH  13  15
ENDBRANCH  12  13
ENDBRANCH  11  12
ENDBRANCH   3  11
TORSDOF 4
ENDMDL
MODEL 5
REMARK VINA RESULT:      -5.4     12.301     14.247
REMARK  4 active torsions:
REMARK  status: ('A' for Active; 'I' for Inactive)
REMARK    1  A    between atoms: C_1  and  O_3 
REMARK    2  A    between atoms: C_1  and  C_4 
REMARK    3  A    between atoms: C_4  and  C_5 
REMARK    4  A    between atoms: C_5  and  C_8 
ROOT
HETATM    1  N   UNK N   1      29.257  17.931   8.473  0.00  0.00    -0.365 N 
HETATM    2  C   UNK N   1      30.418  17.490   9.028  0.00  0.00     0.096 A 
HETATM    3  C   UNK N   1      31.285  17.073   8.018  0.00  0.00    -0.030 A 
HETATM    4  C   UNK N   1      30.627  17.271   6.838  0.00  0.00    -0.002 A 
HETATM    5  C   UNK N   1      31.024  17.028   5.525  0.00  0.00     0.014 A 
HETATM    6  C   UNK N   1      30.115  17.337   4.499  0.00  0.00     0.001 A 
HETATM    7  C   UNK N   1      28.845  17.875   4.811  0.00  0.00     0.002 A 
HETATM    8  C   UNK N   1      28.477  18.108   6.152  0.00  0.00     0.030 A 
HETATM    9  C   UNK N   1      29.404  17.789   7.141  0.00  0.00     0.042 A 
HETATM   10  H   UNK N   1      28.469  18.281   8.949  0.00  0.00     0.165 HD
ENDROOT
BRANCH   3  11
HETATM   11  C   UNK N   1      32.668  16.515   8.128  0.00  0.00     0.051 C 
BRANCH  11  12
HETATM   12  C   UNK N   1      33.647  17.379   8.905  0.00  0.00     0.114 C 
BRANCH  12  13
HETATM   13  C   UNK N   1      34.444  18.236   7.962  0.00  0.00     0.139 C 
HETATM   14  O   UNK N   1      35.085  19.176   8.400  0.00  0.00    -0.650 OA
BRANCH  13  15
HETATM   15  O   UNK N   1      34.459  17.980   6.637  0.00  0.00    -0.776 OA
HETATM   16  H   UNK N   1      34.026  18.560   6.042  0.00  0.00     0.167 HD
ENDBRANCH  13  15
ENDBRANCH  12  13
ENDBRANCH  11  12
ENDBRANCH   3  11
TORSDOF 4
ENDMDL
MODEL 6
REMARK VINA RESULT:      -5.4     10.993     12.955
REMARK  4 active torsions:
REMARK  status: ('A' for Active; 'I' for Inactive)
REMARK    1  A    between atoms: C_1  and  O_3 
REMARK    2  A    between atoms: C_1  and  C_4 
REMARK    3  A    between atoms: C_4  and  C_5 
REMARK    4  A    between atoms: C_5  and  C_8 
ROOT
HETATM    1  N   UNK N   1      27.529  19.418   8.378  0.00  0.00    -0.365 N 
HETATM    2  C   UNK N   1      28.329  18.330   8.536  0.00  0.00     0.096 A 
HETATM    3  C   UNK N   1      28.800  17.917   7.290  0.00  0.00    -0.030 A 
HETATM    4  C   UNK N   1      28.271  18.778   6.372  0.00  0.00    -0.002 A 
HETATM    5  C   UNK N   1      28.412  18.828   4.987  0.00  0.00     0.014 A 
HETATM    6  C   UNK N   1      27.734  19.847   4.297  0.00  0.00     0.001 A 
HETATM    7  C   UNK N   1      26.940  20.780   5.004  0.00  0.00     0.002 A 
HETATM    8  C   UNK N   1      26.820  20.698   6.406  0.00  0.00     0.030 A 
HETATM    9  C   UNK N   1      27.506  19.676   7.055  0.00  0.00     0.042 A 
HETATM   10  H   UNK N   1      27.061  19.918   9.087  0.00  0.00     0.165 HD
ENDROOT
BRANCH   3  11
HETATM   11  C   UNK N   1      29.704  16.775   6.951  0.00  0.00     0.051 C 
BRANCH  11  12
HETATM   12  C   UNK N   1      31.169  17.144   6.791  0.00  0.00     0.114 C 
BRANCH  12  13
HETATM   13  C   UNK N   1      31.805  17.340   8.139  0.00  0.00     0.139 C 
HETATM   14  O   UNK N   1      32.630  18.225   8.292  0.00  0.00    -0.650 OA
BRANCH  13  15
HETATM   15  O   UNK N   1      31.477  16.548   9.181  0.00  0.00    -0.776 OA
HETATM   16  H   UNK N   1      31.610  16.849  10.059  0.00  0.00     0.167 HD
ENDBRANCH  13  15
ENDBRANCH  12  13
ENDBRANCH  11  12
ENDBRANCH   3  11
TORSDOF 4
ENDMDL
MODEL 7
REMARK VINA RESULT:      -5.4     23.769     25.245
REMARK  4 active torsions:
REMARK  status: ('A' for Active; 'I' for Inactive)
REMARK    1  A    between atoms: C_1  and  O_3 
REMARK    2  A    between atoms: C_1  and  C_4 
REMARK    3  A    between atoms: C_4  and  C_5 
REMARK    4  A    between atoms: C_5  and  C_8 
ROOT
HETATM    1  N   UNK N   1      36.801  13.389  14.074  0.00  0.00    -0.365 N 
HETATM    2  C   UNK N   1      36.608  13.777  15.363  0.00  0.00     0.096 A 
HETATM    3  C   UNK N   1      35.536  13.070  15.904  0.00  0.00    -0.030 A 
HETATM    4  C   UNK N   1      35.082  12.242  14.917  0.00  0.00    -0.002 A 
HETATM    5  C   UNK N   1      34.035  11.322  14.914  0.00  0.00     0.014 A 
HETATM    6  C   UNK N   1      33.801  10.603  13.729  0.00  0.00     0.001 A 
HETATM    7  C   UNK N   1      34.611  10.822  12.591  0.00  0.00     0.002 A 
HETATM    8  C   UNK N   1      35.661  11.762  12.631  0.00  0.00     0.030 A 
HETATM    9  C   UNK N   1      35.863  12.455  13.822  0.00  0.00     0.042 A 
HETATM   10  H   UNK N   1      37.488  13.723  13.452  0.00  0.00     0.165 HD
ENDROOT
BRANCH   3  11
HETATM   11  C   UNK N   1      34.947  13.146  17.276  0.00  0.00     0.051 C 
BRANCH  11  12
HETATM   12  C   UNK N   1      35.352  12.019  18.211  0.00  0.00     0.114 C 
BRANCH  12  13
HETATM   13  C   UNK N   1      35.317  12.490  19.638  0.00  0.00     0.139 C 
HETATM   14  O   UNK N   1      34.875  13.596  19.896  0.00  0.00    -0.650 OA
BRANCH  13  15
HETATM   15  O   UNK N   1      35.770  11.704  20.637  0.00  0.00    -0.776 OA
HETATM   16  H   UNK N   1      35.430  10.836  20.743  0.00  0.00     0.167 HD
ENDBRANCH  13  15
ENDBRANCH  12  13
ENDBRANCH  11  12
ENDBRANCH   3  11
TORSDOF 4
ENDMDL
MODEL 8
REMARK VINA RESULT:      -5.3      3.521      4.520
REMARK  4 active torsions:
REMARK  status: ('A' for Active; 'I' for Inactive)
REMARK    1  A    between atoms: C_1  and  O_3 
REMARK    2  A    between atoms: C_1  and  C_4 
REMARK    3  A    between atoms: C_4  and  C_5 
REMARK    4  A    between atoms: C_5  and  C_8 
ROOT
HETATM    1  N   UNK N   1      27.117  24.597  -3.635  0.00  0.00    -0.365 N 
HETATM    2  C   UNK N   1      26.957  23.726  -4.667  0.00  0.00     0.096 A 
HETATM    3  C   UNK N   1      26.187  24.325  -5.664  0.00  0.00    -0.030 A 
HETATM    4  C   UNK N   1      25.884  25.579  -5.216  0.00  0.00    -0.002 A 
HETATM    5  C   UNK N   1      25.142  26.600  -5.808  0.00  0.00     0.014 A 
HETATM    6  C   UNK N   1      24.999  27.801  -5.093  0.00  0.00     0.001 A 
HETATM    7  C   UNK N   1      25.593  27.948  -3.818  0.00  0.00     0.002 A 
HETATM    8  C   UNK N   1      26.336  26.893  -3.251  0.00  0.00     0.030 A 
HETATM    9  C   UNK N   1      26.457  25.719  -3.988  0.00  0.00     0.042 A 
HETATM   10  H   UNK N   1      27.615  24.440  -2.800  0.00  0.00     0.165 HD
ENDROOT
BRANCH   3  11
HETATM   11  C   UNK N   1      25.744  23.771  -6.979  0.00  0.00     0.051 C 
BRANCH  11  12
HETATM   12  C   UNK N   1      26.124  22.320  -7.224  0.00  0.00     0.114 C 
BRANCH  12  13
HETATM   13  C   UNK N   1      25.103  21.657  -8.105  0.00  0.00     0.139 C 
HETATM   14  O   UNK N   1      25.455  20.787  -8.884  0.00  0.00    -0.650 OA
BRANCH  13  15
HETATM   15  O   UNK N   1      23.803  22.013  -8.047  0.00  0.00    -0.776 OA
HETATM   16  H   UNK N   1      23.567  22.899  -7.855  0.00  0.00     0.167 HD
ENDBRANCH  13  15
ENDBRANCH  12  13
ENDBRANCH  11  12
ENDBRANCH   3  11
TORSDOF 4
ENDMDL
MODEL 9
REMARK VINA RESULT:      -5.3     13.640     14.686
REMARK  4 active torsions:
REMARK  status: ('A' for Active; 'I' for Inactive)
REMARK    1  A    between atoms: C_1  and  O_3 
REMARK    2  A    between atoms: C_1  and  C_4 
REMARK    3  A    between atoms: C_4  and  C_5 
REMARK    4  A    between atoms: C_5  and  C_8 
ROOT
HETATM    1  N   UNK N   1      31.144  16.501   9.530  0.00  0.00    -0.365 N 
HETATM    2  C   UNK N   1      31.884  16.011   8.501  0.00  0.00     0.096 A 
HETATM    3  C   UNK N   1      31.317  16.409   7.291  0.00  0.00    -0.030 A 
HETATM    4  C   UNK N   1      30.216  17.154   7.608  0.00  0.00    -0.002 A 
HETATM    5  C   UNK N   1      29.287  17.794   6.789  0.00  0.00     0.014 A 
HETATM    6  C   UNK N   1      28.242  18.496   7.413  0.00  0.00     0.001 A 
HETATM    7  C   UNK N   1      28.155  18.539   8.824  0.00  0.00     0.002 A 
HETATM    8  C   UNK N   1      29.113  17.879   9.620  0.00  0.00     0.030 A 
HETATM    9  C   UNK N   1      30.134  17.194   8.967  0.00  0.00     0.042 A 
HETATM   10  H   UNK N   1      31.312  16.376  10.493  0.00  0.00     0.165 HD
ENDROOT
BRANCH   3  11
HETATM   11  C   UNK N   1      31.766  16.121   5.894  0.00  0.00     0.051 C 
BRANCH  11  12
HETATM   12  C   UNK N   1      32.662  17.182   5.278  0.00  0.00     0.114 C 
BRANCH  12  13
HETATM   13  C   UNK N   1      34.011  17.171   5.940  0.00  0.00     0.139 C 
HETATM   14  O   UNK N   1      34.351  18.118   6.628  0.00  0.00    -0.650 OA
BRANCH  13  15
HETATM   15  O   UNK N   1      34.852  16.128   5.781  0.00  0.00    -0.776 OA
HETATM   16  H   UNK N   1      35.572  16.011   6.369  0.00  0.00     0.167 HD
ENDBRANCH  13  15
ENDBRANCH  12  13
ENDBRANCH  11  12
ENDBRANCH   3  11
TORSDOF 4
ENDMDL
