MODEL 1
REMARK VINA RESULT:      -6.2      0.000      0.000
REMARK  7 active torsions:
REMARK  status: ('A' for Active; 'I' for Inactive)
REMARK    1  A    between atoms: C_3  and  C_12 
REMARK    2  A    between atoms: C_10  and  C_11 
REMARK    3  A    between atoms: C_10  and  O_17 
REMARK    4  A    between atoms: C_11  and  C_12 
REMARK    5  A    between atoms: P_13  and  O_15 
REMARK    6  A    between atoms: P_13  and  O_16 
REMARK    7  A    between atoms: P_13  and  O_17 
ROOT
HETATM    1  N   UNK N   1      27.465  19.526   8.280  0.00  0.00    -0.365 N 
HETATM    2  C   UNK N   1      28.344  18.513   8.490  0.00  0.00     0.096 A 
HETATM    3  C   UNK N   1      28.857  18.082   7.272  0.00  0.00    -0.030 A 
HETATM    4  C   UNK N   1      28.406  18.871   4.916  0.00  0.00     0.014 A 
HETATM    5  C   UNK N   1      27.654  19.810   4.189  0.00  0.00     0.001 A 
HETATM    6  C   UNK N   1      26.786  20.701   4.858  0.00  0.00     0.002 A 
HETATM    7  C   UNK N   1      26.667  20.662   6.260  0.00  0.00     0.030 A 
HETATM    8  C   UNK N   1      27.432  19.724   6.948  0.00  0.00     0.042 A 
HETATM    9  C   UNK N   1      28.268  18.859   6.304  0.00  0.00    -0.002 A 
HETATM   10  H   UNK N   1      26.955  20.018   8.964  0.00  0.00     0.165 HD
ENDROOT
BRANCH   3  11
HETATM   11  C   UNK N   1      29.827  16.956   7.091  0.00  0.00     0.043 C 
BRANCH  11  12
HETATM   12  C   UNK N   1      31.250  17.438   6.861  0.00  0.00     0.031 C 
BRANCH  12  13
HETATM   13  C   UNK N   1      32.057  17.218   8.129  0.00  0.00     0.180 C 
BRANCH  13  14
HETATM   14  O   UNK N   1      33.015  18.226   8.269  0.00  0.00    -0.297 OA
BRANCH  14  15
HETATM   15  P   UNK N   1      34.534  17.386   8.407  0.00  0.00     0.390 P 
HETATM   16  O   UNK N   1      35.212  17.713   9.764  0.00  0.00    -0.632 OA
BRANCH  15  17
HETATM   17  O   UNK N   1      34.830  19.096   8.317  0.00  0.00    -0.307 OA
HETATM   18  H   UNK N   1      34.594  19.731   9.011  0.00  0.00     0.222 HD
ENDBRANCH  15  17
BRANCH  15  19
HETATM   19  O   UNK N   1      33.432  16.747   9.587  0.00  0.00    -0.307 OA
HETATM   20  H   UNK N   1      32.718  17.134  10.118  0.00  0.00     0.222 HD
ENDBRANCH  15  19
ENDBRANCH  14  15
ENDBRANCH  13  14
ENDBRANCH  12  13
ENDBRANCH  11  12
ENDBRANCH   3  11
TORSDOF 7
ENDMDL
MODEL 2
REMARK VINA RESULT:      -6.0     15.254     16.803
REMARK  7 active torsions:
REMARK  status: ('A' for Active; 'I' for Inactive)
REMARK    1  A    between atoms: C_3  and  C_12 
REMARK    2  A    between atoms: C_10  and  C_11 
REMARK    3  A    between atoms: C_10  and  O_17 
REMARK    4  A    between atoms: C_11  and  C_12 
REMARK    5  A    between atoms: P_13  and  O_15 
REMARK    6  A    between atoms: P_13  and  O_16 
REMARK    7  A    between atoms: P_13  and  O_17 
ROOT
HETATM    1  N   UNK N   1      26.100  29.235  -3.667  0.00  0.00    -0.365 N 
HETATM    2  C   UNK N   1      25.434  28.062  -3.815  0.00  0.00     0.096 A 
HETATM    3  C   UNK N   1      25.850  27.434  -4.984  0.00  0.00    -0.030 A 
HETATM    4  C   UNK N   1      27.543  28.133  -6.722  0.00  0.00     0.014 A 
HETATM    5  C   UNK N   1      28.448  29.162  -7.033  0.00  0.00     0.001 A 
HETATM    6  C   UNK N   1      28.576  30.281  -6.182  0.00  0.00     0.002 A 
HETATM    7  C   UNK N   1      27.803  30.377  -5.010  0.00  0.00     0.030 A 
HETATM    8  C   UNK N   1      26.922  29.336  -4.729  0.00  0.00     0.042 A 
HETATM    9  C   UNK N   1      26.794  28.255  -5.553  0.00  0.00    -0.002 A 
HETATM   10  H   UNK N   1      26.004  29.881  -2.930  0.00  0.00     0.165 HD
ENDROOT
BRANCH   3  11
HETATM   11  C   UNK N   1      25.316  26.137  -5.507  0.00  0.00     0.043 C 
BRANCH  11  12
HETATM   12  C   UNK N   1      25.907  24.930  -4.798  0.00  0.00     0.031 C 
BRANCH  12  13
HETATM   13  C   UNK N   1      25.917  23.751  -5.757  0.00  0.00     0.180 C 
BRANCH  13  14
HETATM   14  O   UNK N   1      25.355  24.124  -6.982  0.00  0.00    -0.297 OA
BRANCH  14  15
HETATM   15  P   UNK N   1      25.520  22.719  -7.998  0.00  0.00     0.390 P 
HETATM   16  O   UNK N   1      24.127  22.121  -8.325  0.00  0.00    -0.632 OA
BRANCH  15  17
HETATM   17  O   UNK N   1      24.906  22.236  -6.446  0.00  0.00    -0.307 OA
HETATM   18  H   UNK N   1      24.910  21.325  -6.114  0.00  0.00     0.222 HD
ENDBRANCH  15  17
BRANCH  15  19
HETATM   19  O   UNK N   1      24.730  23.975  -8.902  0.00  0.00    -0.307 OA
HETATM   20  H   UNK N   1      25.043  24.662  -9.511  0.00  0.00     0.222 HD
ENDBRANCH  15  19
ENDBRANCH  14  15
ENDBRANCH  13  14
ENDBRANCH  12  13
ENDBRANCH  11  12
ENDBRANCH   3  11
TORSDOF 7
ENDMDL
MODEL 3
REMARK VINA RESULT:      -6.0      9.395     12.058
REMARK  7 active torsions:
REMARK  status: ('A' for Active; 'I' for Inactive)
REMARK    1  A    between atoms: C_3  and  C_12 
REMARK    2  A    between atoms: C_10  and  C_11 
REMARK    3  A    between atoms: C_10  and  O_17 
REMARK    4  A    between atoms: C_11  and  C_12 
REMARK    5  A    between atoms: P_13  and  O_15 
REMARK    6  A    between atoms: P_13  and  O_16 
REMARK    7  A    between atoms: P_13  and  O_17 
ROOT
HETATM    1  N   UNK N   1      35.942  10.275  16.243  0.00  0.00    -0.365 N 
HETATM    2  C   UNK N   1      35.821  10.858  15.024  0.00  0.00     0.096 A 
HETATM    3  C   UNK N   1      35.488  12.200  15.179  0.00  0.00    -0.030 A 
HETATM    4  C   UNK N   1      35.111  13.577  17.261  0.00  0.00     0.014 A 
HETATM    5  C   UNK N   1      35.113  13.485  18.664  0.00  0.00     0.001 A 
HETATM    6  C   UNK N   1      35.401  12.257  19.298  0.00  0.00     0.002 A 
HETATM    7  C   UNK N   1      35.693  11.111  18.534  0.00  0.00     0.030 A 
HETATM    8  C   UNK N   1      35.688  11.241  17.148  0.00  0.00     0.042 A 
HETATM    9  C   UNK N   1      35.407  12.426  16.532  0.00  0.00    -0.002 A 
HETATM   10  H   UNK N   1      36.170   9.335  16.430  0.00  0.00     0.165 HD
ENDROOT
BRANCH   3  11
HETATM   11  C   UNK N   1      35.233  13.163  14.063  0.00  0.00     0.043 C 
BRANCH  11  12
HETATM   12  C   UNK N   1      36.386  14.128  13.844  0.00  0.00     0.031 C 
BRANCH  12  13
HETATM   13  C   UNK N   1      36.026  15.079  12.715  0.00  0.00     0.180 C 
BRANCH  13  14
HETATM   14  O   UNK N   1      35.925  14.377  11.511  0.00  0.00    -0.297 OA
BRANCH  14  15
HETATM   15  P   UNK N   1      35.429  15.565  10.338  0.00  0.00     0.390 P 
HETATM   16  O   UNK N   1      35.207  16.940  11.022  0.00  0.00    -0.632 OA
BRANCH  15  17
HETATM   17  O   UNK N   1      34.122  15.268  11.444  0.00  0.00    -0.307 OA
HETATM   18  H   UNK N   1      33.813  14.386  11.704  0.00  0.00     0.222 HD
ENDBRANCH  15  17
BRANCH  15  19
HETATM   19  O   UNK N   1      37.003  15.992  10.936  0.00  0.00    -0.307 OA
HETATM   20  H   UNK N   1      37.316  16.537  11.675  0.00  0.00     0.222 HD
ENDBRANCH  15  19
ENDBRANCH  14  15
ENDBRANCH  13  14
ENDBRANCH  12  13
ENDBRANCH  11  12
ENDBRANCH   3  11
TORSDOF 7
ENDMDL
MODEL 4
REMARK VINA RESULT:      -6.0      6.920      9.785
REMARK  7 active torsions:
REMARK  status: ('A' for Active; 'I' for Inactive)
REMARK    1  A    between atoms: C_3  and  C_12 
REMARK    2  A    between atoms: C_10  and  C_11 
REMARK    3  A    between atoms: C_10  and  O_17 
REMARK    4  A    between atoms: C_11  and  C_12 
REMARK    5  A    between atoms: P_13  and  O_15 
REMARK    6  A    between atoms: P_13  and  O_16 
REMARK    7  A    between atoms: P_13  and  O_17 
ROOT
HETATM    1  N   UNK N   1      34.501  11.895  12.442  0.00  0.00    -0.365 N 
HETATM    2  C   UNK N   1      34.912  12.694  11.425  0.00  0.00     0.096 A 
HETATM    3  C   UNK N   1      35.732  13.701  11.925  0.00  0.00    -0.030 A 
HETATM    4  C   UNK N   1      36.492  14.192  14.282  0.00  0.00     0.014 A 
HETATM    5  C   UNK N   1      36.379  13.722  15.601  0.00  0.00     0.001 A 
HETATM    6  C   UNK N   1      35.593  12.584  15.889  0.00  0.00     0.002 A 
HETATM    7  C   UNK N   1      34.918  11.906  14.857  0.00  0.00     0.030 A 
HETATM    8  C   UNK N   1      35.058  12.396  13.561  0.00  0.00     0.042 A 
HETATM    9  C   UNK N   1      35.814  13.497  13.282  0.00  0.00    -0.002 A 
HETATM   10  H   UNK N   1      33.914  11.107  12.375  0.00  0.00     0.165 HD
ENDROOT
BRANCH   3  11
HETATM   11  C   UNK N   1      36.349  14.798  11.114  0.00  0.00     0.043 C 
BRANCH  11  12
HETATM   12  C   UNK N   1      35.636  16.128  11.289  0.00  0.00     0.031 C 
BRANCH  12  13
HETATM   13  C   UNK N   1      34.789  16.399  10.057  0.00  0.00     0.180 C 
BRANCH  13  14
HETATM   14  O   UNK N   1      35.226  17.565   9.421  0.00  0.00    -0.297 OA
BRANCH  14  15
HETATM   15  P   UNK N   1      34.003  17.912   8.231  0.00  0.00     0.390 P 
HETATM   16  O   UNK N   1      34.641  18.045   6.822  0.00  0.00    -0.632 OA
BRANCH  15  17
HETATM   17  O   UNK N   1      35.060  19.283   8.385  0.00  0.00    -0.307 OA
HETATM   18  H   UNK N   1      35.865  19.417   7.862  0.00  0.00     0.222 HD
ENDBRANCH  15  17
BRANCH  15  19
HETATM   19  O   UNK N   1      34.655  16.333   7.919  0.00  0.00    -0.307 OA
HETATM   20  H   UNK N   1      35.212  15.963   7.216  0.00  0.00     0.222 HD
ENDBRANCH  15  19
ENDBRANCH  14  15
ENDBRANCH  13  14
ENDBRANCH  12  13
ENDBRANCH  11  12
ENDBRANCH   3  11
TORSDOF 7
ENDMDL
MODEL 5
REMARK VINA RESULT:      -5.9     11.710     13.072
REMARK  7 active torsions:
REMARK  status: ('A' for Active; 'I' for Inactive)
REMARK    1  A    between atoms: C_3  and  C_12 
REMARK    2  A    between atoms: C_10  and  C_11 
REMARK    3  A    between atoms: C_10  and  O_17 
REMARK    4  A    between atoms: C_11  and  C_12 
REMARK    5  A    between atoms: P_13  and  O_15 
REMARK    6  A    between atoms: P_13  and  O_16 
REMARK    7  A    between atoms: P_13  and  O_17 
ROOT
HETATM    1  N   UNK N   1      25.365  24.623  -5.990  0.00  0.00    -0.365 N 
HETATM    2  C   UNK N   1      26.128  23.761  -5.271  0.00  0.00     0.096 A 
HETATM    3  C   UNK N   1      26.687  24.427  -4.185  0.00  0.00    -0.030 A 
HETATM    4  C   UNK N   1      26.483  26.830  -3.438  0.00  0.00     0.014 A 
HETATM    5  C   UNK N   1      25.869  28.047  -3.782  0.00  0.00     0.001 A 
HETATM    6  C   UNK N   1      25.047  28.133  -4.927  0.00  0.00     0.002 A 
HETATM    7  C   UNK N   1      24.829  27.001  -5.734  0.00  0.00     0.030 A 
HETATM    8  C   UNK N   1      25.447  25.811  -5.360  0.00  0.00     0.042 A 
HETATM    9  C   UNK N   1      26.245  25.726  -4.256  0.00  0.00    -0.002 A 
HETATM   10  H   UNK N   1      24.854  24.421  -6.808  0.00  0.00     0.165 HD
ENDROOT
BRANCH   3  11
HETATM   11  C   UNK N   1      27.618  23.819  -3.183  0.00  0.00     0.043 C 
BRANCH  11  12
HETATM   12  C   UNK N   1      29.078  23.955  -3.579  0.00  0.00     0.031 C 
BRANCH  12  13
HETATM   13  C   UNK N   1      29.538  22.656  -4.219  0.00  0.00     0.180 C 
BRANCH  13  14
HETATM   14  O   UNK N   1      30.065  21.802  -3.245  0.00  0.00    -0.297 OA
BRANCH  14  15
HETATM   15  P   UNK N   1      31.769  22.157  -3.211  0.00  0.00     0.390 P 
HETATM   16  O   UNK N   1      32.457  21.396  -2.047  0.00  0.00    -0.632 OA
BRANCH  15  17
HETATM   17  O   UNK N   1      31.018  22.815  -1.790  0.00  0.00    -0.307 OA
HETATM   18  H   UNK N   1      30.109  23.152  -1.756  0.00  0.00     0.222 HD
ENDBRANCH  15  17
BRANCH  15  19
HETATM   19  O   UNK N   1      31.554  20.483  -3.622  0.00  0.00    -0.307 OA
HETATM   20  H   UNK N   1      30.881  19.819  -3.404  0.00  0.00     0.222 HD
ENDBRANCH  15  19
ENDBRANCH  14  15
ENDBRANCH  13  14
ENDBRANCH  12  13
ENDBRANCH  11  12
ENDBRANCH   3  11
TORSDOF 7
ENDMDL
MODEL 6
REMARK VINA RESULT:      -5.9      7.223      8.595
REMARK  7 active torsions:
REMARK  status: ('A' for Active; 'I' for Inactive)
REMARK    1  A    between atoms: C_3  and  C_12 
REMARK    2  A    between atoms: C_10  and  C_11 
REMARK    3  A    between atoms: C_10  and  O_17 
REMARK    4  A    between atoms: C_11  and  C_12 
REMARK    5  A    between atoms: P_13  and  O_15 
REMARK    6  A    between atoms: P_13  and  O_16 
REMARK    7  A    between atoms: P_13  and  O_17 
ROOT
HETATM    1  N   UNK N   1      26.914  20.512   7.099  0.00  0.00    -0.365 N 
HETATM    2  C   UNK N   1      26.334  20.665   5.882  0.00  0.00     0.096 A 
HETATM    3  C   UNK N   1      26.814  19.693   5.011  0.00  0.00    -0.030 A 
HETATM    4  C   UNK N   1      28.484  17.834   5.369  0.00  0.00     0.014 A 
HETATM    5  C   UNK N   1      29.313  17.265   6.351  0.00  0.00     0.001 A 
HETATM    6  C   UNK N   1      29.352  17.810   7.654  0.00  0.00     0.002 A 
HETATM    7  C   UNK N   1      28.559  18.924   7.984  0.00  0.00     0.030 A 
HETATM    8  C   UNK N   1      27.745  19.456   6.988  0.00  0.00     0.042 A 
HETATM    9  C   UNK N   1      27.708  18.934   5.728  0.00  0.00    -0.002 A 
HETATM   10  H   UNK N   1      26.759  21.060   7.902  0.00  0.00     0.165 HD
ENDROOT
BRANCH   3  11
HETATM   11  C   UNK N   1      26.436  19.561   3.568  0.00  0.00     0.043 C 
BRANCH  11  12
HETATM   12  C   UNK N   1      25.405  20.589   3.134  0.00  0.00     0.031 C 
BRANCH  12  13
HETATM   13  C   UNK N   1      24.022  19.965   3.215  0.00  0.00     0.180 C 
BRANCH  13  14
HETATM   14  O   UNK N   1      23.046  20.925   2.932  0.00  0.00    -0.297 OA
BRANCH  14  15
HETATM   15  P   UNK N   1      21.567  20.022   2.757  0.00  0.00     0.390 P 
HETATM   16  O   UNK N   1      20.586  20.362   3.910  0.00  0.00    -0.632 OA
BRANCH  15  17
HETATM   17  O   UNK N   1      22.403  19.482   4.180  0.00  0.00    -0.307 OA
HETATM   18  H   UNK N   1      22.789  20.071   4.847  0.00  0.00     0.222 HD
ENDBRANCH  15  17
BRANCH  15  19
HETATM   19  O   UNK N   1      21.224  21.710   2.528  0.00  0.00    -0.307 OA
HETATM   20  H   UNK N   1      20.440  22.262   2.678  0.00  0.00     0.222 HD
ENDBRANCH  15  19
ENDBRANCH  14  15
ENDBRANCH  13  14
ENDBRANCH  12  13
ENDBRANCH  11  12
ENDBRANCH   3  11
TORSDOF 7
ENDMDL
MODEL 7
REMARK VINA RESULT:      -5.7     10.663     12.925
REMARK  7 active torsions:
REMARK  status: ('A' for Active; 'I' for Inactive)
REMARK    1  A    between atoms: C_3  and  C_12 
REMARK    2  A    between atoms: C_10  and  C_11 
REMARK    3  A    between atoms: C_10  and  O_17 
REMARK    4  A    between atoms: C_11  and  C_12 
REMARK    5  A    between atoms: P_13  and  O_15 
REMARK    6  A    between atoms: P_13  and  O_16 
REMARK    7  A    between atoms: P_13  and  O_17 
ROOT
HETATM    1  N   UNK N   1      35.284  13.511  19.248  0.00  0.00    -0.365 N 
HETATM    2  C   UNK N   1      35.312  14.064  18.009  0.00  0.00     0.096 A 
HETATM    3  C   UNK N   1      35.254  13.061  17.048  0.00  0.00    -0.030 A 
HETATM    4  C   UNK N   1      35.114  10.552  17.287  0.00  0.00     0.014 A 
HETATM    5  C   UNK N   1      35.055   9.534  18.254  0.00  0.00     0.001 A 
HETATM    6  C   UNK N   1      35.079   9.855  19.630  0.00  0.00     0.002 A 
HETATM    7  C   UNK N   1      35.159  11.197  20.047  0.00  0.00     0.030 A 
HETATM    8  C   UNK N   1      35.209  12.178  19.061  0.00  0.00     0.042 A 
HETATM    9  C   UNK N   1      35.189  11.871  17.731  0.00  0.00    -0.002 A 
HETATM   10  H   UNK N   1      35.312  13.986  20.109  0.00  0.00     0.165 HD
ENDROOT
BRANCH   3  11
HETATM   11  C   UNK N   1      35.300  13.277  15.567  0.00  0.00     0.043 C 
BRANCH  11  12
HETATM   12  C   UNK N   1      36.696  13.107  14.992  0.00  0.00     0.031 C 
BRANCH  12  13
HETATM   13  C   UNK N   1      36.618  13.189  13.477  0.00  0.00     0.180 C 
BRANCH  13  14
HETATM   14  O   UNK N   1      35.963  14.363  13.093  0.00  0.00    -0.297 OA
BRANCH  14  15
HETATM   15  P   UNK N   1      35.696  14.190  11.381  0.00  0.00     0.390 P 
HETATM   16  O   UNK N   1      34.722  15.285  10.871  0.00  0.00    -0.632 OA
BRANCH  15  17
HETATM   17  O   UNK N   1      34.218  13.852  12.230  0.00  0.00    -0.307 OA
HETATM   18  H   UNK N   1      33.983  14.225  13.093  0.00  0.00     0.222 HD
ENDBRANCH  15  17
BRANCH  15  19
HETATM   19  O   UNK N   1      36.552  15.674  11.667  0.00  0.00    -0.307 OA
HETATM   20  H   UNK N   1      36.792  16.429  11.108  0.00  0.00     0.222 HD
ENDBRANCH  15  19
ENDBRANCH  14  15
ENDBRANCH  13  14
ENDBRANCH  12  13
ENDBRANCH  11  12
ENDBRANCH   3  11
TORSDOF 7
ENDMDL
MODEL 8
REMARK VINA RESULT:      -5.5     15.678     16.919
REMARK  7 active torsions:
REMARK  status: ('A' for Active; 'I' for Inactive)
REMARK    1  A    between atoms: C_3  and  C_12 
REMARK    2  A    between atoms: C_10  and  C_11 
REMARK    3  A    between atoms: C_10  and  O_17 
REMARK    4  A    between atoms: C_11  and  C_12 
REMARK    5  A    between atoms: P_13  and  O_15 
REMARK    6  A    between atoms: P_13  and  O_16 
REMARK    7  A    between atoms: P_13  and  O_17 
ROOT
HETATM    1  N   UNK N   1      27.810  28.254  -7.128  0.00  0.00    -0.365 N 
HETATM    2  C   UNK N   1      27.063  27.132  -7.283  0.00  0.00     0.096 A 
HETATM    3  C   UNK N   1      26.184  27.005  -6.213  0.00  0.00    -0.030 A 
HETATM    4  C   UNK N   1      25.827  28.468  -4.187  0.00  0.00     0.014 A 
HETATM    5  C   UNK N   1      26.286  29.651  -3.582  0.00  0.00     0.001 A 
HETATM    6  C   UNK N   1      27.313  30.409  -4.185  0.00  0.00     0.002 A 
HETATM    7  C   UNK N   1      27.886  29.992  -5.401  0.00  0.00     0.030 A 
HETATM    8  C   UNK N   1      27.402  28.819  -5.975  0.00  0.00     0.042 A 
HETATM    9  C   UNK N   1      26.412  28.083  -5.392  0.00  0.00    -0.002 A 
HETATM   10  H   UNK N   1      28.510  28.588  -7.735  0.00  0.00     0.165 HD
ENDROOT
BRANCH   3  11
HETATM   11  C   UNK N   1      25.223  25.874  -6.011  0.00  0.00     0.043 C 
BRANCH  11  12
HETATM   12  C   UNK N   1      25.891  24.629  -5.451  0.00  0.00     0.031 C 
BRANCH  12  13
HETATM   13  C   UNK N   1      26.064  23.617  -6.571  0.00  0.00     0.180 C 
BRANCH  13  14
HETATM   14  O   UNK N   1      24.978  22.738  -6.595  0.00  0.00    -0.297 OA
BRANCH  14  15
HETATM   15  P   UNK N   1      25.338  21.614  -7.876  0.00  0.00     0.390 P 
HETATM   16  O   UNK N   1      25.151  22.291  -9.259  0.00  0.00    -0.632 OA
BRANCH  15  17
HETATM   17  O   UNK N   1      23.646  22.006  -7.916  0.00  0.00    -0.307 OA
HETATM   18  H   UNK N   1      23.054  21.963  -7.149  0.00  0.00     0.222 HD
ENDBRANCH  15  17
BRANCH  15  19
HETATM   19  O   UNK N   1      26.532  22.876  -7.886  0.00  0.00    -0.307 OA
HETATM   20  H   UNK N   1      26.839  23.504  -8.558  0.00  0.00     0.222 HD
ENDBRANCH  15  19
ENDBRANCH  14  15
ENDBRANCH  13  14
ENDBRANCH  12  13
ENDBRANCH  11  12
ENDBRANCH   3  11
TORSDOF 7
ENDMDL
MODEL 9
REMARK VINA RESULT:      -5.4     11.412     12.780
REMARK  7 active torsions:
REMARK  status: ('A' for Active; 'I' for Inactive)
REMARK    1  A    between atoms: C_3  and  C_12 
REMARK    2  A    between atoms: C_10  and  C_11 
REMARK    3  A    between atoms: C_10  and  O_17 
REMARK    4  A    between atoms: C_11  and  C_12 
REMARK    5  A    between atoms: P_13  and  O_15 
REMARK    6  A    between atoms: P_13  and  O_16 
REMARK    7  A    between atoms: P_13  and  O_17 
ROOT
HETATM    1  N   UNK N   1      35.285   9.598  18.136  0.00  0.00    -0.365 N 
HETATM    2  C   UNK N   1      35.077   9.297  16.829  0.00  0.00     0.096 A 
HETATM    3  C   UNK N   1      34.899  10.470  16.103  0.00  0.00    -0.030 A 
HETATM    4  C   UNK N   1      34.913  12.885  16.838  0.00  0.00     0.014 A 
HETATM    5  C   UNK N   1      35.073  13.694  17.976  0.00  0.00     0.001 A 
HETATM    6  C   UNK N   1      35.312  13.109  19.240  0.00  0.00     0.002 A 
HETATM    7  C   UNK N   1      35.395  11.711  19.373  0.00  0.00     0.030 A 
HETATM    8  C   UNK N   1      35.238  10.941  18.223  0.00  0.00     0.042 A 
HETATM    9  C   UNK N   1      35.004  11.504  17.002  0.00  0.00    -0.002 A 
HETATM   10  H   UNK N   1      35.440   8.962  18.872  0.00  0.00     0.165 HD
ENDROOT
BRANCH   3  11
HETATM   11  C   UNK N   1      34.609  10.545  14.636  0.00  0.00     0.043 C 
BRANCH  11  12
HETATM   12  C   UNK N   1      35.859  10.412  13.783  0.00  0.00     0.031 C 
BRANCH  12  13
HETATM   13  C   UNK N   1      36.488  11.785  13.613  0.00  0.00     0.180 C 
BRANCH  13  14
HETATM   14  O   UNK N   1      35.501  12.733  13.329  0.00  0.00    -0.297 OA
BRANCH  14  15
HETATM   15  P   UNK N   1      35.820  13.238  11.693  0.00  0.00     0.390 P 
HETATM   16  O   UNK N   1      36.038  14.773  11.633  0.00  0.00    -0.632 OA
BRANCH  15  17
HETATM   17  O   UNK N   1      34.294  13.890  12.208  0.00  0.00    -0.307 OA
HETATM   18  H   UNK N   1      34.190  14.569  12.891  0.00  0.00     0.222 HD
ENDBRANCH  15  17
BRANCH  15  19
HETATM   19  O   UNK N   1      37.249  13.493  12.647  0.00  0.00    -0.307 OA
HETATM   20  H   UNK N   1      37.630  13.046  13.419  0.00  0.00     0.222 HD
ENDBRANCH  15  19
ENDBRANCH  14  15
ENDBRANCH  13  14
ENDBRANCH  12  13
ENDBRANCH  11  12
ENDBRANCH   3  11
TORSDOF 7
ENDMDL
