REMARK  5 active torsions:
REMARK  status: ('A' for Active; 'I' for Inactive)
REMARK    1  A    between atoms: C_1  and  C_8 
REMARK    2  A    between atoms: C_8  and  C_9 
REMARK    3  A    between atoms: C_9  and  N_10 
REMARK    4  A    between atoms: C_9  and  C_11 
REMARK       I    between atoms: C_11  and  N_13 
REMARK    5  A    between atoms: N_13  and  O_14 
ROOT
HETATM    1  C   UNK N   1       1.475   0.247  -0.176  0.00  0.00     0.173 C 
ENDROOT
BRANCH   1   2
HETATM    2  C   UNK N   1       0.121   0.971  -0.068  0.00  0.00     0.072 C 
BRANCH   2   3
HETATM    3  C   UNK N   1      -1.147   0.159  -0.078  0.00  0.00    -0.056 A 
HETATM    4  C   UNK N   1      -1.154  -1.244  -0.133  0.00  0.00     0.008 A 
HETATM    5  C   UNK N   1      -2.363  -1.945  -0.063  0.00  0.00     0.019 A 
HETATM    6  C   UNK N   1      -3.569  -1.249   0.059  0.00  0.00     0.006 A 
HETATM    7  I   UNK N   1      -5.389  -2.294   0.210  0.00  0.00    -0.045 I 
HETATM    8  C   UNK N   1      -3.568   0.147   0.099  0.00  0.00     0.019 A 
HETATM    9  C   UNK N   1      -2.361   0.846   0.033  0.00  0.00     0.008 A 
ENDBRANCH   2   3
ENDBRANCH   1   2
BRANCH   1  10
HETATM   10  N   UNK N   1       1.550  -0.835   0.795  0.00  0.00    -0.418 N 
HETATM   11  H   UNK N   1       0.920  -1.260   1.475  0.00  0.00     0.150 HD
HETATM   12  H   UNK N   1       2.467  -1.282   0.795  0.00  0.00     0.150 HD
ENDBRANCH   1  10
BRANCH   1  13
HETATM   13  C   UNK N   1       2.610   1.216   0.093  0.00  0.00     0.263 C 
HETATM   14  O   UNK N   1       2.368   2.381   0.383  0.00  0.00    -0.269 OA
HETATM   15  N   UNK N   1       3.902   0.817   0.031  0.00  0.00    -0.236 N 
HETATM   16  H   UNK N   1       4.617   1.466   0.218  0.00  0.00     0.197 HD
BRANCH  15  17
HETATM   17  O   UNK N   1       4.227  -0.446  -0.282  0.00  0.00    -0.287 OA
HETATM   18  H   UNK N   1       3.553  -1.107  -0.508  0.00  0.00     0.244 HD
ENDBRANCH  15  17
ENDBRANCH   1  13
TORSDOF 5
