MODEL 1
REMARK VINA RESULT:      -5.6      0.000      0.000
REMARK  5 active torsions:
REMARK  status: ('A' for Active; 'I' for Inactive)
REMARK    1  A    between atoms: C_1  and  C_8 
REMARK    2  A    between atoms: C_8  and  C_9 
REMARK    3  A    between atoms: C_9  and  N_10 
REMARK    4  A    between atoms: C_9  and  C_11 
REMARK       I    between atoms: C_11  and  N_13 
REMARK    5  A    between atoms: N_13  and  O_14 
ROOT
HETATM    1  C   UNK N   1      21.111  19.906   1.429  0.00  0.00     0.173 C 
ENDROOT
BRANCH   1   2
HETATM    2  C   UNK N   1      21.777  20.579   2.642  0.00  0.00     0.072 C 
BRANCH   2   3
HETATM    3  C   UNK N   1      23.100  20.056   3.135  0.00  0.00    -0.056 A 
HETATM    4  C   UNK N   1      23.215  18.920   3.953  0.00  0.00     0.008 A 
HETATM    5  C   UNK N   1      24.477  18.439   4.316  0.00  0.00     0.019 A 
HETATM    6  C   UNK N   1      25.630  19.090   3.868  0.00  0.00     0.006 A 
HETATM    7  I   UNK N   1      27.534  18.350   4.371  0.00  0.00    -0.045 I 
HETATM    8  C   UNK N   1      25.521  20.229   3.067  0.00  0.00     0.019 A 
HETATM    9  C   UNK N   1      24.260  20.707   2.701  0.00  0.00     0.008 A 
ENDBRANCH   2   3
ENDBRANCH   1   2
BRANCH   1  10
HETATM   10  N   UNK N   1      20.367  20.886   0.651  0.00  0.00    -0.418 N 
HETATM   11  H   UNK N   1      19.965  21.808   0.818  0.00  0.00     0.150 HD
HETATM   12  H   UNK N   1      20.206  20.569  -0.305  0.00  0.00     0.150 HD
ENDBRANCH   1  10
BRANCH   1  13
HETATM   13  C   UNK N   1      20.150  18.827   1.891  0.00  0.00     0.263 C 
HETATM   14  O   UNK N   1      19.667  18.874   3.015  0.00  0.00    -0.269 OA
HETATM   15  N   UNK N   1      19.800  17.805   1.075  0.00  0.00    -0.236 N 
HETATM   16  H   UNK N   1      19.169  17.124   1.399  0.00  0.00     0.197 HD
BRANCH  15  17
HETATM   17  O   UNK N   1      20.297  17.701  -0.166  0.00  0.00    -0.287 OA
HETATM   18  H   UNK N   1      21.033  18.256  -0.470  0.00  0.00     0.244 HD
ENDBRANCH  15  17
ENDBRANCH   1  13
TORSDOF 5
ENDMDL
MODEL 2
REMARK VINA RESULT:      -5.5      1.611      2.113
REMARK  5 active torsions:
REMARK  status: ('A' for Active; 'I' for Inactive)
REMARK    1  A    between atoms: C_1  and  C_8 
REMARK    2  A    between atoms: C_8  and  C_9 
REMARK    3  A    between atoms: C_9  and  N_10 
REMARK    4  A    between atoms: C_9  and  C_11 
REMARK       I    between atoms: C_11  and  N_13 
REMARK    5  A    between atoms: N_13  and  O_14 
ROOT
HETATM    1  C   UNK N   1      21.293  20.568   2.534  0.00  0.00     0.173 C 
ENDROOT
BRANCH   1   2
HETATM    2  C   UNK N   1      21.828  19.283   3.193  0.00  0.00     0.072 C 
BRANCH   2   3
HETATM    3  C   UNK N   1      23.257  19.242   3.666  0.00  0.00    -0.056 A 
HETATM    4  C   UNK N   1      23.765  18.209   4.468  0.00  0.00     0.008 A 
HETATM    5  C   UNK N   1      25.121  18.187   4.813  0.00  0.00     0.019 A 
HETATM    6  C   UNK N   1      25.974  19.198   4.360  0.00  0.00     0.006 A 
HETATM    7  I   UNK N   1      28.023  19.152   4.834  0.00  0.00    -0.045 I 
HETATM    8  C   UNK N   1      25.469  20.237   3.574  0.00  0.00     0.019 A 
HETATM    9  C   UNK N   1      24.117  20.255   3.227  0.00  0.00     0.008 A 
ENDBRANCH   2   3
ENDBRANCH   1   2
BRANCH   1  10
HETATM   10  N   UNK N   1      20.187  21.112   3.309  0.00  0.00    -0.418 N 
HETATM   11  H   UNK N   1      19.288  20.772   3.650  0.00  0.00     0.150 HD
HETATM   12  H   UNK N   1      20.354  22.081   3.580  0.00  0.00     0.150 HD
ENDBRANCH   1  10
BRANCH   1  13
HETATM   13  C   UNK N   1      20.799  20.271   1.132  0.00  0.00     0.263 C 
HETATM   14  O   UNK N   1      20.733  19.114   0.736  0.00  0.00    -0.269 OA
HETATM   15  N   UNK N   1      20.414  21.266   0.299  0.00  0.00    -0.236 N 
HETATM   16  H   UNK N   1      20.091  21.043  -0.603  0.00  0.00     0.197 HD
BRANCH  15  17
HETATM   17  O   UNK N   1      20.466  22.551   0.678  0.00  0.00    -0.287 OA
HETATM   18  H   UNK N   1      20.031  22.864   1.488  0.00  0.00     0.244 HD
ENDBRANCH  15  17
ENDBRANCH   1  13
TORSDOF 5
ENDMDL
MODEL 3
REMARK VINA RESULT:      -5.3     18.813     20.323
REMARK  5 active torsions:
REMARK  status: ('A' for Active; 'I' for Inactive)
REMARK    1  A    between atoms: C_1  and  C_8 
REMARK    2  A    between atoms: C_8  and  C_9 
REMARK    3  A    between atoms: C_9  and  N_10 
REMARK    4  A    between atoms: C_9  and  C_11 
REMARK       I    between atoms: C_11  and  N_13 
REMARK    5  A    between atoms: N_13  and  O_14 
ROOT
HETATM    1  C   UNK N   1      36.331  13.477  14.418  0.00  0.00     0.173 C 
ENDROOT
BRANCH   1   2
HETATM    2  C   UNK N   1      35.179  13.332  15.429  0.00  0.00     0.072 C 
BRANCH   2   3
HETATM    3  C   UNK N   1      35.421  12.586  16.714  0.00  0.00    -0.056 A 
HETATM    4  C   UNK N   1      35.120  13.122  17.976  0.00  0.00     0.008 A 
HETATM    5  C   UNK N   1      35.298  12.350  19.129  0.00  0.00     0.019 A 
HETATM    6  C   UNK N   1      35.779  11.041  19.028  0.00  0.00     0.006 A 
HETATM    7  I   UNK N   1      36.008   9.856  20.751  0.00  0.00    -0.045 I 
HETATM    8  C   UNK N   1      36.094  10.509  17.776  0.00  0.00     0.019 A 
HETATM    9  C   UNK N   1      35.913  11.279  16.625  0.00  0.00     0.008 A 
ENDBRANCH   2   3
ENDBRANCH   1   2
BRANCH   1  10
HETATM   10  N   UNK N   1      37.063  14.712  14.657  0.00  0.00    -0.418 N 
HETATM   11  H   UNK N   1      37.982  14.966  15.018  0.00  0.00     0.150 HD
HETATM   12  H   UNK N   1      36.516  15.534  14.398  0.00  0.00     0.150 HD
ENDBRANCH   1  10
BRANCH   1  13
HETATM   13  C   UNK N   1      35.785  13.506  13.003  0.00  0.00     0.263 C 
HETATM   14  O   UNK N   1      34.593  13.708  12.808  0.00  0.00    -0.269 OA
HETATM   15  N   UNK N   1      36.597  13.323  11.935  0.00  0.00    -0.236 N 
HETATM   16  H   UNK N   1      36.216  13.355  11.029  0.00  0.00     0.197 HD
BRANCH  15  17
HETATM   17  O   UNK N   1      37.910  13.098  12.088  0.00  0.00    -0.287 OA
HETATM   18  H   UNK N   1      38.329  13.089  12.964  0.00  0.00     0.244 HD
ENDBRANCH  15  17
ENDBRANCH   1  13
TORSDOF 5
ENDMDL
MODEL 4
REMARK VINA RESULT:      -5.1     16.982     18.603
REMARK  5 active torsions:
REMARK  status: ('A' for Active; 'I' for Inactive)
REMARK    1  A    between atoms: C_1  and  C_8 
REMARK    2  A    between atoms: C_8  and  C_9 
REMARK    3  A    between atoms: C_9  and  N_10 
REMARK    4  A    between atoms: C_9  and  C_11 
REMARK       I    between atoms: C_11  and  N_13 
REMARK    5  A    between atoms: N_13  and  O_14 
ROOT
HETATM    1  C   UNK N   1      34.949  13.624  12.498  0.00  0.00     0.173 C 
ENDROOT
BRANCH   1   2
HETATM    2  C   UNK N   1      36.183  13.317  13.364  0.00  0.00     0.072 C 
BRANCH   2   3
HETATM    3  C   UNK N   1      35.996  12.622  14.687  0.00  0.00    -0.056 A 
HETATM    4  C   UNK N   1      36.627  11.410  15.009  0.00  0.00     0.008 A 
HETATM    5  C   UNK N   1      36.473  10.852  16.282  0.00  0.00     0.019 A 
HETATM    6  C   UNK N   1      35.686  11.499  17.239  0.00  0.00     0.006 A 
HETATM    7  I   UNK N   1      35.482  10.692  19.171  0.00  0.00    -0.045 I 
HETATM    8  C   UNK N   1      35.043  12.697  16.919  0.00  0.00     0.019 A 
HETATM    9  C   UNK N   1      35.201  13.256  15.649  0.00  0.00     0.008 A 
ENDBRANCH   2   3
ENDBRANCH   1   2
BRANCH   1  10
HETATM   10  N   UNK N   1      34.684  12.523  11.584  0.00  0.00    -0.418 N 
HETATM   11  H   UNK N   1      34.083  11.699  11.577  0.00  0.00     0.150 HD
HETATM   12  H   UNK N   1      35.242  12.594  10.733  0.00  0.00     0.150 HD
ENDBRANCH   1  10
BRANCH   1  13
HETATM   13  C   UNK N   1      35.181  14.882  11.684  0.00  0.00     0.263 C 
HETATM   14  O   UNK N   1      36.298  15.380  11.626  0.00  0.00    -0.269 OA
HETATM   15  N   UNK N   1      34.172  15.470  10.999  0.00  0.00    -0.236 N 
HETATM   16  H   UNK N   1      34.354  16.281  10.473  0.00  0.00     0.197 HD
BRANCH  15  17
HETATM   17  O   UNK N   1      32.928  14.970  11.026  0.00  0.00    -0.287 OA
HETATM   18  H   UNK N   1      32.151  15.537  11.161  0.00  0.00     0.244 HD
ENDBRANCH  15  17
ENDBRANCH   1  13
TORSDOF 5
ENDMDL
MODEL 5
REMARK VINA RESULT:      -5.1     12.118     13.288
REMARK  5 active torsions:
REMARK  status: ('A' for Active; 'I' for Inactive)
REMARK    1  A    between atoms: C_1  and  C_8 
REMARK    2  A    between atoms: C_8  and  C_9 
REMARK    3  A    between atoms: C_9  and  N_10 
REMARK    4  A    between atoms: C_9  and  C_11 
REMARK       I    between atoms: C_11  and  N_13 
REMARK    5  A    between atoms: N_13  and  O_14 
ROOT
HETATM    1  C   UNK N   1      33.500  17.265   8.092  0.00  0.00     0.173 C 
ENDROOT
BRANCH   1   2
HETATM    2  C   UNK N   1      33.447  17.761   6.636  0.00  0.00     0.072 C 
BRANCH   2   3
HETATM    3  C   UNK N   1      33.580  16.763   5.517  0.00  0.00    -0.056 A 
HETATM    4  C   UNK N   1      33.030  16.970   4.241  0.00  0.00     0.008 A 
HETATM    5  C   UNK N   1      33.252  16.039   3.220  0.00  0.00     0.019 A 
HETATM    6  C   UNK N   1      34.022  14.899   3.468  0.00  0.00     0.006 A 
HETATM    7  I   UNK N   1      34.400  13.516   1.928  0.00  0.00    -0.045 I 
HETATM    8  C   UNK N   1      34.558  14.682   4.739  0.00  0.00     0.019 A 
HETATM    9  C   UNK N   1      34.339  15.613   5.757  0.00  0.00     0.008 A 
ENDBRANCH   2   3
ENDBRANCH   1   2
BRANCH   1  10
HETATM   10  N   UNK N   1      32.254  17.575   8.779  0.00  0.00    -0.418 N 
HETATM   11  H   UNK N   1      31.702  17.158   9.528  0.00  0.00     0.150 HD
HETATM   12  H   UNK N   1      31.825  18.428   8.419  0.00  0.00     0.150 HD
ENDBRANCH   1  10
BRANCH   1  13
HETATM   13  C   UNK N   1      34.640  17.937   8.833  0.00  0.00     0.263 C 
HETATM   14  O   UNK N   1      35.179  18.930   8.361  0.00  0.00    -0.269 OA
HETATM   15  N   UNK N   1      35.074  17.466  10.026  0.00  0.00    -0.236 N 
HETATM   16  H   UNK N   1      35.811  17.927  10.487  0.00  0.00     0.197 HD
BRANCH  15  17
HETATM   17  O   UNK N   1      34.522  16.382  10.590  0.00  0.00    -0.287 OA
HETATM   18  H   UNK N   1      33.782  15.910  10.176  0.00  0.00     0.244 HD
ENDBRANCH  15  17
ENDBRANCH   1  13
TORSDOF 5
ENDMDL
MODEL 6
REMARK VINA RESULT:      -5.1     15.705     17.370
REMARK  5 active torsions:
REMARK  status: ('A' for Active; 'I' for Inactive)
REMARK    1  A    between atoms: C_1  and  C_8 
REMARK    2  A    between atoms: C_8  and  C_9 
REMARK    3  A    between atoms: C_9  and  N_10 
REMARK    4  A    between atoms: C_9  and  C_11 
REMARK       I    between atoms: C_11  and  N_13 
REMARK    5  A    between atoms: N_13  and  O_14 
ROOT
HETATM    1  C   UNK N   1      36.255  13.785  13.313  0.00  0.00     0.173 C 
ENDROOT
BRANCH   1   2
HETATM    2  C   UNK N   1      35.113  13.519  12.315  0.00  0.00     0.072 C 
BRANCH   2   3
HETATM    3  C   UNK N   1      34.863  14.506  11.206  0.00  0.00    -0.056 A 
HETATM    4  C   UNK N   1      34.040  14.224  10.105  0.00  0.00     0.008 A 
HETATM    5  C   UNK N   1      33.786  15.210   9.145  0.00  0.00     0.019 A 
HETATM    6  C   UNK N   1      34.356  16.480   9.279  0.00  0.00     0.006 A 
HETATM    7  I   UNK N   1      33.946  17.984   7.866  0.00  0.00    -0.045 I 
HETATM    8  C   UNK N   1      35.188  16.760  10.365  0.00  0.00     0.019 A 
HETATM    9  C   UNK N   1      35.437  15.777  11.325  0.00  0.00     0.008 A 
ENDBRANCH   2   3
ENDBRANCH   1   2
BRANCH   1  10
HETATM   10  N   UNK N   1      37.345  12.844  13.098  0.00  0.00    -0.418 N 
HETATM   11  H   UNK N   1      37.436  11.834  12.993  0.00  0.00     0.150 HD
HETATM   12  H   UNK N   1      38.247  13.316  13.039  0.00  0.00     0.150 HD
ENDBRANCH   1  10
BRANCH   1  13
HETATM   13  C   UNK N   1      35.755  13.628  14.736  0.00  0.00     0.263 C 
HETATM   14  O   UNK N   1      34.663  13.117  14.950  0.00  0.00    -0.269 OA
HETATM   15  N   UNK N   1      36.501  14.034  15.790  0.00  0.00    -0.236 N 
HETATM   16  H   UNK N   1      36.154  13.912  16.702  0.00  0.00     0.197 HD
BRANCH  15  17
HETATM   17  O   UNK N   1      37.704  14.600  15.615  0.00  0.00    -0.287 OA
HETATM   18  H   UNK N   1      37.941  15.054  14.790  0.00  0.00     0.244 HD
ENDBRANCH  15  17
ENDBRANCH   1  13
TORSDOF 5
ENDMDL
MODEL 7
REMARK VINA RESULT:      -5.1     11.529     12.304
REMARK  5 active torsions:
REMARK  status: ('A' for Active; 'I' for Inactive)
REMARK    1  A    between atoms: C_1  and  C_8 
REMARK    2  A    between atoms: C_8  and  C_9 
REMARK    3  A    between atoms: C_9  and  N_10 
REMARK    4  A    between atoms: C_9  and  C_11 
REMARK       I    between atoms: C_11  and  N_13 
REMARK    5  A    between atoms: N_13  and  O_14 
ROOT
HETATM    1  C   UNK N   1      25.855  24.228  -7.336  0.00  0.00     0.173 C 
ENDROOT
BRANCH   1   2
HETATM    2  C   UNK N   1      25.933  25.686  -7.823  0.00  0.00     0.072 C 
BRANCH   2   3
HETATM    3  C   UNK N   1      26.090  26.790  -6.812  0.00  0.00    -0.056 A 
HETATM    4  C   UNK N   1      25.212  26.965  -5.730  0.00  0.00     0.008 A 
HETATM    5  C   UNK N   1      25.454  27.964  -4.781  0.00  0.00     0.019 A 
HETATM    6  C   UNK N   1      26.572  28.793  -4.908  0.00  0.00     0.006 A 
HETATM    7  I   UNK N   1      26.971  30.269  -3.462  0.00  0.00    -0.045 I 
HETATM    8  C   UNK N   1      27.440  28.633  -5.990  0.00  0.00     0.019 A 
HETATM    9  C   UNK N   1      27.199  27.634  -6.936  0.00  0.00     0.008 A 
ENDBRANCH   2   3
ENDBRANCH   1   2
BRANCH   1  10
HETATM   10  N   UNK N   1      27.193  23.683  -7.156  0.00  0.00    -0.418 N 
HETATM   11  H   UNK N   1      28.145  24.048  -7.161  0.00  0.00     0.150 HD
HETATM   12  H   UNK N   1      27.172  22.678  -6.980  0.00  0.00     0.150 HD
ENDBRANCH   1  10
BRANCH   1  13
HETATM   13  C   UNK N   1      25.118  23.375  -8.350  0.00  0.00     0.263 C 
HETATM   14  O   UNK N   1      25.070  23.720  -9.524  0.00  0.00    -0.269 OA
HETATM   15  N   UNK N   1      24.514  22.219  -7.987  0.00  0.00    -0.236 N 
HETATM   16  H   UNK N   1      24.050  21.683  -8.668  0.00  0.00     0.197 HD
BRANCH  15  17
HETATM   17  O   UNK N   1      24.535  21.792  -6.716  0.00  0.00    -0.287 OA
HETATM   18  H   UNK N   1      24.040  22.246  -6.015  0.00  0.00     0.244 HD
ENDBRANCH  15  17
ENDBRANCH   1  13
TORSDOF 5
ENDMDL
MODEL 8
REMARK VINA RESULT:      -5.0      9.867     11.429
REMARK  5 active torsions:
REMARK  status: ('A' for Active; 'I' for Inactive)
REMARK    1  A    between atoms: C_1  and  C_8 
REMARK    2  A    between atoms: C_8  and  C_9 
REMARK    3  A    between atoms: C_9  and  N_10 
REMARK    4  A    between atoms: C_9  and  C_11 
REMARK       I    between atoms: C_11  and  N_13 
REMARK    5  A    between atoms: N_13  and  O_14 
ROOT
HETATM    1  C   UNK N   1      32.959  17.625   7.361  0.00  0.00     0.173 C 
ENDROOT
BRANCH   1   2
HETATM    2  C   UNK N   1      31.717  16.723   7.253  0.00  0.00     0.072 C 
BRANCH   2   3
HETATM    3  C   UNK N   1      30.422  17.315   6.764  0.00  0.00    -0.056 A 
HETATM    4  C   UNK N   1      29.458  17.861   7.627  0.00  0.00     0.008 A 
HETATM    5  C   UNK N   1      28.308  18.465   7.106  0.00  0.00     0.019 A 
HETATM    6  C   UNK N   1      28.114  18.523   5.723  0.00  0.00     0.006 A 
HETATM    7  I   UNK N   1      26.411  19.468   4.928  0.00  0.00    -0.045 I 
HETATM    8  C   UNK N   1      29.063  17.968   4.862  0.00  0.00     0.019 A 
HETATM    9  C   UNK N   1      30.212  17.369   5.381  0.00  0.00     0.008 A 
ENDBRANCH   2   3
ENDBRANCH   1   2
BRANCH   1  10
HETATM   10  N   UNK N   1      33.797  17.477   6.179  0.00  0.00    -0.418 N 
HETATM   11  H   UNK N   1      33.645  17.325   5.182  0.00  0.00     0.150 HD
HETATM   12  H   UNK N   1      34.789  17.540   6.407  0.00  0.00     0.150 HD
ENDBRANCH   1  10
BRANCH   1  13
HETATM   13  C   UNK N   1      33.776  17.248   8.582  0.00  0.00     0.263 C 
HETATM   14  O   UNK N   1      33.531  16.214   9.190  0.00  0.00    -0.269 OA
HETATM   15  N   UNK N   1      34.791  18.031   9.015  0.00  0.00    -0.236 N 
HETATM   16  H   UNK N   1      35.309  17.757   9.805  0.00  0.00     0.197 HD
BRANCH  15  17
HETATM   17  O   UNK N   1      35.105  19.175   8.389  0.00  0.00    -0.287 OA
HETATM   18  H   UNK N   1      34.711  20.024   8.645  0.00  0.00     0.244 HD
ENDBRANCH  15  17
ENDBRANCH   1  13
TORSDOF 5
ENDMDL
MODEL 9
REMARK VINA RESULT:      -5.0     11.310     12.960
REMARK  5 active torsions:
REMARK  status: ('A' for Active; 'I' for Inactive)
REMARK    1  A    between atoms: C_1  and  C_8 
REMARK    2  A    between atoms: C_8  and  C_9 
REMARK    3  A    between atoms: C_9  and  N_10 
REMARK    4  A    between atoms: C_9  and  C_11 
REMARK       I    between atoms: C_11  and  N_13 
REMARK    5  A    between atoms: N_13  and  O_14 
ROOT
HETATM    1  C   UNK N   1      34.252  16.895   9.439  0.00  0.00     0.173 C 
ENDROOT
BRANCH   1   2
HETATM    2  C   UNK N   1      34.233  17.449   8.003  0.00  0.00     0.072 C 
BRANCH   2   3
HETATM    3  C   UNK N   1      32.980  17.308   7.180  0.00  0.00    -0.056 A 
HETATM    4  C   UNK N   1      31.705  17.159   7.750  0.00  0.00     0.008 A 
HETATM    5  C   UNK N   1      30.571  17.108   6.932  0.00  0.00     0.019 A 
HETATM    6  C   UNK N   1      30.704  17.202   5.544  0.00  0.00     0.006 A 
HETATM    7  I   UNK N   1      29.002  17.171   4.308  0.00  0.00    -0.045 I 
HETATM    8  C   UNK N   1      31.971  17.334   4.972  0.00  0.00     0.019 A 
HETATM    9  C   UNK N   1      33.103  17.389   5.788  0.00  0.00     0.008 A 
ENDBRANCH   2   3
ENDBRANCH   1   2
BRANCH   1  10
HETATM   10  N   UNK N   1      35.334  17.500  10.202  0.00  0.00    -0.418 N 
HETATM   11  H   UNK N   1      35.441  18.309  10.814  0.00  0.00     0.150 HD
HETATM   12  H   UNK N   1      36.208  16.984  10.097  0.00  0.00     0.150 HD
ENDBRANCH   1  10
BRANCH   1  13
HETATM   13  C   UNK N   1      34.459  15.393   9.418  0.00  0.00     0.263 C 
HETATM   14  O   UNK N   1      35.320  14.901   8.698  0.00  0.00    -0.269 OA
HETATM   15  N   UNK N   1      33.714  14.571  10.193  0.00  0.00    -0.236 N 
HETATM   16  H   UNK N   1      33.876  13.601  10.164  0.00  0.00     0.197 HD
BRANCH  15  17
HETATM   17  O   UNK N   1      32.757  15.053  11.000  0.00  0.00    -0.287 OA
HETATM   18  H   UNK N   1      32.474  15.981  10.962  0.00  0.00     0.244 HD
ENDBRANCH  15  17
ENDBRANCH   1  13
TORSDOF 5
ENDMDL
