REMARK  9 active torsions:
REMARK  status: ('A' for Active; 'I' for Inactive)
REMARK    1  A    between atoms: P_1  and  O_2 
REMARK    2  A    between atoms: P_1  and  O_3 
REMARK    3  A    between atoms: P_1  and  O_5 
REMARK    4  A    between atoms: P_6  and  O_5 
REMARK    5  A    between atoms: P_6  and  O_7 
REMARK    6  A    between atoms: P_6  and  O_9 
REMARK    7  A    between atoms: O_9  and  C_10 
REMARK    8  A    between atoms: C_10  and  C_11 
REMARK    9  A    between atoms: C_11  and  C_12 
ROOT
HETATM    1  P   UNK N   1      -1.016  -0.119  -0.296  0.00  0.00     0.401 P 
HETATM    2  O   UNK N   1      -1.137   1.376   0.110  0.00  0.00    -0.631 OA
ENDROOT
BRANCH   1   3
HETATM    3  O   UNK N   1      -2.582  -0.066   0.469  0.00  0.00    -0.195 OA
BRANCH   3   4
HETATM    4  P   UNK N   1      -3.744  -0.072  -0.828  0.00  0.00     0.399 P 
HETATM    5  O   UNK N   1      -4.098   1.222  -0.046  0.00  0.00    -0.631 OA
BRANCH   4   6
HETATM    6  O   UNK N   1      -5.431  -0.267  -0.468  0.00  0.00    -0.307 OA
HETATM    7  H   UNK N   1      -5.997   0.495  -0.266  0.00  0.00     0.222 HD
ENDBRANCH   4   6
BRANCH   4   8
HETATM    8  O   UNK N   1      -3.995  -1.470   0.172  0.00  0.00    -0.307 OA
HETATM    9  H   UNK N   1      -4.742  -1.739   0.730  0.00  0.00     0.222 HD
ENDBRANCH   4   8
ENDBRANCH   3   4
ENDBRANCH   1   3
BRANCH   1  10
HETATM   10  O   UNK N   1      -1.076  -1.137   1.114  0.00  0.00    -0.307 OA
HETATM   11  H   UNK N   1      -1.583  -1.391   1.900  0.00  0.00     0.222 HD
ENDBRANCH   1  10
BRANCH   1  12
HETATM   12  O   UNK N   1       0.419   0.144   0.659  0.00  0.00    -0.297 OA
BRANCH  12  13
HETATM   13  C   UNK N   1       1.435  -0.579   0.024  0.00  0.00     0.181 C 
BRANCH  13  14
HETATM   14  C   UNK N   1       2.618   0.327  -0.276  0.00  0.00     0.031 C 
BRANCH  14  15
HETATM   15  C   UNK N   1       3.925  -0.334   0.145  0.00  0.00    -0.021 C 
HETATM   16  C   UNK N   1       5.077   0.610  -0.129  0.00  0.00     0.009 C 
HETATM   17  C   UNK N   1       4.159  -1.629  -0.613  0.00  0.00     0.009 C 
ENDBRANCH  14  15
ENDBRANCH  13  14
ENDBRANCH  12  13
ENDBRANCH   1  12
TORSDOF 9
