MODEL 1
REMARK VINA RESULT:      -4.9      0.000      0.000
REMARK  9 active torsions:
REMARK  status: ('A' for Active; 'I' for Inactive)
REMARK    1  A    between atoms: P_1  and  O_2 
REMARK    2  A    between atoms: P_1  and  O_3 
REMARK    3  A    between atoms: P_1  and  O_5 
REMARK    4  A    between atoms: P_6  and  O_5 
REMARK    5  A    between atoms: P_6  and  O_7 
REMARK    6  A    between atoms: P_6  and  O_9 
REMARK    7  A    between atoms: O_9  and  C_10 
REMARK    8  A    between atoms: C_10  and  C_11 
REMARK    9  A    between atoms: C_11  and  C_12 
ROOT
HETATM    1  P   UNK N   1      35.827  13.627  13.251  0.00  0.00     0.401 P 
HETATM    2  O   UNK N   1      36.954  12.633  12.854  0.00  0.00    -0.631 OA
ENDROOT
BRANCH   1   3
HETATM    3  O   UNK N   1      36.316  14.223  11.687  0.00  0.00    -0.195 OA
BRANCH   3   4
HETATM    4  P   UNK N   1      34.883  14.192  10.698  0.00  0.00     0.399 P 
HETATM    5  O   UNK N   1      35.267  15.697  10.711  0.00  0.00    -0.631 OA
BRANCH   4   6
HETATM    6  O   UNK N   1      33.437  14.973  11.258  0.00  0.00    -0.307 OA
HETATM    7  H   UNK N   1      33.474  15.760  11.825  0.00  0.00     0.222 HD
ENDBRANCH   4   6
BRANCH   4   8
HETATM    8  O   UNK N   1      34.484  13.657  12.302  0.00  0.00    -0.307 OA
HETATM    9  H   UNK N   1      33.643  13.381  12.700  0.00  0.00     0.222 HD
ENDBRANCH   4   8
ENDBRANCH   3   4
ENDBRANCH   1   3
BRANCH   1  10
HETATM   10  O   UNK N   1      36.454  15.247  13.350  0.00  0.00    -0.307 OA
HETATM   11  H   UNK N   1      36.253  16.176  13.538  0.00  0.00     0.222 HD
ENDBRANCH   1  10
BRANCH   1  12
HETATM   12  O   UNK N   1      36.931  13.730  14.596  0.00  0.00    -0.297 OA
BRANCH  12  13
HETATM   13  C   UNK N   1      36.481  12.789  15.529  0.00  0.00     0.181 C 
BRANCH  13  14
HETATM   14  C   UNK N   1      35.023  13.044  15.873  0.00  0.00     0.031 C 
BRANCH  14  15
HETATM   15  C   UNK N   1      34.809  13.010  17.381  0.00  0.00    -0.021 C 
HETATM   16  C   UNK N   1      35.445  14.234  18.007  0.00  0.00     0.009 C 
HETATM   17  C   UNK N   1      35.423  11.766  17.999  0.00  0.00     0.009 C 
ENDBRANCH  14  15
ENDBRANCH  13  14
ENDBRANCH  12  13
ENDBRANCH   1  12
TORSDOF 9
ENDMDL
MODEL 2
REMARK VINA RESULT:      -4.8      1.376      2.122
REMARK  9 active torsions:
REMARK  status: ('A' for Active; 'I' for Inactive)
REMARK    1  A    between atoms: P_1  and  O_2 
REMARK    2  A    between atoms: P_1  and  O_3 
REMARK    3  A    between atoms: P_1  and  O_5 
REMARK    4  A    between atoms: P_6  and  O_5 
REMARK    5  A    between atoms: P_6  and  O_7 
REMARK    6  A    between atoms: P_6  and  O_9 
REMARK    7  A    between atoms: O_9  and  C_10 
REMARK    8  A    between atoms: C_10  and  C_11 
REMARK    9  A    between atoms: C_11  and  C_12 
ROOT
HETATM    1  P   UNK N   1      35.278  13.352  11.617  0.00  0.00     0.401 P 
HETATM    2  O   UNK N   1      36.771  13.521  12.013  0.00  0.00    -0.631 OA
ENDROOT
BRANCH   1   3
HETATM    3  O   UNK N   1      35.853  14.493  10.430  0.00  0.00    -0.195 OA
BRANCH   3   4
HETATM    4  P   UNK N   1      35.061  16.000  10.799  0.00  0.00     0.399 P 
HETATM    5  O   UNK N   1      34.802  15.831   9.277  0.00  0.00    -0.631 OA
BRANCH   4   6
HETATM    6  O   UNK N   1      35.669  17.477  10.119  0.00  0.00    -0.307 OA
HETATM    7  H   UNK N   1      36.619  17.677  10.109  0.00  0.00     0.222 HD
ENDBRANCH   4   6
BRANCH   4   8
HETATM    8  O   UNK N   1      36.764  16.157  11.107  0.00  0.00    -0.307 OA
HETATM    9  H   UNK N   1      37.413  15.536  11.474  0.00  0.00     0.222 HD
ENDBRANCH   4   8
ENDBRANCH   3   4
ENDBRANCH   1   3
BRANCH   1  10
HETATM   10  O   UNK N   1      34.444  14.875  11.735  0.00  0.00    -0.307 OA
HETATM   11  H   UNK N   1      33.583  15.317  11.786  0.00  0.00     0.222 HD
ENDBRANCH   1  10
BRANCH   1  12
HETATM   12  O   UNK N   1      35.187  13.825  13.293  0.00  0.00    -0.297 OA
BRANCH  12  13
HETATM   13  C   UNK N   1      36.466  13.607  13.818  0.00  0.00     0.181 C 
BRANCH  13  14
HETATM   14  C   UNK N   1      36.458  13.811  15.325  0.00  0.00     0.031 C 
BRANCH  14  15
HETATM   15  C   UNK N   1      35.476  12.857  15.994  0.00  0.00    -0.021 C 
HETATM   16  C   UNK N   1      35.090  13.404  17.352  0.00  0.00     0.009 C 
HETATM   17  C   UNK N   1      36.082  11.476  16.174  0.00  0.00     0.009 C 
ENDBRANCH  14  15
ENDBRANCH  13  14
ENDBRANCH  12  13
ENDBRANCH   1  12
TORSDOF 9
ENDMDL
MODEL 3
REMARK VINA RESULT:      -4.7     19.875     20.898
REMARK  9 active torsions:
REMARK  status: ('A' for Active; 'I' for Inactive)
REMARK    1  A    between atoms: P_1  and  O_2 
REMARK    2  A    between atoms: P_1  and  O_3 
REMARK    3  A    between atoms: P_1  and  O_5 
REMARK    4  A    between atoms: P_6  and  O_5 
REMARK    5  A    between atoms: P_6  and  O_7 
REMARK    6  A    between atoms: P_6  and  O_9 
REMARK    7  A    between atoms: O_9  and  C_10 
REMARK    8  A    between atoms: C_10  and  C_11 
REMARK    9  A    between atoms: C_11  and  C_12 
ROOT
HETATM    1  P   UNK N   1      30.160  22.822  -2.806  0.00  0.00     0.401 P 
HETATM    2  O   UNK N   1      30.159  23.206  -1.300  0.00  0.00    -0.631 OA
ENDROOT
BRANCH   1   3
HETATM    3  O   UNK N   1      31.509  21.907  -2.187  0.00  0.00    -0.195 OA
BRANCH   3   4
HETATM    4  P   UNK N   1      32.439  21.432  -3.580  0.00  0.00     0.399 P 
HETATM    5  O   UNK N   1      31.125  20.622  -3.744  0.00  0.00    -0.631 OA
BRANCH   4   6
HETATM    6  O   UNK N   1      32.991  19.793  -3.726  0.00  0.00    -0.307 OA
HETATM    7  H   UNK N   1      33.927  19.585  -3.881  0.00  0.00     0.222 HD
ENDBRANCH   4   6
BRANCH   4   8
HETATM    8  O   UNK N   1      33.276  20.942  -2.139  0.00  0.00    -0.307 OA
HETATM    9  H   UNK N   1      33.515  21.428  -1.334  0.00  0.00     0.222 HD
ENDBRANCH   4   8
ENDBRANCH   3   4
ENDBRANCH   1   3
BRANCH   1  10
HETATM   10  O   UNK N   1      31.657  23.300  -3.553  0.00  0.00    -0.307 OA
HETATM   11  H   UNK N   1      32.074  23.835  -4.246  0.00  0.00     0.222 HD
ENDBRANCH   1  10
BRANCH   1  12
HETATM   12  O   UNK N   1      30.246  24.563  -2.847  0.00  0.00    -0.297 OA
BRANCH  12  13
HETATM   13  C   UNK N   1      29.325  24.966  -3.820  0.00  0.00     0.181 C 
BRANCH  13  14
HETATM   14  C   UNK N   1      28.192  23.958  -3.922  0.00  0.00     0.031 C 
BRANCH  14  15
HETATM   15  C   UNK N   1      26.842  24.645  -3.753  0.00  0.00    -0.021 C 
HETATM   16  C   UNK N   1      25.932  24.254  -4.898  0.00  0.00     0.009 C 
HETATM   17  C   UNK N   1      26.989  26.157  -3.734  0.00  0.00     0.009 C 
ENDBRANCH  14  15
ENDBRANCH  13  14
ENDBRANCH  12  13
ENDBRANCH   1  12
TORSDOF 9
ENDMDL
MODEL 4
REMARK VINA RESULT:      -4.6     14.359     15.584
REMARK  9 active torsions:
REMARK  status: ('A' for Active; 'I' for Inactive)
REMARK    1  A    between atoms: P_1  and  O_2 
REMARK    2  A    between atoms: P_1  and  O_3 
REMARK    3  A    between atoms: P_1  and  O_5 
REMARK    4  A    between atoms: P_6  and  O_5 
REMARK    5  A    between atoms: P_6  and  O_7 
REMARK    6  A    between atoms: P_6  and  O_9 
REMARK    7  A    between atoms: O_9  and  C_10 
REMARK    8  A    between atoms: C_10  and  C_11 
REMARK    9  A    between atoms: C_11  and  C_12 
ROOT
HETATM    1  P   UNK N   1      20.653  14.437   9.183  0.00  0.00     0.401 P 
HETATM    2  O   UNK N   1      19.701  13.731  10.189  0.00  0.00    -0.631 OA
ENDROOT
BRANCH   1   3
HETATM    3  O   UNK N   1      19.179  15.352   9.008  0.00  0.00    -0.195 OA
BRANCH   3   4
HETATM    4  P   UNK N   1      19.606  16.767   8.086  0.00  0.00     0.399 P 
HETATM    5  O   UNK N   1      20.876  16.508   8.941  0.00  0.00    -0.631 OA
BRANCH   4   6
HETATM    6  O   UNK N   1      19.858  18.278   8.902  0.00  0.00    -0.307 OA
HETATM    7  H   UNK N   1      20.404  18.337   9.702  0.00  0.00     0.222 HD
ENDBRANCH   4   6
BRANCH   4   8
HETATM    8  O   UNK N   1      18.253  17.138   9.111  0.00  0.00    -0.307 OA
HETATM    9  H   UNK N   1      18.196  17.605   9.960  0.00  0.00     0.222 HD
ENDBRANCH   4   8
ENDBRANCH   3   4
ENDBRANCH   1   3
BRANCH   1  10
HETATM   10  O   UNK N   1      20.017  14.326   7.567  0.00  0.00    -0.307 OA
HETATM   11  H   UNK N   1      19.626  13.746   6.896  0.00  0.00     0.222 HD
ENDBRANCH   1  10
BRANCH   1  12
HETATM   12  O   UNK N   1      20.701  12.773   8.664  0.00  0.00    -0.297 OA
BRANCH  12  13
HETATM   13  C   UNK N   1      22.055  12.474   8.475  0.00  0.00     0.181 C 
BRANCH  13  14
HETATM   14  C   UNK N   1      22.887  13.065   9.601  0.00  0.00     0.031 C 
BRANCH  14  15
HETATM   15  C   UNK N   1      23.354  11.975  10.558  0.00  0.00    -0.021 C 
HETATM   16  C   UNK N   1      22.530  12.032  11.827  0.00  0.00     0.009 C 
HETATM   17  C   UNK N   1      24.820  12.144  10.916  0.00  0.00     0.009 C 
ENDBRANCH  14  15
ENDBRANCH  13  14
ENDBRANCH  12  13
ENDBRANCH   1  12
TORSDOF 9
ENDMDL
MODEL 5
REMARK VINA RESULT:      -4.5      2.353      3.557
REMARK  9 active torsions:
REMARK  status: ('A' for Active; 'I' for Inactive)
REMARK    1  A    between atoms: P_1  and  O_2 
REMARK    2  A    between atoms: P_1  and  O_3 
REMARK    3  A    between atoms: P_1  and  O_5 
REMARK    4  A    between atoms: P_6  and  O_5 
REMARK    5  A    between atoms: P_6  and  O_7 
REMARK    6  A    between atoms: P_6  and  O_9 
REMARK    7  A    between atoms: O_9  and  C_10 
REMARK    8  A    between atoms: C_10  and  C_11 
REMARK    9  A    between atoms: C_11  and  C_12 
ROOT
HETATM    1  P   UNK N   1      35.464  15.940  10.990  0.00  0.00     0.401 P 
HETATM    2  O   UNK N   1      34.341  14.914  10.671  0.00  0.00    -0.631 OA
ENDROOT
BRANCH   1   3
HETATM    3  O   UNK N   1      35.384  16.002   9.249  0.00  0.00    -0.195 OA
BRANCH   3   4
HETATM    4  P   UNK N   1      34.318  17.326   8.870  0.00  0.00     0.399 P 
HETATM    5  O   UNK N   1      34.974  17.001   7.500  0.00  0.00    -0.631 OA
BRANCH   4   6
HETATM    6  O   UNK N   1      34.984  18.849   8.371  0.00  0.00    -0.307 OA
HETATM    7  H   UNK N   1      34.688  19.685   8.764  0.00  0.00     0.222 HD
ENDBRANCH   4   6
BRANCH   4   8
HETATM    8  O   UNK N   1      35.519  17.865  10.003  0.00  0.00    -0.307 OA
HETATM    9  H   UNK N   1      36.487  17.905   9.948  0.00  0.00     0.222 HD
ENDBRANCH   4   8
ENDBRANCH   3   4
ENDBRANCH   1   3
BRANCH   1  10
HETATM   10  O   UNK N   1      36.964  15.443  10.261  0.00  0.00    -0.307 OA
HETATM   11  H   UNK N   1      37.670  14.780  10.249  0.00  0.00     0.222 HD
ENDBRANCH   1  10
BRANCH   1  12
HETATM   12  O   UNK N   1      36.027  14.489  11.775  0.00  0.00    -0.297 OA
BRANCH  12  13
HETATM   13  C   UNK N   1      36.264  14.846  13.107  0.00  0.00     0.181 C 
BRANCH  13  14
HETATM   14  C   UNK N   1      35.712  13.785  14.044  0.00  0.00     0.031 C 
BRANCH  14  15
HETATM   15  C   UNK N   1      36.586  13.651  15.285  0.00  0.00    -0.021 C 
HETATM   16  C   UNK N   1      35.750  13.135  16.437  0.00  0.00     0.009 C 
HETATM   17  C   UNK N   1      37.195  14.986  15.679  0.00  0.00     0.009 C 
ENDBRANCH  14  15
ENDBRANCH  13  14
ENDBRANCH  12  13
ENDBRANCH   1  12
TORSDOF 9
ENDMDL
MODEL 6
REMARK VINA RESULT:      -4.5     20.751     22.384
REMARK  9 active torsions:
REMARK  status: ('A' for Active; 'I' for Inactive)
REMARK    1  A    between atoms: P_1  and  O_2 
REMARK    2  A    between atoms: P_1  and  O_3 
REMARK    3  A    between atoms: P_1  and  O_5 
REMARK    4  A    between atoms: P_6  and  O_5 
REMARK    5  A    between atoms: P_6  and  O_7 
REMARK    6  A    between atoms: P_6  and  O_9 
REMARK    7  A    between atoms: O_9  and  C_10 
REMARK    8  A    between atoms: C_10  and  C_11 
REMARK    9  A    between atoms: C_11  and  C_12 
ROOT
HETATM    1  P   UNK N   1      28.866  24.046  -3.569  0.00  0.00     0.401 P 
HETATM    2  O   UNK N   1      28.701  23.210  -4.868  0.00  0.00    -0.631 OA
ENDROOT
BRANCH   1   3
HETATM    3  O   UNK N   1      29.390  22.463  -3.061  0.00  0.00    -0.195 OA
BRANCH   3   4
HETATM    4  P   UNK N   1      31.122  22.457  -3.240  0.00  0.00     0.399 P 
HETATM    5  O   UNK N   1      30.737  20.975  -3.503  0.00  0.00    -0.631 OA
BRANCH   4   6
HETATM    6  O   UNK N   1      32.099  21.578  -2.105  0.00  0.00    -0.307 OA
HETATM    7  H   UNK N   1      32.229  21.896  -1.197  0.00  0.00     0.222 HD
ENDBRANCH   4   6
BRANCH   4   8
HETATM    8  O   UNK N   1      30.716  22.906  -1.612  0.00  0.00    -0.307 OA
HETATM    9  H   UNK N   1      30.408  22.382  -0.855  0.00  0.00     0.222 HD
ENDBRANCH   4   8
ENDBRANCH   3   4
ENDBRANCH   1   3
BRANCH   1  10
HETATM   10  O   UNK N   1      27.853  23.409  -2.305  0.00  0.00    -0.307 OA
HETATM   11  H   UNK N   1      27.003  22.997  -2.088  0.00  0.00     0.222 HD
ENDBRANCH   1  10
BRANCH   1  12
HETATM   12  O   UNK N   1      27.194  24.306  -3.991  0.00  0.00    -0.297 OA
BRANCH  12  13
HETATM   13  C   UNK N   1      26.942  25.657  -3.729  0.00  0.00     0.181 C 
BRANCH  13  14
HETATM   14  C   UNK N   1      27.091  26.478  -5.000  0.00  0.00     0.031 C 
BRANCH  14  15
HETATM   15  C   UNK N   1      26.019  27.558  -5.074  0.00  0.00    -0.021 C 
HETATM   16  C   UNK N   1      25.703  28.049  -3.676  0.00  0.00     0.009 C 
HETATM   17  C   UNK N   1      24.744  27.031  -5.710  0.00  0.00     0.009 C 
ENDBRANCH  14  15
ENDBRANCH  13  14
ENDBRANCH  12  13
ENDBRANCH   1  12
TORSDOF 9
ENDMDL
MODEL 7
REMARK VINA RESULT:      -4.5      1.276      2.097
REMARK  9 active torsions:
REMARK  status: ('A' for Active; 'I' for Inactive)
REMARK    1  A    between atoms: P_1  and  O_2 
REMARK    2  A    between atoms: P_1  and  O_3 
REMARK    3  A    between atoms: P_1  and  O_5 
REMARK    4  A    between atoms: P_6  and  O_5 
REMARK    5  A    between atoms: P_6  and  O_7 
REMARK    6  A    between atoms: P_6  and  O_9 
REMARK    7  A    between atoms: O_9  and  C_10 
REMARK    8  A    between atoms: C_10  and  C_11 
REMARK    9  A    between atoms: C_11  and  C_12 
ROOT
HETATM    1  P   UNK N   1      36.187  14.058  13.424  0.00  0.00     0.401 P 
HETATM    2  O   UNK N   1      34.776  13.408  13.468  0.00  0.00    -0.631 OA
ENDROOT
BRANCH   1   3
HETATM    3  O   UNK N   1      35.956  13.557  11.770  0.00  0.00    -0.195 OA
BRANCH   3   4
HETATM    4  P   UNK N   1      35.848  15.026  10.841  0.00  0.00     0.399 P 
HETATM    5  O   UNK N   1      36.982  14.241  10.126  0.00  0.00    -0.631 OA
BRANCH   4   6
HETATM    6  O   UNK N   1      37.177  16.143  10.844  0.00  0.00    -0.307 OA
HETATM    7  H   UNK N   1      37.049  17.081  11.058  0.00  0.00     0.222 HD
ENDBRANCH   4   6
BRANCH   4   8
HETATM    8  O   UNK N   1      36.314  15.412  12.469  0.00  0.00    -0.307 OA
HETATM    9  H   UNK N   1      36.094  14.998  13.319  0.00  0.00     0.222 HD
ENDBRANCH   4   8
ENDBRANCH   3   4
ENDBRANCH   1   3
BRANCH   1  10
HETATM   10  O   UNK N   1      37.379  12.887  12.936  0.00  0.00    -0.307 OA
HETATM   11  H   UNK N   1      37.533  12.015  12.543  0.00  0.00     0.222 HD
ENDBRANCH   1  10
BRANCH   1  12
HETATM   12  O   UNK N   1      36.350  12.853  14.674  0.00  0.00    -0.297 OA
BRANCH  12  13
HETATM   13  C   UNK N   1      35.288  13.078  15.558  0.00  0.00     0.181 C 
BRANCH  13  14
HETATM   14  C   UNK N   1      35.160  11.919  16.533  0.00  0.00     0.031 C 
BRANCH  14  15
HETATM   15  C   UNK N   1      35.625  12.331  17.925  0.00  0.00    -0.021 C 
HETATM   16  C   UNK N   1      35.224  11.266  18.925  0.00  0.00     0.009 C 
HETATM   17  C   UNK N   1      35.010  13.655  18.344  0.00  0.00     0.009 C 
ENDBRANCH  14  15
ENDBRANCH  13  14
ENDBRANCH  12  13
ENDBRANCH   1  12
TORSDOF 9
ENDMDL
MODEL 8
REMARK VINA RESULT:      -4.4      1.474      2.665
REMARK  9 active torsions:
REMARK  status: ('A' for Active; 'I' for Inactive)
REMARK    1  A    between atoms: P_1  and  O_2 
REMARK    2  A    between atoms: P_1  and  O_3 
REMARK    3  A    between atoms: P_1  and  O_5 
REMARK    4  A    between atoms: P_6  and  O_5 
REMARK    5  A    between atoms: P_6  and  O_7 
REMARK    6  A    between atoms: P_6  and  O_9 
REMARK    7  A    between atoms: O_9  and  C_10 
REMARK    8  A    between atoms: C_10  and  C_11 
REMARK    9  A    between atoms: C_11  and  C_12 
ROOT
HETATM    1  P   UNK N   1      36.057  13.648  13.078  0.00  0.00     0.401 P 
HETATM    2  O   UNK N   1      36.370  14.851  14.011  0.00  0.00    -0.631 OA
ENDROOT
BRANCH   1   3
HETATM    3  O   UNK N   1      35.897  15.009  11.999  0.00  0.00    -0.195 OA
BRANCH   3   4
HETATM    4  P   UNK N   1      36.534  14.478  10.468  0.00  0.00     0.399 P 
HETATM    5  O   UNK N   1      37.170  13.483  11.476  0.00  0.00    -0.631 OA
BRANCH   4   6
HETATM    6  O   UNK N   1      38.235  14.616  10.151  0.00  0.00    -0.307 OA
HETATM    7  H   UNK N   1      38.841  13.873  10.305  0.00  0.00     0.222 HD
ENDBRANCH   4   6
BRANCH   4   8
HETATM    8  O   UNK N   1      37.083  16.095  10.786  0.00  0.00    -0.307 OA
HETATM    9  H   UNK N   1      37.973  16.480  10.819  0.00  0.00     0.222 HD
ENDBRANCH   4   8
ENDBRANCH   3   4
ENDBRANCH   1   3
BRANCH   1  10
HETATM   10  O   UNK N   1      34.441  13.778  12.443  0.00  0.00    -0.307 OA
HETATM   11  H   UNK N   1      33.606  14.269  12.469  0.00  0.00     0.222 HD
ENDBRANCH   1  10
BRANCH   1  12
HETATM   12  O   UNK N   1      34.914  13.442  14.379  0.00  0.00    -0.297 OA
BRANCH  12  13
HETATM   13  C   UNK N   1      35.193  12.187  14.933  0.00  0.00     0.181 C 
BRANCH  13  14
HETATM   14  C   UNK N   1      35.764  12.345  16.333  0.00  0.00     0.031 C 
BRANCH  14  15
HETATM   15  C   UNK N   1      35.730  11.018  17.082  0.00  0.00    -0.021 C 
HETATM   16  C   UNK N   1      34.735  10.090  16.417  0.00  0.00     0.009 C 
HETATM   17  C   UNK N   1      35.326  11.213  18.533  0.00  0.00     0.009 C 
ENDBRANCH  14  15
ENDBRANCH  13  14
ENDBRANCH  12  13
ENDBRANCH   1  12
TORSDOF 9
ENDMDL
MODEL 9
REMARK VINA RESULT:      -4.4     14.646     16.227
REMARK  9 active torsions:
REMARK  status: ('A' for Active; 'I' for Inactive)
REMARK    1  A    between atoms: P_1  and  O_2 
REMARK    2  A    between atoms: P_1  and  O_3 
REMARK    3  A    between atoms: P_1  and  O_5 
REMARK    4  A    between atoms: P_6  and  O_5 
REMARK    5  A    between atoms: P_6  and  O_7 
REMARK    6  A    between atoms: P_6  and  O_9 
REMARK    7  A    between atoms: O_9  and  C_10 
REMARK    8  A    between atoms: C_10  and  C_11 
REMARK    9  A    between atoms: C_11  and  C_12 
ROOT
HETATM    1  P   UNK N   1      20.566  14.797   7.466  0.00  0.00     0.401 P 
HETATM    2  O   UNK N   1      21.646  15.903   7.309  0.00  0.00    -0.631 OA
ENDROOT
BRANCH   1   3
HETATM    3  O   UNK N   1      19.679  16.075   6.679  0.00  0.00    -0.195 OA
BRANCH   3   4
HETATM    4  P   UNK N   1      19.187  15.431   5.137  0.00  0.00     0.399 P 
HETATM    5  O   UNK N   1      17.854  15.950   5.742  0.00  0.00    -0.631 OA
BRANCH   4   6
HETATM    6  O   UNK N   1      18.149  14.041   5.080  0.00  0.00    -0.307 OA
HETATM    7  H   UNK N   1      17.377  13.961   5.662  0.00  0.00     0.222 HD
ENDBRANCH   4   6
BRANCH   4   8
HETATM    8  O   UNK N   1      19.834  14.148   6.113  0.00  0.00    -0.307 OA
HETATM    9  H   UNK N   1      20.524  14.141   6.796  0.00  0.00     0.222 HD
ENDBRANCH   4   8
ENDBRANCH   3   4
ENDBRANCH   1   3
BRANCH   1  10
HETATM   10  O   UNK N   1      19.252  15.368   8.453  0.00  0.00    -0.307 OA
HETATM   11  H   UNK N   1      18.500  15.118   9.011  0.00  0.00     0.222 HD
ENDBRANCH   1  10
BRANCH   1  12
HETATM   12  O   UNK N   1      21.135  15.021   9.098  0.00  0.00    -0.297 OA
BRANCH  12  13
HETATM   13  C   UNK N   1      20.639  13.934   9.826  0.00  0.00     0.181 C 
BRANCH  13  14
HETATM   14  C   UNK N   1      21.528  12.717   9.629  0.00  0.00     0.031 C 
BRANCH  14  15
HETATM   15  C   UNK N   1      22.829  12.867  10.408  0.00  0.00    -0.021 C 
HETATM   16  C   UNK N   1      23.992  12.459   9.528  0.00  0.00     0.009 C 
HETATM   17  C   UNK N   1      22.829  12.002  11.656  0.00  0.00     0.009 C 
ENDBRANCH  14  15
ENDBRANCH  13  14
ENDBRANCH  12  13
ENDBRANCH   1  12
TORSDOF 9
ENDMDL
