MODEL 1
REMARK VINA RESULT:      -7.7      0.000      0.000
REMARK  3 active torsions:
REMARK  status: ('A' for Active; 'I' for Inactive)
REMARK    1  A    between atoms: O_1  and  C_2 
REMARK    2  A    between atoms: C_2  and  C_4 
REMARK    3  A    between atoms: C_4  and  C_5 
ROOT
HETATM    1  C   UNK N   1      20.238  16.603   8.183  0.00  0.00     0.009 A 
HETATM    2  C   UNK N   1      20.678  15.375   8.638  0.00  0.00     0.123 A 
HETATM    3  N   UNK N   1      20.124  14.637   9.632  0.00  0.00    -0.308 N 
HETATM    4  C   UNK N   1      20.685  13.431   9.969  0.00  0.00     0.259 A 
HETATM    5  O   UNK N   1      20.188  12.767  10.863  0.00  0.00    -0.267 OA
HETATM    6  C   UNK N   1      21.830  12.970   9.280  0.00  0.00     0.059 A 
HETATM    7  C   UNK N   1      22.433  11.746   9.595  0.00  0.00     0.019 A 
HETATM    8  C   UNK N   1      23.565  11.322   8.893  0.00  0.00     0.001 A 
HETATM    9  C   UNK N   1      24.100  12.117   7.875  0.00  0.00     0.002 A 
HETATM   10  C   UNK N   1      23.509  13.339   7.552  0.00  0.00     0.031 A 
HETATM   11  C   UNK N   1      22.374  13.774   8.249  0.00  0.00     0.057 A 
HETATM   12  N   UNK N   1      21.768  14.959   7.966  0.00  0.00    -0.295 N 
HETATM   13  C   UNK N   1      22.050  15.918   7.060  0.00  0.00     0.052 A 
HETATM   14  C   UNK N   1      21.134  16.948   7.158  0.00  0.00     0.002 A 
HETATM   15  C   UNK N   1      21.225  18.058   6.317  0.00  0.00     0.014 A 
HETATM   16  C   UNK N   1      22.266  18.103   5.372  0.00  0.00     0.001 A 
HETATM   17  C   UNK N   1      23.196  17.047   5.280  0.00  0.00     0.002 A 
HETATM   18  C   UNK N   1      23.092  15.937   6.132  0.00  0.00     0.031 A 
HETATM   19  H   UNK N   1      19.326  14.964  10.108  0.00  0.00     0.170 HD
ENDROOT
BRANCH   1  20
HETATM   20  C   UNK N   1      19.026  17.267   8.792  0.00  0.00     0.153 C 
BRANCH  20  21
HETATM   21  C   UNK N   1      19.131  18.493   9.644  0.00  0.00     0.143 C 
HETATM   22  O   UNK N   1      20.151  19.152   9.700  0.00  0.00    -0.650 OA
BRANCH  21  23
HETATM   23  O   UNK N   1      18.060  18.870  10.364  0.00  0.00    -0.776 OA
HETATM   24  H   UNK N   1      17.968  19.762  10.635  0.00  0.00     0.167 HD
ENDBRANCH  21  23
ENDBRANCH  20  21
ENDBRANCH   1  20
TORSDOF 3
ENDMDL
MODEL 2
REMARK VINA RESULT:      -7.4     16.026     17.064
REMARK  3 active torsions:
REMARK  status: ('A' for Active; 'I' for Inactive)
REMARK    1  A    between atoms: O_1  and  C_2 
REMARK    2  A    between atoms: C_2  and  C_4 
REMARK    3  A    between atoms: C_4  and  C_5 
ROOT
HETATM    1  C   UNK N   1      27.150  24.707  -4.339  0.00  0.00     0.009 A 
HETATM    2  C   UNK N   1      28.210  23.891  -3.991  0.00  0.00     0.123 A 
HETATM    3  N   UNK N   1      28.851  23.868  -2.798  0.00  0.00    -0.308 N 
HETATM    4  C   UNK N   1      29.893  22.994  -2.609  0.00  0.00     0.259 A 
HETATM    5  O   UNK N   1      30.472  22.973  -1.536  0.00  0.00    -0.267 OA
HETATM    6  C   UNK N   1      30.286  22.132  -3.657  0.00  0.00     0.059 A 
HETATM    7  C   UNK N   1      31.345  21.228  -3.505  0.00  0.00     0.019 A 
HETATM    8  C   UNK N   1      31.707  20.389  -4.564  0.00  0.00     0.001 A 
HETATM    9  C   UNK N   1      31.015  20.448  -5.777  0.00  0.00     0.002 A 
HETATM   10  C   UNK N   1      29.958  21.346  -5.941  0.00  0.00     0.031 A 
HETATM   11  C   UNK N   1      29.587  22.191  -4.887  0.00  0.00     0.057 A 
HETATM   12  N   UNK N   1      28.563  23.079  -5.005  0.00  0.00    -0.295 N 
HETATM   13  C   UNK N   1      27.732  23.359  -6.030  0.00  0.00     0.052 A 
HETATM   14  C   UNK N   1      26.846  24.355  -5.664  0.00  0.00     0.002 A 
HETATM   15  C   UNK N   1      25.885  24.814  -6.566  0.00  0.00     0.014 A 
HETATM   16  C   UNK N   1      25.841  24.242  -7.851  0.00  0.00     0.001 A 
HETATM   17  C   UNK N   1      26.749  23.227  -8.215  0.00  0.00     0.002 A 
HETATM   18  C   UNK N   1      27.710  22.775  -7.297  0.00  0.00     0.031 A 
HETATM   19  H   UNK N   1      28.572  24.472  -2.071  0.00  0.00     0.170 HD
ENDROOT
BRANCH   1  20
HETATM   20  C   UNK N   1      26.582  25.702  -3.356  0.00  0.00     0.153 C 
BRANCH  20  21
HETATM   21  C   UNK N   1      26.420  27.152  -3.690  0.00  0.00     0.143 C 
HETATM   22  O   UNK N   1      27.108  27.699  -4.530  0.00  0.00    -0.650 OA
BRANCH  21  23
HETATM   23  O   UNK N   1      25.481  27.862  -3.039  0.00  0.00    -0.776 OA
HETATM   24  H   UNK N   1      25.079  28.598  -3.456  0.00  0.00     0.167 HD
ENDBRANCH  21  23
ENDBRANCH  20  21
ENDBRANCH   1  20
TORSDOF 3
ENDMDL
MODEL 3
REMARK VINA RESULT:      -7.4      4.320      6.117
REMARK  3 active torsions:
REMARK  status: ('A' for Active; 'I' for Inactive)
REMARK    1  A    between atoms: O_1  and  C_2 
REMARK    2  A    between atoms: C_2  and  C_4 
REMARK    3  A    between atoms: C_4  and  C_5 
ROOT
HETATM    1  C   UNK N   1      22.283  19.701   3.110  0.00  0.00     0.009 A 
HETATM    2  C   UNK N   1      21.815  18.587   3.782  0.00  0.00     0.123 A 
HETATM    3  N   UNK N   1      20.534  18.147   3.817  0.00  0.00    -0.308 N 
HETATM    4  C   UNK N   1      20.228  17.018   4.535  0.00  0.00     0.259 A 
HETATM    5  O   UNK N   1      19.075  16.621   4.569  0.00  0.00    -0.267 OA
HETATM    6  C   UNK N   1      21.248  16.329   5.229  0.00  0.00     0.059 A 
HETATM    7  C   UNK N   1      20.977  15.174   5.975  0.00  0.00     0.019 A 
HETATM    8  C   UNK N   1      22.011  14.518   6.649  0.00  0.00     0.001 A 
HETATM    9  C   UNK N   1      23.318  15.009   6.583  0.00  0.00     0.002 A 
HETATM   10  C   UNK N   1      23.600  16.159   5.844  0.00  0.00     0.031 A 
HETATM   11  C   UNK N   1      22.572  16.825   5.164  0.00  0.00     0.057 A 
HETATM   12  N   UNK N   1      22.805  17.949   4.433  0.00  0.00    -0.295 N 
HETATM   13  C   UNK N   1      23.936  18.644   4.190  0.00  0.00     0.052 A 
HETATM   14  C   UNK N   1      23.661  19.730   3.380  0.00  0.00     0.002 A 
HETATM   15  C   UNK N   1      24.681  20.600   2.994  0.00  0.00     0.014 A 
HETATM   16  C   UNK N   1      25.990  20.347   3.446  0.00  0.00     0.001 A 
HETATM   17  C   UNK N   1      26.260  19.236   4.272  0.00  0.00     0.002 A 
HETATM   18  C   UNK N   1      25.224  18.369   4.652  0.00  0.00     0.031 A 
HETATM   19  H   UNK N   1      19.827  18.632   3.331  0.00  0.00     0.170 HD
ENDROOT
BRANCH   1  20
HETATM   20  C   UNK N   1      21.348  20.574   2.309  0.00  0.00     0.153 C 
BRANCH  20  21
HETATM   21  C   UNK N   1      20.982  20.263   0.892  0.00  0.00     0.143 C 
HETATM   22  O   UNK N   1      21.225  21.032  -0.019  0.00  0.00    -0.650 OA
BRANCH  21  23
HETATM   23  O   UNK N   1      20.369  19.096   0.625  0.00  0.00    -0.776 OA
HETATM   24  H   UNK N   1      20.518  18.353   1.176  0.00  0.00     0.167 HD
ENDBRANCH  21  23
ENDBRANCH  20  21
ENDBRANCH   1  20
TORSDOF 3
ENDMDL
MODEL 4
REMARK VINA RESULT:      -7.4      5.427      7.752
REMARK  3 active torsions:
REMARK  status: ('A' for Active; 'I' for Inactive)
REMARK    1  A    between atoms: O_1  and  C_2 
REMARK    2  A    between atoms: C_2  and  C_4 
REMARK    3  A    between atoms: C_4  and  C_5 
ROOT
HETATM    1  C   UNK N   1      21.982  19.422   3.364  0.00  0.00     0.009 A 
HETATM    2  C   UNK N   1      23.353  19.595   3.387  0.00  0.00     0.123 A 
HETATM    3  N   UNK N   1      24.059  20.534   2.711  0.00  0.00    -0.308 N 
HETATM    4  C   UNK N   1      25.425  20.574   2.840  0.00  0.00     0.259 A 
HETATM    5  O   UNK N   1      26.061  21.418   2.232  0.00  0.00    -0.267 OA
HETATM    6  C   UNK N   1      26.080  19.639   3.673  0.00  0.00     0.059 A 
HETATM    7  C   UNK N   1      27.471  19.644   3.831  0.00  0.00     0.019 A 
HETATM    8  C   UNK N   1      28.086  18.704   4.663  0.00  0.00     0.001 A 
HETATM    9  C   UNK N   1      27.316  17.754   5.341  0.00  0.00     0.002 A 
HETATM   10  C   UNK N   1      25.928  17.738   5.192  0.00  0.00     0.031 A 
HETATM   11  C   UNK N   1      25.301  18.675   4.360  0.00  0.00     0.057 A 
HETATM   12  N   UNK N   1      23.953  18.694   4.187  0.00  0.00    -0.295 N 
HETATM   13  C   UNK N   1      22.972  17.919   4.697  0.00  0.00     0.052 A 
HETATM   14  C   UNK N   1      21.743  18.332   4.216  0.00  0.00     0.002 A 
HETATM   15  C   UNK N   1      20.574  17.677   4.606  0.00  0.00     0.014 A 
HETATM   16  C   UNK N   1      20.676  16.591   5.496  0.00  0.00     0.001 A 
HETATM   17  C   UNK N   1      21.935  16.177   5.980  0.00  0.00     0.002 A 
HETATM   18  C   UNK N   1      23.101  16.846   5.579  0.00  0.00     0.031 A 
HETATM   19  H   UNK N   1      23.596  21.183   2.132  0.00  0.00     0.170 HD
ENDROOT
BRANCH   1  20
HETATM   20  C   UNK N   1      21.101  20.321   2.531  0.00  0.00     0.153 C 
BRANCH  20  21
HETATM   21  C   UNK N   1      20.945  20.142   1.053  0.00  0.00     0.143 C 
HETATM   22  O   UNK N   1      21.292  20.997   0.261  0.00  0.00    -0.650 OA
BRANCH  21  23
HETATM   23  O   UNK N   1      20.406  18.997   0.597  0.00  0.00    -0.776 OA
HETATM   24  H   UNK N   1      20.513  18.755  -0.302  0.00  0.00     0.167 HD
ENDBRANCH  21  23
ENDBRANCH  20  21
ENDBRANCH   1  20
TORSDOF 3
ENDMDL
MODEL 5
REMARK VINA RESULT:      -7.3      2.040      3.021
REMARK  3 active torsions:
REMARK  status: ('A' for Active; 'I' for Inactive)
REMARK    1  A    between atoms: O_1  and  C_2 
REMARK    2  A    between atoms: C_2  and  C_4 
REMARK    3  A    between atoms: C_4  and  C_5 
ROOT
HETATM    1  C   UNK N   1      22.176  15.815   6.450  0.00  0.00     0.009 A 
HETATM    2  C   UNK N   1      21.813  15.078   7.560  0.00  0.00     0.123 A 
HETATM    3  N   UNK N   1      20.594  15.063   8.155  0.00  0.00    -0.308 N 
HETATM    4  C   UNK N   1      20.391  14.272   9.259  0.00  0.00     0.259 A 
HETATM    5  O   UNK N   1      19.296  14.259   9.795  0.00  0.00    -0.267 OA
HETATM    6  C   UNK N   1      21.451  13.486   9.764  0.00  0.00     0.059 A 
HETATM    7  C   UNK N   1      21.287  12.668  10.889  0.00  0.00     0.019 A 
HETATM    8  C   UNK N   1      22.357  11.903  11.361  0.00  0.00     0.001 A 
HETATM    9  C   UNK N   1      23.596  11.950  10.715  0.00  0.00     0.002 A 
HETATM   10  C   UNK N   1      23.773  12.762   9.593  0.00  0.00     0.031 A 
HETATM   11  C   UNK N   1      22.707  13.533   9.111  0.00  0.00     0.057 A 
HETATM   12  N   UNK N   1      22.838  14.337   8.021  0.00  0.00    -0.295 N 
HETATM   13  C   UNK N   1      23.887  14.586   7.210  0.00  0.00     0.052 A 
HETATM   14  C   UNK N   1      23.524  15.490   6.229  0.00  0.00     0.002 A 
HETATM   15  C   UNK N   1      24.450  15.902   5.269  0.00  0.00     0.014 A 
HETATM   16  C   UNK N   1      25.755  15.377   5.324  0.00  0.00     0.001 A 
HETATM   17  C   UNK N   1      26.115  14.456   6.329  0.00  0.00     0.002 A 
HETATM   18  C   UNK N   1      25.173  14.051   7.287  0.00  0.00     0.031 A 
HETATM   19  H   UNK N   1      19.860  15.613   7.797  0.00  0.00     0.170 HD
ENDROOT
BRANCH   1  20
HETATM   20  C   UNK N   1      21.184  16.722   5.762  0.00  0.00     0.153 C 
BRANCH  20  21
HETATM   21  C   UNK N   1      21.172  18.203   5.978  0.00  0.00     0.143 C 
HETATM   22  O   UNK N   1      21.056  18.691   7.086  0.00  0.00    -0.650 OA
BRANCH  21  23
HETATM   23  O   UNK N   1      21.297  19.010   4.909  0.00  0.00    -0.776 OA
HETATM   24  H   UNK N   1      20.740  18.892   4.165  0.00  0.00     0.167 HD
ENDBRANCH  21  23
ENDBRANCH  20  21
ENDBRANCH   1  20
TORSDOF 3
ENDMDL
MODEL 6
REMARK VINA RESULT:      -7.3      1.793      4.568
REMARK  3 active torsions:
REMARK  status: ('A' for Active; 'I' for Inactive)
REMARK    1  A    between atoms: O_1  and  C_2 
REMARK    2  A    between atoms: C_2  and  C_4 
REMARK    3  A    between atoms: C_4  and  C_5 
ROOT
HETATM    1  C   UNK N   1      20.086  16.379   8.461  0.00  0.00     0.009 A 
HETATM    2  C   UNK N   1      20.898  16.809   7.429  0.00  0.00     0.123 A 
HETATM    3  N   UNK N   1      20.774  17.967   6.735  0.00  0.00    -0.308 N 
HETATM    4  C   UNK N   1      21.666  18.251   5.731  0.00  0.00     0.259 A 
HETATM    5  O   UNK N   1      21.555  19.291   5.105  0.00  0.00    -0.267 OA
HETATM    6  C   UNK N   1      22.702  17.336   5.431  0.00  0.00     0.059 A 
HETATM    7  C   UNK N   1      23.631  17.587   4.414  0.00  0.00     0.019 A 
HETATM    8  C   UNK N   1      24.642  16.660   4.145  0.00  0.00     0.001 A 
HETATM    9  C   UNK N   1      24.731  15.479   4.889  0.00  0.00     0.002 A 
HETATM   10  C   UNK N   1      23.810  15.217   5.905  0.00  0.00     0.031 A 
HETATM   11  C   UNK N   1      22.792  16.139   6.183  0.00  0.00     0.057 A 
HETATM   12  N   UNK N   1      21.876  15.922   7.164  0.00  0.00    -0.295 N 
HETATM   13  C   UNK N   1      21.709  14.898   8.027  0.00  0.00     0.052 A 
HETATM   14  C   UNK N   1      20.620  15.137   8.843  0.00  0.00     0.002 A 
HETATM   15  C   UNK N   1      20.250  14.211   9.820  0.00  0.00     0.014 A 
HETATM   16  C   UNK N   1      21.010  13.034   9.953  0.00  0.00     0.001 A 
HETATM   17  C   UNK N   1      22.120  12.799   9.115  0.00  0.00     0.002 A 
HETATM   18  C   UNK N   1      22.480  13.740   8.137  0.00  0.00     0.031 A 
HETATM   19  H   UNK N   1      20.050  18.600   6.948  0.00  0.00     0.170 HD
ENDROOT
BRANCH   1  20
HETATM   20  C   UNK N   1      18.920  17.214   8.930  0.00  0.00     0.153 C 
BRANCH  20  21
HETATM   21  C   UNK N   1      19.105  18.477   9.711  0.00  0.00     0.143 C 
HETATM   22  O   UNK N   1      20.135  19.122   9.658  0.00  0.00    -0.650 OA
BRANCH  21  23
HETATM   23  O   UNK N   1      18.097  18.907  10.491  0.00  0.00    -0.776 OA
HETATM   24  H   UNK N   1      18.089  18.697  11.404  0.00  0.00     0.167 HD
ENDBRANCH  21  23
ENDBRANCH  20  21
ENDBRANCH   1  20
TORSDOF 3
ENDMDL
MODEL 7
REMARK VINA RESULT:      -7.1      9.215     11.123
REMARK  3 active torsions:
REMARK  status: ('A' for Active; 'I' for Inactive)
REMARK    1  A    between atoms: O_1  and  C_2 
REMARK    2  A    between atoms: C_2  and  C_4 
REMARK    3  A    between atoms: C_4  and  C_5 
ROOT
HETATM    1  C   UNK N   1      32.187  17.342   6.971  0.00  0.00     0.009 A 
HETATM    2  C   UNK N   1      31.642  16.839   5.805  0.00  0.00     0.123 A 
HETATM    3  N   UNK N   1      32.327  16.356   4.739  0.00  0.00    -0.308 N 
HETATM    4  C   UNK N   1      31.635  15.890   3.648  0.00  0.00     0.259 A 
HETATM    5  O   UNK N   1      32.250  15.456   2.688  0.00  0.00    -0.267 OA
HETATM    6  C   UNK N   1      30.223  15.919   3.647  0.00  0.00     0.059 A 
HETATM    7  C   UNK N   1      29.480  15.455   2.554  0.00  0.00     0.019 A 
HETATM    8  C   UNK N   1      28.083  15.499   2.586  0.00  0.00     0.001 A 
HETATM    9  C   UNK N   1      27.421  16.005   3.709  0.00  0.00     0.002 A 
HETATM   10  C   UNK N   1      28.150  16.472   4.804  0.00  0.00     0.031 A 
HETATM   11  C   UNK N   1      29.550  16.433   4.782  0.00  0.00     0.057 A 
HETATM   12  N   UNK N   1      30.297  16.877   5.828  0.00  0.00    -0.295 N 
HETATM   13  C   UNK N   1      29.949  17.409   7.019  0.00  0.00     0.052 A 
HETATM   14  C   UNK N   1      31.080  17.710   7.754  0.00  0.00     0.002 A 
HETATM   15  C   UNK N   1      30.969  18.274   9.025  0.00  0.00     0.014 A 
HETATM   16  C   UNK N   1      29.683  18.527   9.539  0.00  0.00     0.001 A 
HETATM   17  C   UNK N   1      28.535  18.216   8.781  0.00  0.00     0.002 A 
HETATM   18  C   UNK N   1      28.663  17.649   7.504  0.00  0.00     0.031 A 
HETATM   19  H   UNK N   1      33.312  16.338   4.746  0.00  0.00     0.170 HD
ENDROOT
BRANCH   1  20
HETATM   20  C   UNK N   1      33.682  17.399   7.167  0.00  0.00     0.153 C 
BRANCH  20  21
HETATM   21  C   UNK N   1      34.306  18.028   8.373  0.00  0.00     0.143 C 
HETATM   22  O   UNK N   1      34.886  19.096   8.315  0.00  0.00    -0.650 OA
BRANCH  21  23
HETATM   23  O   UNK N   1      34.217  17.388   9.553  0.00  0.00    -0.776 OA
HETATM   24  H   UNK N   1      33.542  16.754   9.691  0.00  0.00     0.167 HD
ENDBRANCH  21  23
ENDBRANCH  20  21
ENDBRANCH   1  20
TORSDOF 3
ENDMDL
MODEL 8
REMARK VINA RESULT:      -7.1     17.007     17.718
REMARK  3 active torsions:
REMARK  status: ('A' for Active; 'I' for Inactive)
REMARK    1  A    between atoms: O_1  and  C_2 
REMARK    2  A    between atoms: C_2  and  C_4 
REMARK    3  A    between atoms: C_4  and  C_5 
ROOT
HETATM    1  C   UNK N   1      26.545  23.746  -6.902  0.00  0.00     0.009 A 
HETATM    2  C   UNK N   1      27.647  23.095  -6.381  0.00  0.00     0.123 A 
HETATM    3  N   UNK N   1      28.251  21.995  -6.894  0.00  0.00    -0.308 N 
HETATM    4  C   UNK N   1      29.343  21.464  -6.254  0.00  0.00     0.259 A 
HETATM    5  O   UNK N   1      29.886  20.474  -6.714  0.00  0.00    -0.267 OA
HETATM    6  C   UNK N   1      29.824  22.066  -5.069  0.00  0.00     0.059 A 
HETATM    7  C   UNK N   1      30.934  21.554  -4.385  0.00  0.00     0.019 A 
HETATM    8  C   UNK N   1      31.382  22.175  -3.215  0.00  0.00     0.001 A 
HETATM    9  C   UNK N   1      30.728  23.308  -2.724  0.00  0.00     0.002 A 
HETATM   10  C   UNK N   1      29.621  23.827  -3.397  0.00  0.00     0.031 A 
HETATM   11  C   UNK N   1      29.161  23.213  -4.570  0.00  0.00     0.057 A 
HETATM   12  N   UNK N   1      28.087  23.687  -5.255  0.00  0.00    -0.295 N 
HETATM   13  C   UNK N   1      27.270  24.738  -5.030  0.00  0.00     0.052 A 
HETATM   14  C   UNK N   1      26.307  24.811  -6.019  0.00  0.00     0.002 A 
HETATM   15  C   UNK N   1      25.345  25.822  -5.996  0.00  0.00     0.014 A 
HETATM   16  C   UNK N   1      25.379  26.760  -4.947  0.00  0.00     0.001 A 
HETATM   17  C   UNK N   1      26.366  26.676  -3.943  0.00  0.00     0.002 A 
HETATM   18  C   UNK N   1      27.326  25.654  -3.979  0.00  0.00     0.031 A 
HETATM   19  H   UNK N   1      27.910  21.580  -7.721  0.00  0.00     0.170 HD
ENDROOT
BRANCH   1  20
HETATM   20  C   UNK N   1      25.881  23.256  -8.166  0.00  0.00     0.153 C 
BRANCH  20  21
HETATM   21  C   UNK N   1      25.091  21.986  -8.213  0.00  0.00     0.143 C 
HETATM   22  O   UNK N   1      25.625  20.900  -8.342  0.00  0.00    -0.650 OA
BRANCH  21  23
HETATM   23  O   UNK N   1      23.752  22.055  -8.107  0.00  0.00    -0.776 OA
HETATM   24  H   UNK N   1      23.255  22.522  -8.749  0.00  0.00     0.167 HD
ENDBRANCH  21  23
ENDBRANCH  20  21
ENDBRANCH   1  20
TORSDOF 3
ENDMDL
MODEL 9
REMARK VINA RESULT:      -7.1      9.710     11.635
REMARK  3 active torsions:
REMARK  status: ('A' for Active; 'I' for Inactive)
REMARK    1  A    between atoms: O_1  and  C_2 
REMARK    2  A    between atoms: C_2  and  C_4 
REMARK    3  A    between atoms: C_4  and  C_5 
ROOT
HETATM    1  C   UNK N   1      33.127  16.487   7.792  0.00  0.00     0.009 A 
HETATM    2  C   UNK N   1      31.896  17.105   7.903  0.00  0.00     0.123 A 
HETATM    3  N   UNK N   1      31.346  17.608   9.036  0.00  0.00    -0.308 N 
HETATM    4  C   UNK N   1      30.106  18.195   8.981  0.00  0.00     0.259 A 
HETATM    5  O   UNK N   1      29.610  18.647   9.999  0.00  0.00    -0.267 OA
HETATM    6  C   UNK N   1      29.417  18.267   7.750  0.00  0.00     0.059 A 
HETATM    7  C   UNK N   1      28.150  18.855   7.651  0.00  0.00     0.019 A 
HETATM    8  C   UNK N   1      27.497  18.910   6.416  0.00  0.00     0.001 A 
HETATM    9  C   UNK N   1      28.104  18.378   5.275  0.00  0.00     0.002 A 
HETATM   10  C   UNK N   1      29.366  17.789   5.360  0.00  0.00     0.031 A 
HETATM   11  C   UNK N   1      30.030  17.728   6.592  0.00  0.00     0.057 A 
HETATM   12  N   UNK N   1      31.261  17.163   6.718  0.00  0.00    -0.295 N 
HETATM   13  C   UNK N   1      32.077  16.578   5.816  0.00  0.00     0.052 A 
HETATM   14  C   UNK N   1      33.236  16.148   6.434  0.00  0.00     0.002 A 
HETATM   15  C   UNK N   1      34.235  15.510   5.697  0.00  0.00     0.014 A 
HETATM   16  C   UNK N   1      34.035  15.316   4.318  0.00  0.00     0.001 A 
HETATM   17  C   UNK N   1      32.848  15.759   3.697  0.00  0.00     0.002 A 
HETATM   18  C   UNK N   1      31.852  16.399   4.450  0.00  0.00     0.031 A 
HETATM   19  H   UNK N   1      31.832  17.554   9.891  0.00  0.00     0.170 HD
ENDROOT
BRANCH   1  20
HETATM   20  C   UNK N   1      34.018  16.310   8.998  0.00  0.00     0.153 C 
BRANCH  20  21
HETATM   21  C   UNK N   1      34.946  17.384   9.470  0.00  0.00     0.143 C 
HETATM   22  O   UNK N   1      35.590  17.272  10.496  0.00  0.00    -0.650 OA
BRANCH  21  23
HETATM   23  O   UNK N   1      35.069  18.501   8.731  0.00  0.00    -0.776 OA
HETATM   24  H   UNK N   1      35.647  19.184   9.007  0.00  0.00     0.167 HD
ENDBRANCH  21  23
ENDBRANCH  20  21
ENDBRANCH   1  20
TORSDOF 3
ENDMDL
