MODEL 1
REMARK VINA RESULT:      -6.5      0.000      0.000
REMARK  0 active torsions:
REMARK  status: ('A' for Active; 'I' for Inactive)
ROOT
HETATM    1  C   UNK N   1      26.354  27.135  -3.754  0.00  0.00     0.030 A 
HETATM    2  C   UNK N   1      27.000  25.998  -4.228  0.00  0.00     0.043 A 
HETATM    3  C   UNK N   1      26.608  25.373  -5.387  0.00  0.00     0.006 A 
HETATM    4  C   UNK N   1      25.548  25.845  -6.156  0.00  0.00     0.015 A 
HETATM    5  C   UNK N   1      24.873  26.992  -5.701  0.00  0.00     0.001 A 
HETATM    6  C   UNK N   1      25.272  27.634  -4.506  0.00  0.00     0.002 A 
HETATM    7  N   UNK N   1      28.073  25.387  -3.682  0.00  0.00    -0.356 N 
HETATM    8  C   UNK N   1      28.341  24.347  -4.510  0.00  0.00     0.058 A 
HETATM    9  C   UNK N   1      27.470  24.322  -5.569  0.00  0.00     0.049 A 
HETATM   10  C   UNK N   1      29.499  23.398  -4.418  0.00  0.00     0.274 C 
HETATM   11  N   UNK N   1      29.199  22.152  -5.176  0.00  0.00     0.106 N 
HETATM   12  C   UNK N   1      28.770  22.381  -6.569  0.00  0.00     0.356 C 
HETATM   13  C   UNK N   1      27.606  23.337  -6.641  0.00  0.00     0.190 C 
HETATM   14  C   UNK N   1      29.796  23.033  -2.964  0.00  0.00     0.042 C 
HETATM   15  C   UNK N   1      31.009  22.105  -2.916  0.00  0.00     0.004 C 
HETATM   16  C   UNK N   1      30.770  20.875  -3.788  0.00  0.00     0.030 C 
HETATM   17  C   UNK N   1      30.385  21.296  -5.205  0.00  0.00     0.274 C 
HETATM   18  O   UNK N   1      26.855  23.339  -7.603  0.00  0.00    -0.290 OA
HETATM   19  H   UNK N   1      28.556  25.641  -2.862  0.00  0.00     0.166 HD
ENDROOT
TORSDOF 0
ENDMDL
MODEL 2
REMARK VINA RESULT:      -6.4     22.034     23.737
REMARK  0 active torsions:
REMARK  status: ('A' for Active; 'I' for Inactive)
ROOT
HETATM    1  C   UNK N   1      37.116  15.232  16.268  0.00  0.00     0.030 A 
HETATM    2  C   UNK N   1      36.665  14.293  15.346  0.00  0.00     0.043 A 
HETATM    3  C   UNK N   1      35.698  13.372  15.666  0.00  0.00     0.006 A 
HETATM    4  C   UNK N   1      35.110  13.329  16.927  0.00  0.00     0.015 A 
HETATM    5  C   UNK N   1      35.547  14.265  17.882  0.00  0.00     0.001 A 
HETATM    6  C   UNK N   1      36.546  15.211  17.556  0.00  0.00     0.002 A 
HETATM    7  N   UNK N   1      37.052  14.169  14.058  0.00  0.00    -0.356 N 
HETATM    8  C   UNK N   1      36.322  13.135  13.573  0.00  0.00     0.058 A 
HETATM    9  C   UNK N   1      35.475  12.636  14.530  0.00  0.00     0.049 A 
HETATM   10  C   UNK N   1      36.292  12.638  12.157  0.00  0.00     0.274 C 
HETATM   11  N   UNK N   1      35.773  11.244  12.116  0.00  0.00     0.106 N 
HETATM   12  C   UNK N   1      34.479  11.061  12.802  0.00  0.00     0.356 C 
HETATM   13  C   UNK N   1      34.529  11.565  14.223  0.00  0.00     0.190 C 
HETATM   14  C   UNK N   1      37.688  12.664  11.537  0.00  0.00     0.042 C 
HETATM   15  C   UNK N   1      37.602  12.198  10.085  0.00  0.00     0.004 C 
HETATM   16  C   UNK N   1      36.957  10.816  10.009  0.00  0.00     0.030 C 
HETATM   17  C   UNK N   1      35.607  10.822  10.725  0.00  0.00     0.274 C 
HETATM   18  O   UNK N   1      33.748  11.148  15.063  0.00  0.00    -0.290 OA
HETATM   19  H   UNK N   1      37.717  14.712  13.576  0.00  0.00     0.166 HD
ENDROOT
TORSDOF 0
ENDMDL
MODEL 3
REMARK VINA RESULT:      -6.4      1.145      5.325
REMARK  0 active torsions:
REMARK  status: ('A' for Active; 'I' for Inactive)
ROOT
HETATM    1  C   UNK N   1      30.634  22.793  -2.565  0.00  0.00     0.030 A 
HETATM    2  C   UNK N   1      29.607  23.294  -3.357  0.00  0.00     0.043 A 
HETATM    3  C   UNK N   1      29.329  22.773  -4.596  0.00  0.00     0.006 A 
HETATM    4  C   UNK N   1      30.052  21.709  -5.127  0.00  0.00     0.015 A 
HETATM    5  C   UNK N   1      31.100  21.180  -4.350  0.00  0.00     0.001 A 
HETATM    6  C   UNK N   1      31.391  21.720  -3.076  0.00  0.00     0.002 A 
HETATM    7  N   UNK N   1      28.747  24.286  -3.040  0.00  0.00    -0.356 N 
HETATM    8  C   UNK N   1      27.929  24.396  -4.115  0.00  0.00     0.058 A 
HETATM    9  C   UNK N   1      28.252  23.473  -5.078  0.00  0.00     0.049 A 
HETATM   10  C   UNK N   1      26.728  25.286  -4.247  0.00  0.00     0.274 C 
HETATM   11  N   UNK N   1      26.393  25.479  -5.684  0.00  0.00     0.106 N 
HETATM   12  C   UNK N   1      26.246  24.224  -6.444  0.00  0.00     0.356 C 
HETATM   13  C   UNK N   1      27.462  23.342  -6.300  0.00  0.00     0.190 C 
HETATM   14  C   UNK N   1      26.985  26.651  -3.611  0.00  0.00     0.042 C 
HETATM   15  C   UNK N   1      25.723  27.505  -3.726  0.00  0.00     0.004 C 
HETATM   16  C   UNK N   1      25.289  27.615  -5.185  0.00  0.00     0.030 C 
HETATM   17  C   UNK N   1      25.138  26.224  -5.800  0.00  0.00     0.274 C 
HETATM   18  O   UNK N   1      27.725  22.495  -7.139  0.00  0.00    -0.290 OA
HETATM   19  H   UNK N   1      28.720  24.814  -2.209  0.00  0.00     0.166 HD
ENDROOT
TORSDOF 0
ENDMDL
MODEL 4
REMARK VINA RESULT:      -6.4      2.482      6.515
REMARK  0 active torsions:
REMARK  status: ('A' for Active; 'I' for Inactive)
ROOT
HETATM    1  C   UNK N   1      32.980  20.692  -5.620  0.00  0.00     0.030 A 
HETATM    2  C   UNK N   1      31.889  21.409  -5.141  0.00  0.00     0.043 A 
HETATM    3  C   UNK N   1      31.748  21.708  -3.808  0.00  0.00     0.006 A 
HETATM    4  C   UNK N   1      32.692  21.318  -2.862  0.00  0.00     0.015 A 
HETATM    5  C   UNK N   1      33.808  20.590  -3.315  0.00  0.00     0.001 A 
HETATM    6  C   UNK N   1      33.951  20.277  -4.687  0.00  0.00     0.002 A 
HETATM    7  N   UNK N   1      30.875  21.927  -5.867  0.00  0.00    -0.356 N 
HETATM    8  C   UNK N   1      30.077  22.544  -4.962  0.00  0.00     0.058 A 
HETATM    9  C   UNK N   1      30.593  22.439  -3.695  0.00  0.00     0.049 A 
HETATM   10  C   UNK N   1      28.856  23.368  -5.250  0.00  0.00     0.274 C 
HETATM   11  N   UNK N   1      28.008  23.466  -4.031  0.00  0.00     0.106 N 
HETATM   12  C   UNK N   1      28.728  23.932  -2.831  0.00  0.00     0.356 C 
HETATM   13  C   UNK N   1      29.951  23.093  -2.556  0.00  0.00     0.190 C 
HETATM   14  C   UNK N   1      28.031  22.749  -6.378  0.00  0.00     0.042 C 
HETATM   15  C   UNK N   1      26.827  23.643  -6.669  0.00  0.00     0.004 C 
HETATM   16  C   UNK N   1      26.008  23.859  -5.399  0.00  0.00     0.030 C 
HETATM   17  C   UNK N   1      26.899  24.389  -4.277  0.00  0.00     0.274 C 
HETATM   18  O   UNK N   1      30.431  23.033  -1.436  0.00  0.00    -0.290 OA
HETATM   19  H   UNK N   1      30.744  21.869  -6.842  0.00  0.00     0.166 HD
ENDROOT
TORSDOF 0
ENDMDL
MODEL 5
REMARK VINA RESULT:      -6.4     16.250     17.761
REMARK  0 active torsions:
REMARK  status: ('A' for Active; 'I' for Inactive)
ROOT
HETATM    1  C   UNK N   1      23.501  12.252   9.622  0.00  0.00     0.030 A 
HETATM    2  C   UNK N   1      22.833  13.255   8.928  0.00  0.00     0.043 A 
HETATM    3  C   UNK N   1      21.579  13.678   9.296  0.00  0.00     0.006 A 
HETATM    4  C   UNK N   1      20.909  13.132  10.387  0.00  0.00     0.015 A 
HETATM    5  C   UNK N   1      21.558  12.114  11.109  0.00  0.00     0.001 A 
HETATM    6  C   UNK N   1      22.847  11.674  10.728  0.00  0.00     0.002 A 
HETATM    7  N   UNK N   1      23.296  13.958   7.872  0.00  0.00    -0.356 N 
HETATM    8  C   UNK N   1      22.298  14.823   7.565  0.00  0.00     0.058 A 
HETATM    9  C   UNK N   1      21.240  14.684   8.428  0.00  0.00     0.049 A 
HETATM   10  C   UNK N   1      22.331  15.906   6.527  0.00  0.00     0.274 C 
HETATM   11  N   UNK N   1      20.945  16.306   6.162  0.00  0.00     0.106 N 
HETATM   12  C   UNK N   1      20.096  16.661   7.316  0.00  0.00     0.356 C 
HETATM   13  C   UNK N   1      20.074  15.562   8.348  0.00  0.00     0.190 C 
HETATM   14  C   UNK N   1      23.057  15.436   5.267  0.00  0.00     0.042 C 
HETATM   15  C   UNK N   1      23.109  16.582   4.259  0.00  0.00     0.004 C 
HETATM   16  C   UNK N   1      21.701  17.092   3.963  0.00  0.00     0.030 C 
HETATM   17  C   UNK N   1      20.986  17.459   5.262  0.00  0.00     0.274 C 
HETATM   18  O   UNK N   1      19.151  15.464   9.140  0.00  0.00    -0.290 OA
HETATM   19  H   UNK N   1      24.167  13.864   7.423  0.00  0.00     0.166 HD
ENDROOT
TORSDOF 0
ENDMDL
MODEL 6
REMARK VINA RESULT:      -6.3     22.001     25.004
REMARK  0 active torsions:
REMARK  status: ('A' for Active; 'I' for Inactive)
ROOT
HETATM    1  C   UNK N   1      35.211  13.467  18.549  0.00  0.00     0.030 A 
HETATM    2  C   UNK N   1      35.297  12.963  17.255  0.00  0.00     0.043 A 
HETATM    3  C   UNK N   1      35.369  11.614  17.008  0.00  0.00     0.006 A 
HETATM    4  C   UNK N   1      35.352  10.675  18.035  0.00  0.00     0.015 A 
HETATM    5  C   UNK N   1      35.266  11.154  19.355  0.00  0.00     0.001 A 
HETATM    6  C   UNK N   1      35.198  12.543  19.612  0.00  0.00     0.002 A 
HETATM    7  N   UNK N   1      35.287  13.671  16.105  0.00  0.00    -0.356 N 
HETATM    8  C   UNK N   1      35.374  12.741  15.123  0.00  0.00     0.058 A 
HETATM    9  C   UNK N   1      35.412  11.473  15.644  0.00  0.00     0.049 A 
HETATM   10  C   UNK N   1      35.303  12.984  13.643  0.00  0.00     0.274 C 
HETATM   11  N   UNK N   1      35.901  11.836  12.909  0.00  0.00     0.106 N 
HETATM   12  C   UNK N   1      35.347  10.522  13.289  0.00  0.00     0.356 C 
HETATM   13  C   UNK N   1      35.427  10.295  14.778  0.00  0.00     0.190 C 
HETATM   14  C   UNK N   1      36.052  14.259  13.260  0.00  0.00     0.042 C 
HETATM   15  C   UNK N   1      35.913  14.492  11.757  0.00  0.00     0.004 C 
HETATM   16  C   UNK N   1      36.408  13.272  10.984  0.00  0.00     0.030 C 
HETATM   17  C   UNK N   1      35.696  12.011  11.471  0.00  0.00     0.274 C 
HETATM   18  O   UNK N   1      35.420   9.167  15.242  0.00  0.00    -0.290 OA
HETATM   19  H   UNK N   1      35.228  14.649  16.003  0.00  0.00     0.166 HD
ENDROOT
TORSDOF 0
ENDMDL
MODEL 7
REMARK VINA RESULT:      -6.0     13.983     15.398
REMARK  0 active torsions:
REMARK  status: ('A' for Active; 'I' for Inactive)
ROOT
HETATM    1  C   UNK N   1      29.679  18.514   9.316  0.00  0.00     0.030 A 
HETATM    2  C   UNK N   1      30.654  17.754   8.680  0.00  0.00     0.043 A 
HETATM    3  C   UNK N   1      30.469  17.252   7.415  0.00  0.00     0.006 A 
HETATM    4  C   UNK N   1      29.300  17.482   6.695  0.00  0.00     0.015 A 
HETATM    5  C   UNK N   1      28.293  18.246   7.313  0.00  0.00     0.001 A 
HETATM    6  C   UNK N   1      28.480  18.759   8.618  0.00  0.00     0.002 A 
HETATM    7  N   UNK N   1      31.878  17.439   9.156  0.00  0.00    -0.356 N 
HETATM    8  C   UNK N   1      32.458  16.708   8.173  0.00  0.00     0.058 A 
HETATM    9  C   UNK N   1      31.625  16.589   7.089  0.00  0.00     0.049 A 
HETATM   10  C   UNK N   1      33.865  16.188   8.146  0.00  0.00     0.274 C 
HETATM   11  N   UNK N   1      33.976  15.068   7.172  0.00  0.00     0.106 N 
HETATM   12  C   UNK N   1      33.472  15.390   5.823  0.00  0.00     0.356 C 
HETATM   13  C   UNK N   1      32.058  15.911   5.869  0.00  0.00     0.190 C 
HETATM   14  C   UNK N   1      34.290  15.686   9.526  0.00  0.00     0.042 C 
HETATM   15  C   UNK N   1      35.740  15.212   9.464  0.00  0.00     0.004 C 
HETATM   16  C   UNK N   1      35.904  14.147   8.382  0.00  0.00     0.030 C 
HETATM   17  C   UNK N   1      35.377  14.665   7.044  0.00  0.00     0.274 C 
HETATM   18  O   UNK N   1      31.332  15.839   4.890  0.00  0.00    -0.290 OA
HETATM   19  H   UNK N   1      32.265  17.686  10.028  0.00  0.00     0.166 HD
ENDROOT
TORSDOF 0
ENDMDL
MODEL 8
REMARK VINA RESULT:      -6.0     20.883     23.845
REMARK  0 active torsions:
REMARK  status: ('A' for Active; 'I' for Inactive)
ROOT
HETATM    1  C   UNK N   1      36.061  15.450  11.690  0.00  0.00     0.030 A 
HETATM    2  C   UNK N   1      36.245  14.352  12.525  0.00  0.00     0.043 A 
HETATM    3  C   UNK N   1      36.767  13.170  12.060  0.00  0.00     0.006 A 
HETATM    4  C   UNK N   1      37.148  13.005  10.731  0.00  0.00     0.015 A 
HETATM    5  C   UNK N   1      36.972  14.097   9.862  0.00  0.00     0.001 A 
HETATM    6  C   UNK N   1      36.429  15.313  10.338  0.00  0.00     0.002 A 
HETATM    7  N   UNK N   1      35.994  14.288  13.850  0.00  0.00    -0.356 N 
HETATM    8  C   UNK N   1      36.349  13.030  14.211  0.00  0.00     0.058 A 
HETATM    9  C   UNK N   1      36.839  12.328  13.140  0.00  0.00     0.049 A 
HETATM   10  C   UNK N   1      36.363  12.462  15.600  0.00  0.00     0.274 C 
HETATM   11  N   UNK N   1      36.342  10.975  15.542  0.00  0.00     0.106 N 
HETATM   12  C   UNK N   1      37.390  10.389  14.686  0.00  0.00     0.356 C 
HETATM   13  C   UNK N   1      37.361  10.971  13.295  0.00  0.00     0.190 C 
HETATM   14  C   UNK N   1      35.154  12.943  16.402  0.00  0.00     0.042 C 
HETATM   15  C   UNK N   1      35.235  12.379  17.819  0.00  0.00     0.004 C 
HETATM   16  C   UNK N   1      35.339  10.857  17.780  0.00  0.00     0.030 C 
HETATM   17  C   UNK N   1      36.504  10.428  16.890  0.00  0.00     0.274 C 
HETATM   18  O   UNK N   1      37.833  10.361  12.350  0.00  0.00    -0.290 OA
HETATM   19  H   UNK N   1      35.632  14.998  14.428  0.00  0.00     0.166 HD
ENDROOT
TORSDOF 0
ENDMDL
MODEL 9
REMARK VINA RESULT:      -5.9     22.999     25.019
REMARK  0 active torsions:
REMARK  status: ('A' for Active; 'I' for Inactive)
ROOT
HETATM    1  C   UNK N   1      35.309  11.332  18.338  0.00  0.00     0.030 A 
HETATM    2  C   UNK N   1      35.592  11.438  16.981  0.00  0.00     0.043 A 
HETATM    3  C   UNK N   1      35.716  12.657  16.360  0.00  0.00     0.006 A 
HETATM    4  C   UNK N   1      35.575  13.855  17.055  0.00  0.00     0.015 A 
HETATM    5  C   UNK N   1      35.287  13.781  18.431  0.00  0.00     0.001 A 
HETATM    6  C   UNK N   1      35.153  12.526  19.069  0.00  0.00     0.002 A 
HETATM    7  N   UNK N   1      35.813  10.425  16.116  0.00  0.00    -0.356 N 
HETATM    8  C   UNK N   1      36.061  11.028  14.928  0.00  0.00     0.058 A 
HETATM    9  C   UNK N   1      36.022  12.394  15.049  0.00  0.00     0.049 A 
HETATM   10  C   UNK N   1      36.467  10.363  13.645  0.00  0.00     0.274 C 
HETATM   11  N   UNK N   1      36.183  11.260  12.493  0.00  0.00     0.106 N 
HETATM   12  C   UNK N   1      36.754  12.614  12.626  0.00  0.00     0.356 C 
HETATM   13  C   UNK N   1      36.336  13.267  13.920  0.00  0.00     0.190 C 
HETATM   14  C   UNK N   1      35.712   9.049  13.447  0.00  0.00     0.042 C 
HETATM   15  C   UNK N   1      36.190   8.384  12.158  0.00  0.00     0.004 C 
HETATM   16  C   UNK N   1      36.022   9.336  10.976  0.00  0.00     0.030 C 
HETATM   17  C   UNK N   1      36.715  10.667  11.265  0.00  0.00     0.274 C 
HETATM   18  O   UNK N   1      36.340  14.482  14.038  0.00  0.00    -0.290 OA
HETATM   19  H   UNK N   1      35.798   9.459  16.306  0.00  0.00     0.166 HD
ENDROOT
TORSDOF 0
ENDMDL
