REMARK  5 active torsions:
REMARK  status: ('A' for Active; 'I' for Inactive)
REMARK    1  A    between atoms: C_7  and  C_8 
REMARK    2  A    between atoms: C_8  and  C_9 
REMARK    3  A    between atoms: C_9  and  S_10 
REMARK    4  A    between atoms: C_9  and  C_11 
REMARK    5  A    between atoms: C_11  and  O_13 
ROOT
HETATM    1  C   UNK N   1      -0.989   0.278   0.121  0.00  0.00     0.064 C 
ENDROOT
BRANCH   1   2
HETATM    2  C   UNK N   1       0.315   1.028   0.074  0.00  0.00    -0.057 A 
HETATM    3  C   UNK N   1       1.557   0.384   0.201  0.00  0.00     0.008 A 
HETATM    4  C   UNK N   1       2.744   1.109   0.066  0.00  0.00     0.019 A 
HETATM    5  C   UNK N   1       2.698   2.481  -0.195  0.00  0.00     0.006 A 
HETATM    6  I   UNK N   1       4.482   3.559  -0.473  0.00  0.00    -0.045 I 
HETATM    7  C   UNK N   1       1.466   3.132  -0.300  0.00  0.00     0.019 A 
HETATM    8  C   UNK N   1       0.279   2.406  -0.164  0.00  0.00     0.008 A 
ENDBRANCH   1   2
BRANCH   1   9
HETATM    9  C   UNK N   1      -0.909  -1.258   0.081  0.00  0.00     0.146 C 
BRANCH   9  10
HETATM   10  S   UNK N   1      -0.053  -1.814  -1.434  0.00  0.00    -0.166 SA
HETATM   11  H   UNK N   1      -0.093  -2.573  -2.562  0.00  0.00     0.102 HD
ENDBRANCH   9  10
BRANCH   9  12
HETATM   12  C   UNK N   1      -2.290  -1.860   0.082  0.00  0.00     0.154 C 
HETATM   13  O   UNK N   1      -2.421  -3.075   0.070  0.00  0.00    -0.649 OA
BRANCH  12  14
HETATM   14  O   UNK N   1      -3.387  -1.077   0.081  0.00  0.00    -0.775 OA
HETATM   15  H   UNK N   1      -3.298  -0.145   0.081  0.00  0.00     0.167 HD
ENDBRANCH  12  14
ENDBRANCH   9  12
ENDBRANCH   1   9
TORSDOF 5
