MODEL 1
REMARK VINA RESULT:      -5.0      0.000      0.000
REMARK  5 active torsions:
REMARK  status: ('A' for Active; 'I' for Inactive)
REMARK    1  A    between atoms: C_7  and  C_8 
REMARK    2  A    between atoms: C_8  and  C_9 
REMARK    3  A    between atoms: C_9  and  S_10 
REMARK    4  A    between atoms: C_9  and  C_11 
REMARK    5  A    between atoms: C_11  and  O_13 
ROOT
HETATM    1  C   UNK N   1      34.038  15.935   8.773  0.00  0.00     0.064 C 
ENDROOT
BRANCH   1   2
HETATM    2  C   UNK N   1      34.650  15.342  10.014  0.00  0.00    -0.057 A 
HETATM    3  C   UNK N   1      35.345  16.120  10.954  0.00  0.00     0.008 A 
HETATM    4  C   UNK N   1      35.822  15.541  12.133  0.00  0.00     0.019 A 
HETATM    5  C   UNK N   1      35.610  14.182  12.379  0.00  0.00     0.006 A 
HETATM    6  I   UNK N   1      36.262  13.326  14.185  0.00  0.00    -0.045 I 
HETATM    7  C   UNK N   1      34.940  13.397  11.437  0.00  0.00     0.019 A 
HETATM    8  C   UNK N   1      34.463  13.977  10.258  0.00  0.00     0.008 A 
ENDBRANCH   1   2
BRANCH   1   9
HETATM    9  C   UNK N   1      33.605  17.409   8.849  0.00  0.00     0.146 C 
BRANCH   9  10
HETATM   10  S   UNK N   1      31.887  17.602   8.257  0.00  0.00    -0.166 SA
HETATM   11  H   UNK N   1      30.945  17.260   7.338  0.00  0.00     0.102 HD
ENDBRANCH   9  10
BRANCH   9  12
HETATM   12  C   UNK N   1      34.493  18.266   7.985  0.00  0.00     0.154 C 
HETATM   13  O   UNK N   1      34.505  18.099   6.775  0.00  0.00    -0.649 OA
BRANCH  12  14
HETATM   14  O   UNK N   1      35.288  19.209   8.530  0.00  0.00    -0.775 OA
HETATM   15  H   UNK N   1      35.985  18.960   9.103  0.00  0.00     0.167 HD
ENDBRANCH  12  14
ENDBRANCH   9  12
ENDBRANCH   1   9
TORSDOF 5
ENDMDL
MODEL 2
REMARK VINA RESULT:      -5.0      6.542      7.967
REMARK  5 active torsions:
REMARK  status: ('A' for Active; 'I' for Inactive)
REMARK    1  A    between atoms: C_7  and  C_8 
REMARK    2  A    between atoms: C_8  and  C_9 
REMARK    3  A    between atoms: C_9  and  S_10 
REMARK    4  A    between atoms: C_9  and  C_11 
REMARK    5  A    between atoms: C_11  and  O_13 
ROOT
HETATM    1  C   UNK N   1      35.119  13.314  16.063  0.00  0.00     0.064 C 
ENDROOT
BRANCH   1   2
HETATM    2  C   UNK N   1      35.291  12.483  17.306  0.00  0.00    -0.057 A 
HETATM    3  C   UNK N   1      35.190  13.031  18.596  0.00  0.00     0.008 A 
HETATM    4  C   UNK N   1      35.272  12.205  19.721  0.00  0.00     0.019 A 
HETATM    5  C   UNK N   1      35.457  10.829  19.564  0.00  0.00     0.006 A 
HETATM    6  I   UNK N   1      35.505   9.576  21.252  0.00  0.00    -0.045 I 
HETATM    7  C   UNK N   1      35.581  10.281  18.285  0.00  0.00     0.019 A 
HETATM    8  C   UNK N   1      35.500  11.108  17.160  0.00  0.00     0.008 A 
ENDBRANCH   1   2
BRANCH   1   9
HETATM    9  C   UNK N   1      36.383  13.584  15.228  0.00  0.00     0.146 C 
BRANCH   9  10
HETATM   10  S   UNK N   1      37.171  15.147  15.748  0.00  0.00    -0.166 SA
HETATM   11  H   UNK N   1      37.733  16.329  15.377  0.00  0.00     0.102 HD
ENDBRANCH   9  10
BRANCH   9  12
HETATM   12  C   UNK N   1      36.036  13.703  13.767  0.00  0.00     0.154 C 
HETATM   13  O   UNK N   1      34.872  13.590  13.410  0.00  0.00    -0.649 OA
BRANCH  12  14
HETATM   14  O   UNK N   1      36.993  13.917  12.842  0.00  0.00    -0.775 OA
HETATM   15  H   UNK N   1      37.879  13.671  13.019  0.00  0.00     0.167 HD
ENDBRANCH  12  14
ENDBRANCH   9  12
ENDBRANCH   1   9
TORSDOF 5
ENDMDL
MODEL 3
REMARK VINA RESULT:      -4.8     15.579     17.814
REMARK  5 active torsions:
REMARK  status: ('A' for Active; 'I' for Inactive)
REMARK    1  A    between atoms: C_7  and  C_8 
REMARK    2  A    between atoms: C_8  and  C_9 
REMARK    3  A    between atoms: C_9  and  S_10 
REMARK    4  A    between atoms: C_9  and  C_11 
REMARK    5  A    between atoms: C_11  and  O_13 
ROOT
HETATM    1  C   UNK N   1      29.599  22.934  -4.392  0.00  0.00     0.064 C 
ENDROOT
BRANCH   1   2
HETATM    2  C   UNK N   1      28.695  24.137  -4.342  0.00  0.00    -0.057 A 
HETATM    3  C   UNK N   1      27.489  24.140  -3.621  0.00  0.00     0.008 A 
HETATM    4  C   UNK N   1      26.724  25.307  -3.533  0.00  0.00     0.019 A 
HETATM    5  C   UNK N   1      27.158  26.475  -4.165  0.00  0.00     0.006 A 
HETATM    6  I   UNK N   1      26.047  28.250  -3.970  0.00  0.00    -0.045 I 
HETATM    7  C   UNK N   1      28.345  26.472  -4.902  0.00  0.00     0.019 A 
HETATM    8  C   UNK N   1      29.109  25.305  -4.991  0.00  0.00     0.008 A 
ENDBRANCH   1   2
BRANCH   1   9
HETATM    9  C   UNK N   1      31.032  23.120  -3.866  0.00  0.00     0.146 C 
BRANCH   9  10
HETATM   10  S   UNK N   1      32.230  22.292  -4.969  0.00  0.00    -0.166 SA
HETATM   11  H   UNK N   1      33.434  22.342  -5.601  0.00  0.00     0.102 HD
ENDBRANCH   9  10
BRANCH   9  12
HETATM   12  C   UNK N   1      31.174  22.519  -2.492  0.00  0.00     0.154 C 
HETATM   13  O   UNK N   1      30.532  22.981  -1.560  0.00  0.00    -0.649 OA
BRANCH  12  14
HETATM   14  O   UNK N   1      32.011  21.487  -2.270  0.00  0.00    -0.775 OA
HETATM   15  H   UNK N   1      32.364  21.006  -2.991  0.00  0.00     0.167 HD
ENDBRANCH  12  14
ENDBRANCH   9  12
ENDBRANCH   1   9
TORSDOF 5
ENDMDL
MODEL 4
REMARK VINA RESULT:      -4.8     21.393     21.852
REMARK  5 active torsions:
REMARK  status: ('A' for Active; 'I' for Inactive)
REMARK    1  A    between atoms: C_7  and  C_8 
REMARK    2  A    between atoms: C_8  and  C_9 
REMARK    3  A    between atoms: C_9  and  S_10 
REMARK    4  A    between atoms: C_9  and  C_11 
REMARK    5  A    between atoms: C_11  and  O_13 
ROOT
HETATM    1  C   UNK N   1      25.951  25.482  -7.998  0.00  0.00     0.064 C 
ENDROOT
BRANCH   1   2
HETATM    2  C   UNK N   1      26.089  26.588  -6.987  0.00  0.00    -0.057 A 
HETATM    3  C   UNK N   1      25.208  26.728  -5.902  0.00  0.00     0.008 A 
HETATM    4  C   UNK N   1      25.426  27.719  -4.941  0.00  0.00     0.019 A 
HETATM    5  C   UNK N   1      26.522  28.577  -5.059  0.00  0.00     0.006 A 
HETATM    6  I   UNK N   1      26.893  30.020  -3.574  0.00  0.00    -0.045 I 
HETATM    7  C   UNK N   1      27.390  28.458  -6.148  0.00  0.00     0.019 A 
HETATM    8  C   UNK N   1      27.171  27.467  -7.109  0.00  0.00     0.008 A 
ENDBRANCH   1   2
BRANCH   1   9
HETATM    9  C   UNK N   1      25.773  24.056  -7.448  0.00  0.00     0.146 C 
BRANCH   9  10
HETATM   10  S   UNK N   1      27.391  23.339  -6.996  0.00  0.00    -0.166 SA
HETATM   11  H   UNK N   1      28.632  22.960  -7.403  0.00  0.00     0.102 HD
ENDBRANCH   9  10
BRANCH   9  12
HETATM   12  C   UNK N   1      25.143  23.164  -8.486  0.00  0.00     0.154 C 
HETATM   13  O   UNK N   1      25.495  23.250  -9.653  0.00  0.00    -0.649 OA
BRANCH  12  14
HETATM   14  O   UNK N   1      24.184  22.279  -8.148  0.00  0.00    -0.775 OA
HETATM   15  H   UNK N   1      23.352  22.303  -8.577  0.00  0.00     0.167 HD
ENDBRANCH  12  14
ENDBRANCH   9  12
ENDBRANCH   1   9
TORSDOF 5
ENDMDL
MODEL 5
REMARK VINA RESULT:      -4.8      8.846     10.336
REMARK  5 active torsions:
REMARK  status: ('A' for Active; 'I' for Inactive)
REMARK    1  A    between atoms: C_7  and  C_8 
REMARK    2  A    between atoms: C_8  and  C_9 
REMARK    3  A    between atoms: C_9  and  S_10 
REMARK    4  A    between atoms: C_9  and  C_11 
REMARK    5  A    between atoms: C_11  and  O_13 
ROOT
HETATM    1  C   UNK N   1      26.489  19.917   3.904  0.00  0.00     0.064 C 
ENDROOT
BRANCH   1   2
HETATM    2  C   UNK N   1      27.247  19.383   5.090  0.00  0.00    -0.057 A 
HETATM    3  C   UNK N   1      28.109  18.278   4.995  0.00  0.00     0.008 A 
HETATM    4  C   UNK N   1      28.857  17.870   6.102  0.00  0.00     0.019 A 
HETATM    5  C   UNK N   1      28.747  18.561   7.312  0.00  0.00     0.006 A 
HETATM    6  I   UNK N   1      29.927  17.995   8.958  0.00  0.00    -0.045 I 
HETATM    7  C   UNK N   1      27.874  19.647   7.420  0.00  0.00     0.019 A 
HETATM    8  C   UNK N   1      27.126  20.054   6.311  0.00  0.00     0.008 A 
ENDBRANCH   1   2
BRANCH   1   9
HETATM    9  C   UNK N   1      24.959  19.998   4.037  0.00  0.00     0.146 C 
BRANCH   9  10
HETATM   10  S   UNK N   1      24.237  18.323   4.139  0.00  0.00    -0.166 SA
HETATM   11  H   UNK N   1      23.127  17.561   4.334  0.00  0.00     0.102 HD
ENDBRANCH   9  10
BRANCH   9  12
HETATM   12  C   UNK N   1      24.360  20.689   2.840  0.00  0.00     0.154 C 
HETATM   13  O   UNK N   1      24.990  20.745   1.794  0.00  0.00    -0.649 OA
BRANCH  12  14
HETATM   14  O   UNK N   1      23.142  21.263   2.909  0.00  0.00    -0.775 OA
HETATM   15  H   UNK N   1      22.934  21.990   2.357  0.00  0.00     0.167 HD
ENDBRANCH  12  14
ENDBRANCH   9  12
ENDBRANCH   1   9
TORSDOF 5
ENDMDL
MODEL 6
REMARK VINA RESULT:      -4.8      5.239      6.870
REMARK  5 active torsions:
REMARK  status: ('A' for Active; 'I' for Inactive)
REMARK    1  A    between atoms: C_7  and  C_8 
REMARK    2  A    between atoms: C_8  and  C_9 
REMARK    3  A    between atoms: C_9  and  S_10 
REMARK    4  A    between atoms: C_9  and  C_11 
REMARK    5  A    between atoms: C_11  and  O_13 
ROOT
HETATM    1  C   UNK N   1      32.267  16.868   7.983  0.00  0.00     0.064 C 
ENDROOT
BRANCH   1   2
HETATM    2  C   UNK N   1      31.053  17.211   7.163  0.00  0.00    -0.057 A 
HETATM    3  C   UNK N   1      29.854  17.656   7.745  0.00  0.00     0.008 A 
HETATM    4  C   UNK N   1      28.781  18.044   6.939  0.00  0.00     0.019 A 
HETATM    5  C   UNK N   1      28.898  17.990   5.547  0.00  0.00     0.006 A 
HETATM    6  I   UNK N   1      27.311  18.645   4.332  0.00  0.00    -0.045 I 
HETATM    7  C   UNK N   1      30.080  17.528   4.962  0.00  0.00     0.019 A 
HETATM    8  C   UNK N   1      31.152  17.138   5.769  0.00  0.00     0.008 A 
ENDBRANCH   1   2
BRANCH   1   9
HETATM    9  C   UNK N   1      33.628  17.342   7.443  0.00  0.00     0.146 C 
BRANCH   9  10
HETATM   10  S   UNK N   1      34.590  15.927   6.805  0.00  0.00    -0.166 SA
HETATM   11  H   UNK N   1      34.831  15.076   5.772  0.00  0.00     0.102 HD
ENDBRANCH   9  10
BRANCH   9  12
HETATM   12  C   UNK N   1      34.432  17.996   8.537  0.00  0.00     0.154 C 
HETATM   13  O   UNK N   1      35.019  19.044   8.313  0.00  0.00    -0.649 OA
BRANCH  12  14
HETATM   14  O   UNK N   1      34.528  17.433   9.758  0.00  0.00    -0.775 OA
HETATM   15  H   UNK N   1      35.347  17.090  10.053  0.00  0.00     0.167 HD
ENDBRANCH  12  14
ENDBRANCH   9  12
ENDBRANCH   1   9
TORSDOF 5
ENDMDL
MODEL 7
REMARK VINA RESULT:      -4.6      4.326      5.691
REMARK  5 active torsions:
REMARK  status: ('A' for Active; 'I' for Inactive)
REMARK    1  A    between atoms: C_7  and  C_8 
REMARK    2  A    between atoms: C_8  and  C_9 
REMARK    3  A    between atoms: C_9  and  S_10 
REMARK    4  A    between atoms: C_9  and  C_11 
REMARK    5  A    between atoms: C_11  and  O_13 
ROOT
HETATM    1  C   UNK N   1      33.566  15.870   9.457  0.00  0.00     0.064 C 
ENDROOT
BRANCH   1   2
HETATM    2  C   UNK N   1      33.237  16.165   8.019  0.00  0.00    -0.057 A 
HETATM    3  C   UNK N   1      33.808  17.244   7.324  0.00  0.00     0.008 A 
HETATM    4  C   UNK N   1      33.539  17.429   5.965  0.00  0.00     0.019 A 
HETATM    5  C   UNK N   1      32.696  16.539   5.293  0.00  0.00     0.006 A 
HETATM    6  I   UNK N   1      32.350  16.772   3.232  0.00  0.00    -0.045 I 
HETATM    7  C   UNK N   1      32.106  15.477   5.984  0.00  0.00     0.019 A 
HETATM    8  C   UNK N   1      32.376  15.294   7.343  0.00  0.00     0.008 A 
ENDBRANCH   1   2
BRANCH   1   9
HETATM    9  C   UNK N   1      34.964  15.298   9.747  0.00  0.00     0.146 C 
BRANCH   9  10
HETATM   10  S   UNK N   1      34.848  13.863  10.871  0.00  0.00    -0.166 SA
HETATM   11  H   UNK N   1      34.339  13.343  12.020  0.00  0.00     0.102 HD
ENDBRANCH   9  10
BRANCH   9  12
HETATM   12  C   UNK N   1      35.833  16.336  10.408  0.00  0.00     0.154 C 
HETATM   13  O   UNK N   1      35.462  17.500  10.451  0.00  0.00    -0.649 OA
BRANCH  12  14
HETATM   14  O   UNK N   1      37.025  16.004  10.943  0.00  0.00    -0.775 OA
HETATM   15  H   UNK N   1      37.716  15.693  10.392  0.00  0.00     0.167 HD
ENDBRANCH  12  14
ENDBRANCH   9  12
ENDBRANCH   1   9
TORSDOF 5
ENDMDL
MODEL 8
REMARK VINA RESULT:      -4.6     13.566     14.343
REMARK  5 active torsions:
REMARK  status: ('A' for Active; 'I' for Inactive)
REMARK    1  A    between atoms: C_7  and  C_8 
REMARK    2  A    between atoms: C_8  and  C_9 
REMARK    3  A    between atoms: C_9  and  S_10 
REMARK    4  A    between atoms: C_9  and  C_11 
REMARK    5  A    between atoms: C_11  and  O_13 
ROOT
HETATM    1  C   UNK N   1      22.400  18.832   3.954  0.00  0.00     0.064 C 
ENDROOT
BRANCH   1   2
HETATM    2  C   UNK N   1      22.095  17.930   5.120  0.00  0.00    -0.057 A 
HETATM    3  C   UNK N   1      21.159  18.273   6.109  0.00  0.00     0.008 A 
HETATM    4  C   UNK N   1      20.846  17.368   7.127  0.00  0.00     0.019 A 
HETATM    5  C   UNK N   1      21.466  16.117   7.164  0.00  0.00     0.006 A 
HETATM    6  I   UNK N   1      20.941  14.725   8.650  0.00  0.00    -0.045 I 
HETATM    7  C   UNK N   1      22.415  15.778   6.195  0.00  0.00     0.019 A 
HETATM    8  C   UNK N   1      22.728  16.685   5.178  0.00  0.00     0.008 A 
ENDBRANCH   1   2
BRANCH   1   9
HETATM    9  C   UNK N   1      21.199  19.490   3.251  0.00  0.00     0.146 C 
BRANCH   9  10
HETATM   10  S   UNK N   1      20.300  18.263   2.240  0.00  0.00    -0.166 SA
HETATM   11  H   UNK N   1      19.100  17.794   1.803  0.00  0.00     0.102 HD
ENDBRANCH   9  10
BRANCH   9  12
HETATM   12  C   UNK N   1      21.661  20.595   2.338  0.00  0.00     0.154 C 
HETATM   13  O   UNK N   1      21.596  20.447   1.127  0.00  0.00    -0.649 OA
BRANCH  12  14
HETATM   14  O   UNK N   1      22.161  21.743   2.837  0.00  0.00    -0.775 OA
HETATM   15  H   UNK N   1      23.042  21.774   3.152  0.00  0.00     0.167 HD
ENDBRANCH  12  14
ENDBRANCH   9  12
ENDBRANCH   1   9
TORSDOF 5
ENDMDL
MODEL 9
REMARK VINA RESULT:      -4.6     20.119     21.273
REMARK  5 active torsions:
REMARK  status: ('A' for Active; 'I' for Inactive)
REMARK    1  A    between atoms: C_7  and  C_8 
REMARK    2  A    between atoms: C_8  and  C_9 
REMARK    3  A    between atoms: C_9  and  S_10 
REMARK    4  A    between atoms: C_9  and  C_11 
REMARK    5  A    between atoms: C_11  and  O_13 
ROOT
HETATM    1  C   UNK N   1      25.754  25.816  -7.233  0.00  0.00     0.064 C 
ENDROOT
BRANCH   1   2
HETATM    2  C   UNK N   1      26.012  26.999  -6.339  0.00  0.00    -0.057 A 
HETATM    3  C   UNK N   1      25.233  27.264  -5.200  0.00  0.00     0.008 A 
HETATM    4  C   UNK N   1      25.562  28.324  -4.352  0.00  0.00     0.019 A 
HETATM    5  C   UNK N   1      26.670  29.127  -4.636  0.00  0.00     0.006 A 
HETATM    6  I   UNK N   1      27.211  30.676  -3.320  0.00  0.00    -0.045 I 
HETATM    7  C   UNK N   1      27.436  28.883  -5.779  0.00  0.00     0.019 A 
HETATM    8  C   UNK N   1      27.105  27.822  -6.627  0.00  0.00     0.008 A 
ENDBRANCH   1   2
BRANCH   1   9
HETATM    9  C   UNK N   1      26.598  24.556  -6.980  0.00  0.00     0.146 C 
BRANCH   9  10
HETATM   10  S   UNK N   1      26.779  23.588  -8.519  0.00  0.00    -0.166 SA
HETATM   11  H   UNK N   1      26.219  22.714  -9.398  0.00  0.00     0.102 HD
ENDBRANCH   9  10
BRANCH   9  12
HETATM   12  C   UNK N   1      25.938  23.675  -5.951  0.00  0.00     0.154 C 
HETATM   13  O   UNK N   1      25.203  22.768  -6.313  0.00  0.00    -0.649 OA
BRANCH  12  14
HETATM   14  O   UNK N   1      26.135  23.880  -4.634  0.00  0.00    -0.775 OA
HETATM   15  H   UNK N   1      25.983  24.727  -4.264  0.00  0.00     0.167 HD
ENDBRANCH  12  14
ENDBRANCH   9  12
ENDBRANCH   1   9
TORSDOF 5
ENDMDL
