REMARK  2 active torsions:
REMARK  status: ('A' for Active; 'I' for Inactive)
REMARK    1  A    between atoms: C_2  and  N_20 
REMARK    2  A    between atoms: N_20  and  O_22 
ROOT
HETATM    1  C   UNK N   1      -0.908   2.271  -0.000  0.00  0.00     0.021 A 
HETATM    2  C   UNK N   1       0.001   1.134  -0.000  0.00  0.00     0.094 A 
HETATM    3  C   UNK N   1      -2.194   1.774   0.000  0.00  0.00     0.045 A 
HETATM    4  N   UNK N   1      -2.213   0.359   0.000  0.00  0.00    -0.353 N 
HETATM    5  C   UNK N   1      -3.299   2.622   0.000  0.00  0.00     0.030 A 
HETATM    6  C   UNK N   1      -3.066   4.011   0.000  0.00  0.00     0.002 A 
HETATM    7  C   UNK N   1      -1.749   4.517  -0.000  0.00  0.00     0.001 A 
HETATM    8  C   UNK N   1      -0.652   3.641  -0.000  0.00  0.00     0.016 A 
HETATM    9  C   UNK N   1      -0.857  -0.069   0.000  0.00  0.00     0.079 A 
HETATM   10  C   UNK N   1      -0.490  -1.372   0.000  0.00  0.00     0.073 A 
HETATM   11  C   UNK N   1      -1.385  -2.547   0.000  0.00  0.00     0.259 A 
HETATM   12  N   UNK N   1      -0.676  -3.696  -0.000  0.00  0.00    -0.322 N 
HETATM   13  C   UNK N   1       0.689  -3.339  -0.000  0.00  0.00     0.046 A 
HETATM   14  C   UNK N   1       0.854  -1.970   0.000  0.00  0.00     0.009 A 
HETATM   15  C   UNK N   1       1.775  -4.211  -0.000  0.00  0.00     0.030 A 
HETATM   16  C   UNK N   1       3.067  -3.656   0.000  0.00  0.00     0.002 A 
HETATM   17  C   UNK N   1       3.243  -2.258   0.000  0.00  0.00     0.001 A 
HETATM   18  C   UNK N   1       2.129  -1.406   0.000  0.00  0.00     0.015 A 
HETATM   19  O   UNK N   1      -2.607  -2.519  -0.000  0.00  0.00    -0.267 OA
HETATM   20  H   UNK N   1      -3.011  -0.217   0.000  0.00  0.00     0.166 HD
HETATM   21  H   UNK N   1      -1.042  -4.609  -0.000  0.00  0.00     0.169 HD
ENDROOT
BRANCH   2  22
HETATM   22  N   UNK N   1       1.286   1.176  -0.000  0.00  0.00    -0.266 N 
ATOM     23  HN  UNK N   1       1.814   0.304  -0.000  1.00  0.00     0.194 HD
BRANCH  22  24
HETATM   24  O   UNK N   1       1.934   2.321  -0.000  0.00  0.00    -0.289 OA
HETATM   25  H   UNK N   1       2.871   2.329  -0.000  0.00  0.00     0.244 HD
ENDBRANCH  22  24
ENDBRANCH   2  22
TORSDOF 2
