MODEL 1
REMARK VINA RESULT:      -7.3      0.000      0.000
REMARK  2 active torsions:
REMARK  status: ('A' for Active; 'I' for Inactive)
REMARK    1  A    between atoms: C_2  and  N_20 
REMARK    2  A    between atoms: N_20  and  O_22 
ROOT
HETATM    1  C   UNK N   1      35.626  14.098  12.624  0.00  0.00     0.021 A 
HETATM    2  C   UNK N   1      35.265  14.904  11.467  0.00  0.00     0.094 A 
HETATM    3  C   UNK N   1      35.031  12.864  12.471  0.00  0.00     0.045 A 
HETATM    4  N   UNK N   1      34.283  12.783  11.273  0.00  0.00    -0.353 N 
HETATM    5  C   UNK N   1      35.189  11.860  13.424  0.00  0.00     0.030 A 
HETATM    6  C   UNK N   1      35.979  12.142  14.556  0.00  0.00     0.002 A 
HETATM    7  C   UNK N   1      36.587  13.405  14.709  0.00  0.00     0.001 A 
HETATM    8  C   UNK N   1      36.412  14.400  13.735  0.00  0.00     0.016 A 
HETATM    9  C   UNK N   1      34.411  14.042  10.625  0.00  0.00     0.079 A 
HETATM   10  C   UNK N   1      33.822  14.330   9.440  0.00  0.00     0.073 A 
HETATM   11  C   UNK N   1      32.973  13.434   8.629  0.00  0.00     0.259 A 
HETATM   12  N   UNK N   1      32.553  14.051   7.504  0.00  0.00    -0.322 N 
HETATM   13  C   UNK N   1      33.095  15.354   7.521  0.00  0.00     0.046 A 
HETATM   14  C   UNK N   1      33.857  15.570   8.650  0.00  0.00     0.009 A 
HETATM   15  C   UNK N   1      32.920  16.338   6.552  0.00  0.00     0.030 A 
HETATM   16  C   UNK N   1      33.547  17.581   6.752  0.00  0.00     0.002 A 
HETATM   17  C   UNK N   1      34.326  17.809   7.904  0.00  0.00     0.001 A 
HETATM   18  C   UNK N   1      34.484  16.797   8.862  0.00  0.00     0.015 A 
HETATM   19  O   UNK N   1      32.670  12.283   8.909  0.00  0.00    -0.267 OA
HETATM   20  H   UNK N   1      33.773  12.005  10.951  0.00  0.00     0.166 HD
HETATM   21  H   UNK N   1      31.979  13.665   6.805  0.00  0.00     0.169 HD
ENDROOT
BRANCH   2  22
HETATM   22  N   UNK N   1      35.621  16.117  11.233  0.00  0.00    -0.266 N 
ATOM     23  HN  UNK N   1      34.935  16.865  11.324  1.00  0.00     0.194 HD
BRANCH  22  24
HETATM   24  O   UNK N   1      36.853  16.414  10.878  0.00  0.00    -0.289 OA
HETATM   25  H   UNK N   1      37.389  16.938  11.440  0.00  0.00     0.244 HD
ENDBRANCH  22  24
ENDBRANCH   2  22
TORSDOF 2
ENDMDL
MODEL 2
REMARK VINA RESULT:      -7.2     17.032     19.879
REMARK  2 active torsions:
REMARK  status: ('A' for Active; 'I' for Inactive)
REMARK    1  A    between atoms: C_2  and  N_20 
REMARK    2  A    between atoms: N_20  and  O_22 
ROOT
HETATM    1  C   UNK N   1      26.462  25.491  -5.426  0.00  0.00     0.021 A 
HETATM    2  C   UNK N   1      27.263  24.322  -5.760  0.00  0.00     0.094 A 
HETATM    3  C   UNK N   1      26.956  26.010  -4.249  0.00  0.00     0.045 A 
HETATM    4  N   UNK N   1      28.051  25.259  -3.759  0.00  0.00    -0.353 N 
HETATM    5  C   UNK N   1      26.395  27.143  -3.664  0.00  0.00     0.030 A 
HETATM    6  C   UNK N   1      25.301  27.748  -4.313  0.00  0.00     0.002 A 
HETATM    7  C   UNK N   1      24.798  27.215  -5.518  0.00  0.00     0.001 A 
HETATM    8  C   UNK N   1      25.381  26.072  -6.087  0.00  0.00     0.016 A 
HETATM    9  C   UNK N   1      28.266  24.199  -4.682  0.00  0.00     0.079 A 
HETATM   10  C   UNK N   1      29.242  23.272  -4.534  0.00  0.00     0.073 A 
HETATM   11  C   UNK N   1      30.227  23.187  -3.436  0.00  0.00     0.259 A 
HETATM   12  N   UNK N   1      31.054  22.134  -3.608  0.00  0.00    -0.322 N 
HETATM   13  C   UNK N   1      30.662  21.491  -4.801  0.00  0.00     0.046 A 
HETATM   14  C   UNK N   1      29.589  22.128  -5.390  0.00  0.00     0.009 A 
HETATM   15  C   UNK N   1      31.243  20.357  -5.363  0.00  0.00     0.030 A 
HETATM   16  C   UNK N   1      30.704  19.865  -6.565  0.00  0.00     0.002 A 
HETATM   17  C   UNK N   1      29.608  20.511  -7.172  0.00  0.00     0.001 A 
HETATM   18  C   UNK N   1      29.045  21.651  -6.582  0.00  0.00     0.015 A 
HETATM   19  O   UNK N   1      30.309  23.950  -2.485  0.00  0.00    -0.267 OA
HETATM   20  H   UNK N   1      28.565  25.437  -2.939  0.00  0.00     0.166 HD
HETATM   21  H   UNK N   1      31.791  21.867  -3.014  0.00  0.00     0.169 HD
ENDROOT
BRANCH   2  22
HETATM   22  N   UNK N   1      27.121  23.558  -6.784  0.00  0.00    -0.266 N 
ATOM     23  HN  UNK N   1      27.875  23.493  -7.467  1.00  0.00     0.194 HD
BRANCH  22  24
HETATM   24  O   UNK N   1      26.022  22.859  -6.971  0.00  0.00    -0.289 OA
HETATM   25  H   UNK N   1      25.246  23.281  -7.282  0.00  0.00     0.244 HD
ENDBRANCH  22  24
ENDBRANCH   2  22
TORSDOF 2
ENDMDL
MODEL 3
REMARK VINA RESULT:      -7.1      5.155      7.636
REMARK  2 active torsions:
REMARK  status: ('A' for Active; 'I' for Inactive)
REMARK    1  A    between atoms: C_2  and  N_20 
REMARK    2  A    between atoms: N_20  and  O_22 
ROOT
HETATM    1  C   UNK N   1      31.723  16.030   6.209  0.00  0.00     0.021 A 
HETATM    2  C   UNK N   1      30.697  16.977   5.795  0.00  0.00     0.094 A 
HETATM    3  C   UNK N   1      31.634  15.894   7.578  0.00  0.00     0.045 A 
HETATM    4  N   UNK N   1      30.604  16.697   8.122  0.00  0.00    -0.353 N 
HETATM    5  C   UNK N   1      32.491  15.049   8.279  0.00  0.00     0.030 A 
HETATM    6  C   UNK N   1      33.457  14.331   7.547  0.00  0.00     0.002 A 
HETATM    7  C   UNK N   1      33.545  14.472   6.146  0.00  0.00     0.001 A 
HETATM    8  C   UNK N   1      32.670  15.331   5.463  0.00  0.00     0.016 A 
HETATM    9  C   UNK N   1      30.001  17.384   7.033  0.00  0.00     0.079 A 
HETATM   10  C   UNK N   1      28.969  18.248   7.181  0.00  0.00     0.073 A 
HETATM   11  C   UNK N   1      28.302  18.628   8.442  0.00  0.00     0.259 A 
HETATM   12  N   UNK N   1      27.310  19.516   8.217  0.00  0.00    -0.322 N 
HETATM   13  C   UNK N   1      27.279  19.757   6.828  0.00  0.00     0.046 A 
HETATM   14  C   UNK N   1      28.245  19.029   6.166  0.00  0.00     0.009 A 
HETATM   15  C   UNK N   1      26.409  20.610   6.153  0.00  0.00     0.030 A 
HETATM   16  C   UNK N   1      26.539  20.715   4.756  0.00  0.00     0.002 A 
HETATM   17  C   UNK N   1      27.523  19.973   4.074  0.00  0.00     0.001 A 
HETATM   18  C   UNK N   1      28.385  19.123   4.782  0.00  0.00     0.015 A 
HETATM   19  O   UNK N   1      28.583  18.213   9.557  0.00  0.00    -0.267 OA
HETATM   20  H   UNK N   1      30.353  16.765   9.071  0.00  0.00     0.166 HD
HETATM   21  H   UNK N   1      26.720  19.918   8.894  0.00  0.00     0.169 HD
ENDROOT
BRANCH   2  22
HETATM   22  N   UNK N   1      30.453  17.372   4.596  0.00  0.00    -0.266 N 
ATOM     23  HN  UNK N   1      29.534  17.198   4.191  1.00  0.00     0.194 HD
BRANCH  22  24
HETATM   24  O   UNK N   1      31.364  17.997   3.882  0.00  0.00    -0.289 OA
HETATM   25  H   UNK N   1      31.986  17.505   3.383  0.00  0.00     0.244 HD
ENDBRANCH  22  24
ENDBRANCH   2  22
TORSDOF 2
ENDMDL
MODEL 4
REMARK VINA RESULT:      -6.9      5.580      9.597
REMARK  2 active torsions:
REMARK  status: ('A' for Active; 'I' for Inactive)
REMARK    1  A    between atoms: C_2  and  N_20 
REMARK    2  A    between atoms: N_20  and  O_22 
ROOT
HETATM    1  C   UNK N   1      27.762  19.140   4.725  0.00  0.00     0.021 A 
HETATM    2  C   UNK N   1      28.925  18.398   5.189  0.00  0.00     0.094 A 
HETATM    3  C   UNK N   1      26.990  19.434   5.830  0.00  0.00     0.045 A 
HETATM    4  N   UNK N   1      27.564  18.933   7.023  0.00  0.00    -0.353 N 
HETATM    5  C   UNK N   1      25.798  20.144   5.713  0.00  0.00     0.030 A 
HETATM    6  C   UNK N   1      25.398  20.558   4.427  0.00  0.00     0.002 A 
HETATM    7  C   UNK N   1      26.190  20.255   3.299  0.00  0.00     0.001 A 
HETATM    8  C   UNK N   1      27.388  19.538   3.443  0.00  0.00     0.016 A 
HETATM    9  C   UNK N   1      28.772  18.281   6.654  0.00  0.00     0.079 A 
HETATM   10  C   UNK N   1      29.593  17.679   7.547  0.00  0.00     0.073 A 
HETATM   11  C   UNK N   1      29.400  17.586   9.008  0.00  0.00     0.259 A 
HETATM   12  N   UNK N   1      30.416  16.913   9.589  0.00  0.00    -0.322 N 
HETATM   13  C   UNK N   1      31.306  16.539   8.559  0.00  0.00     0.046 A 
HETATM   14  C   UNK N   1      30.863  16.970   7.327  0.00  0.00     0.009 A 
HETATM   15  C   UNK N   1      32.494  15.827   8.707  0.00  0.00     0.030 A 
HETATM   16  C   UNK N   1      33.246  15.552   7.551  0.00  0.00     0.002 A 
HETATM   17  C   UNK N   1      32.799  15.989   6.288  0.00  0.00     0.001 A 
HETATM   18  C   UNK N   1      31.598  16.704   6.172  0.00  0.00     0.015 A 
HETATM   19  O   UNK N   1      28.459  18.045   9.639  0.00  0.00    -0.267 OA
HETATM   20  H   UNK N   1      27.196  19.020   7.931  0.00  0.00     0.166 HD
HETATM   21  H   UNK N   1      30.517  16.719  10.548  0.00  0.00     0.169 HD
ENDROOT
BRANCH   2  22
HETATM   22  N   UNK N   1      29.885  17.941   4.466  0.00  0.00    -0.266 N 
ATOM     23  HN  UNK N   1      30.847  18.175   4.707  1.00  0.00     0.194 HD
BRANCH  22  24
HETATM   24  O   UNK N   1      29.651  17.176   3.421  0.00  0.00    -0.289 OA
HETATM   25  H   UNK N   1      30.276  16.527   3.166  0.00  0.00     0.244 HD
ENDBRANCH  22  24
ENDBRANCH   2  22
TORSDOF 2
ENDMDL
MODEL 5
REMARK VINA RESULT:      -6.8      5.610      9.217
REMARK  2 active torsions:
REMARK  status: ('A' for Active; 'I' for Inactive)
REMARK    1  A    between atoms: C_2  and  N_20 
REMARK    2  A    between atoms: N_20  and  O_22 
ROOT
HETATM    1  C   UNK N   1      27.457  16.477   4.409  0.00  0.00     0.021 A 
HETATM    2  C   UNK N   1      28.824  16.681   4.866  0.00  0.00     0.094 A 
HETATM    3  C   UNK N   1      26.624  16.678   5.489  0.00  0.00     0.045 A 
HETATM    4  N   UNK N   1      27.348  17.008   6.660  0.00  0.00    -0.353 N 
HETATM    5  C   UNK N   1      25.242  16.553   5.372  0.00  0.00     0.030 A 
HETATM    6  C   UNK N   1      24.713  16.215   4.111  0.00  0.00     0.002 A 
HETATM    7  C   UNK N   1      25.567  16.010   3.007  0.00  0.00     0.001 A 
HETATM    8  C   UNK N   1      26.958  16.141   3.152  0.00  0.00     0.016 A 
HETATM    9  C   UNK N   1      28.724  17.018   6.301  0.00  0.00     0.079 A 
HETATM   10  C   UNK N   1      29.717  17.297   7.177  0.00  0.00     0.073 A 
HETATM   11  C   UNK N   1      29.571  17.630   8.609  0.00  0.00     0.259 A 
HETATM   12  N   UNK N   1      30.774  17.850   9.180  0.00  0.00    -0.322 N 
HETATM   13  C   UNK N   1      31.748  17.677   8.174  0.00  0.00     0.046 A 
HETATM   14  C   UNK N   1      31.172  17.347   6.965  0.00  0.00     0.009 A 
HETATM   15  C   UNK N   1      33.126  17.808   8.320  0.00  0.00     0.030 A 
HETATM   16  C   UNK N   1      33.934  17.593   7.189  0.00  0.00     0.002 A 
HETATM   17  C   UNK N   1      33.352  17.256   5.951  0.00  0.00     0.001 A 
HETATM   18  C   UNK N   1      31.960  17.131   5.835  0.00  0.00     0.015 A 
HETATM   19  O   UNK N   1      28.518  17.704   9.225  0.00  0.00    -0.267 OA
HETATM   20  H   UNK N   1      26.971  17.195   7.549  0.00  0.00     0.166 HD
HETATM   21  H   UNK N   1      30.941  18.087  10.120  0.00  0.00     0.169 HD
ENDROOT
BRANCH   2  22
HETATM   22  N   UNK N   1      29.893  16.586   4.159  0.00  0.00    -0.266 N 
ATOM     23  HN  UNK N   1      30.672  16.025   4.504  1.00  0.00     0.194 HD
BRANCH  22  24
HETATM   24  O   UNK N   1      30.005  17.198   3.000  0.00  0.00    -0.289 OA
HETATM   25  H   UNK N   1      30.782  17.682   2.798  0.00  0.00     0.244 HD
ENDBRANCH  22  24
ENDBRANCH   2  22
TORSDOF 2
ENDMDL
MODEL 6
REMARK VINA RESULT:      -6.8      4.392      7.717
REMARK  2 active torsions:
REMARK  status: ('A' for Active; 'I' for Inactive)
REMARK    1  A    between atoms: C_2  and  N_20 
REMARK    2  A    between atoms: N_20  and  O_22 
ROOT
HETATM    1  C   UNK N   1      36.987  12.774  12.173  0.00  0.00     0.021 A 
HETATM    2  C   UNK N   1      36.574  12.925  13.561  0.00  0.00     0.094 A 
HETATM    3  C   UNK N   1      37.324  11.451  11.982  0.00  0.00     0.045 A 
HETATM    4  N   UNK N   1      37.165  10.689  13.164  0.00  0.00    -0.353 N 
HETATM    5  C   UNK N   1      37.764  10.986  10.744  0.00  0.00     0.030 A 
HETATM    6  C   UNK N   1      37.855  11.911   9.686  0.00  0.00     0.002 A 
HETATM    7  C   UNK N   1      37.509  13.264   9.884  0.00  0.00     0.001 A 
HETATM    8  C   UNK N   1      37.068  13.707  11.141  0.00  0.00     0.016 A 
HETATM    9  C   UNK N   1      36.697  11.583  14.166  0.00  0.00     0.079 A 
HETATM   10  C   UNK N   1      36.432  11.198  15.437  0.00  0.00     0.073 A 
HETATM   11  C   UNK N   1      36.570   9.841  16.002  0.00  0.00     0.259 A 
HETATM   12  N   UNK N   1      36.217   9.820  17.305  0.00  0.00    -0.322 N 
HETATM   13  C   UNK N   1      35.838  11.134  17.651  0.00  0.00     0.046 A 
HETATM   14  C   UNK N   1      35.948  11.992  16.577  0.00  0.00     0.009 A 
HETATM   15  C   UNK N   1      35.402  11.571  18.900  0.00  0.00     0.030 A 
HETATM   16  C   UNK N   1      35.069  12.929  19.045  0.00  0.00     0.002 A 
HETATM   17  C   UNK N   1      35.179  13.811  17.952  0.00  0.00     0.001 A 
HETATM   18  C   UNK N   1      35.622  13.341  16.707  0.00  0.00     0.015 A 
HETATM   19  O   UNK N   1      36.949   8.847  15.399  0.00  0.00    -0.267 OA
HETATM   20  H   UNK N   1      37.343   9.727  13.270  0.00  0.00     0.166 HD
HETATM   21  H   UNK N   1      36.223   9.037  17.900  0.00  0.00     0.169 HD
ENDROOT
BRANCH   2  22
HETATM   22  N   UNK N   1      36.183  14.007  14.134  0.00  0.00    -0.266 N 
ATOM     23  HN  UNK N   1      35.243  14.054  14.524  1.00  0.00     0.194 HD
BRANCH  22  24
HETATM   24  O   UNK N   1      36.973  15.055  14.229  0.00  0.00    -0.289 OA
HETATM   25  H   UNK N   1      36.719  15.869  13.841  0.00  0.00     0.244 HD
ENDBRANCH  22  24
ENDBRANCH   2  22
TORSDOF 2
ENDMDL
MODEL 7
REMARK VINA RESULT:      -6.8     17.208     19.781
REMARK  2 active torsions:
REMARK  status: ('A' for Active; 'I' for Inactive)
REMARK    1  A    between atoms: C_2  and  N_20 
REMARK    2  A    between atoms: N_20  and  O_22 
ROOT
HETATM    1  C   UNK N   1      29.764  22.104  -5.147  0.00  0.00     0.021 A 
HETATM    2  C   UNK N   1      28.945  23.262  -4.818  0.00  0.00     0.094 A 
HETATM    3  C   UNK N   1      29.355  21.645  -6.381  0.00  0.00     0.045 A 
HETATM    4  N   UNK N   1      28.302  22.426  -6.913  0.00  0.00    -0.353 N 
HETATM    5  C   UNK N   1      29.953  20.537  -6.977  0.00  0.00     0.030 A 
HETATM    6  C   UNK N   1      30.994  19.893  -6.279  0.00  0.00     0.002 A 
HETATM    7  C   UNK N   1      31.410  20.365  -5.017  0.00  0.00     0.001 A 
HETATM    8  C   UNK N   1      30.791  21.485  -4.438  0.00  0.00     0.016 A 
HETATM    9  C   UNK N   1      28.024  23.443  -5.959  0.00  0.00     0.079 A 
HETATM   10  C   UNK N   1      27.065  24.382  -6.133  0.00  0.00     0.073 A 
HETATM   11  C   UNK N   1      26.163  24.526  -7.294  0.00  0.00     0.259 A 
HETATM   12  N   UNK N   1      25.329  25.576  -7.133  0.00  0.00    -0.322 N 
HETATM   13  C   UNK N   1      25.636  26.159  -5.885  0.00  0.00     0.046 A 
HETATM   14  C   UNK N   1      26.660  25.488  -5.251  0.00  0.00     0.009 A 
HETATM   15  C   UNK N   1      25.020  27.270  -5.314  0.00  0.00     0.030 A 
HETATM   16  C   UNK N   1      25.472  27.700  -4.054  0.00  0.00     0.002 A 
HETATM   17  C   UNK N   1      26.518  27.019  -3.400  0.00  0.00     0.001 A 
HETATM   18  C   UNK N   1      27.118  25.903  -4.001  0.00  0.00     0.015 A 
HETATM   19  O   UNK N   1      26.147  23.810  -8.284  0.00  0.00    -0.267 OA
HETATM   20  H   UNK N   1      27.849  22.290  -7.776  0.00  0.00     0.166 HD
HETATM   21  H   UNK N   1      24.639  25.877  -7.765  0.00  0.00     0.169 HD
ENDROOT
BRANCH   2  22
HETATM   22  N   UNK N   1      29.015  23.975  -3.750  0.00  0.00    -0.266 N 
ATOM     23  HN  UNK N   1      29.204  24.974  -3.829  1.00  0.00     0.194 HD
BRANCH  22  24
HETATM   24  O   UNK N   1      28.847  23.443  -2.559  0.00  0.00    -0.289 OA
HETATM   25  H   UNK N   1      27.999  23.443  -2.161  0.00  0.00     0.244 HD
ENDBRANCH  22  24
ENDBRANCH   2  22
TORSDOF 2
ENDMDL
MODEL 8
REMARK VINA RESULT:      -6.7      2.010      6.131
REMARK  2 active torsions:
REMARK  status: ('A' for Active; 'I' for Inactive)
REMARK    1  A    between atoms: C_2  and  N_20 
REMARK    2  A    between atoms: N_20  and  O_22 
ROOT
HETATM    1  C   UNK N   1      34.419  16.231   8.442  0.00  0.00     0.021 A 
HETATM    2  C   UNK N   1      34.844  15.625   9.696  0.00  0.00     0.094 A 
HETATM    3  C   UNK N   1      34.884  15.434   7.418  0.00  0.00     0.045 A 
HETATM    4  N   UNK N   1      35.603  14.316   7.903  0.00  0.00    -0.353 N 
HETATM    5  C   UNK N   1      34.638  15.752   6.084  0.00  0.00     0.030 A 
HETATM    6  C   UNK N   1      33.897  16.917   5.808  0.00  0.00     0.002 A 
HETATM    7  C   UNK N   1      33.423  17.731   6.858  0.00  0.00     0.001 A 
HETATM    8  C   UNK N   1      33.684  17.389   8.194  0.00  0.00     0.016 A 
HETATM    9  C   UNK N   1      35.594  14.408   9.322  0.00  0.00     0.079 A 
HETATM   10  C   UNK N   1      36.193  13.500  10.128  0.00  0.00     0.073 A 
HETATM   11  C   UNK N   1      36.935  12.294   9.709  0.00  0.00     0.259 A 
HETATM   12  N   UNK N   1      37.399  11.615  10.780  0.00  0.00    -0.322 N 
HETATM   13  C   UNK N   1      36.992  12.326  11.929  0.00  0.00     0.046 A 
HETATM   14  C   UNK N   1      36.272  13.455  11.596  0.00  0.00     0.009 A 
HETATM   15  C   UNK N   1      37.253  11.984  13.253  0.00  0.00     0.030 A 
HETATM   16  C   UNK N   1      36.759  12.829  14.263  0.00  0.00     0.002 A 
HETATM   17  C   UNK N   1      36.022  13.983  13.930  0.00  0.00     0.001 A 
HETATM   18  C   UNK N   1      35.776  14.301  12.587  0.00  0.00     0.015 A 
HETATM   19  O   UNK N   1      37.123  11.930   8.558  0.00  0.00    -0.267 OA
HETATM   20  H   UNK N   1      36.026  13.611   7.362  0.00  0.00     0.166 HD
HETATM   21  H   UNK N   1      37.921  10.781  10.763  0.00  0.00     0.169 HD
ENDROOT
BRANCH   2  22
HETATM   22  N   UNK N   1      34.610  16.064  10.881  0.00  0.00    -0.266 N 
ATOM     23  HN  UNK N   1      34.071  15.490  11.529  1.00  0.00     0.194 HD
BRANCH  22  24
HETATM   24  O   UNK N   1      35.052  17.238  11.276  0.00  0.00    -0.289 OA
HETATM   25  H   UNK N   1      34.642  17.674  11.998  0.00  0.00     0.244 HD
ENDBRANCH  22  24
ENDBRANCH   2  22
TORSDOF 2
ENDMDL
MODEL 9
REMARK VINA RESULT:      -6.7      2.194      7.285
REMARK  2 active torsions:
REMARK  status: ('A' for Active; 'I' for Inactive)
REMARK    1  A    between atoms: C_2  and  N_20 
REMARK    2  A    between atoms: N_20  and  O_22 
ROOT
HETATM    1  C   UNK N   1      32.872  15.595   5.173  0.00  0.00     0.021 A 
HETATM    2  C   UNK N   1      33.351  15.196   6.489  0.00  0.00     0.094 A 
HETATM    3  C   UNK N   1      33.093  16.949   5.044  0.00  0.00     0.045 A 
HETATM    4  N   UNK N   1      33.696  17.498   6.201  0.00  0.00    -0.353 N 
HETATM    5  C   UNK N   1      32.739  17.635   3.884  0.00  0.00     0.030 A 
HETATM    6  C   UNK N   1      32.146  16.901   2.838  0.00  0.00     0.002 A 
HETATM    7  C   UNK N   1      31.921  15.515   2.973  0.00  0.00     0.001 A 
HETATM    8  C   UNK N   1      32.287  14.848   4.152  0.00  0.00     0.016 A 
HETATM    9  C   UNK N   1      33.869  16.427   7.120  0.00  0.00     0.079 A 
HETATM   10  C   UNK N   1      34.422  16.583   8.346  0.00  0.00     0.073 A 
HETATM   11  C   UNK N   1      34.929  17.838   8.939  0.00  0.00     0.259 A 
HETATM   12  N   UNK N   1      35.413  17.625  10.181  0.00  0.00    -0.322 N 
HETATM   13  C   UNK N   1      35.252  16.251  10.458  0.00  0.00     0.046 A 
HETATM   14  C   UNK N   1      34.667  15.587   9.400  0.00  0.00     0.009 A 
HETATM   15  C   UNK N   1      35.616  15.592  11.630  0.00  0.00     0.030 A 
HETATM   16  C   UNK N   1      35.370  14.210  11.713  0.00  0.00     0.002 A 
HETATM   17  C   UNK N   1      34.773  13.525  10.636  0.00  0.00     0.001 A 
HETATM   18  C   UNK N   1      34.418  14.217   9.469  0.00  0.00     0.015 A 
HETATM   19  O   UNK N   1      34.925  18.937   8.405  0.00  0.00    -0.267 OA
HETATM   20  H   UNK N   1      33.947  18.439   6.341  0.00  0.00     0.166 HD
HETATM   21  H   UNK N   1      35.805  18.301  10.779  0.00  0.00     0.169 HD
ENDROOT
BRANCH   2  22
HETATM   22  N   UNK N   1      33.324  14.013   6.991  0.00  0.00    -0.266 N 
ATOM     23  HN  UNK N   1      34.202  13.531   7.181  1.00  0.00     0.194 HD
BRANCH  22  24
HETATM   24  O   UNK N   1      32.187  13.411   7.267  0.00  0.00    -0.289 OA
HETATM   25  H   UNK N   1      31.494  13.887   7.682  0.00  0.00     0.244 HD
ENDBRANCH  22  24
ENDBRANCH   2  22
TORSDOF 2
ENDMDL
