MODEL 1
REMARK VINA RESULT:      -7.6      0.000      0.000
REMARK  6 active torsions:
REMARK  status: ('A' for Active; 'I' for Inactive)
REMARK    1  A    between atoms: C_1  and  O_29 
REMARK       I    between atoms: N_8  and  C_12 
REMARK    2  A    between atoms: C_12  and  C_13 
REMARK    3  A    between atoms: C_13  and  C_15 
REMARK    4  A    between atoms: C_15  and  N_16 
REMARK    5  A    between atoms: C_19  and  C_22 
REMARK    6  A    between atoms: C_22  and  C_28 
ROOT
HETATM    1  C   UNK N   1      31.755  14.808   5.291  0.00  0.00     0.068 A 
HETATM    2  C   UNK N   1      33.005  14.476   5.826  0.00  0.00     0.047 A 
HETATM    3  C   UNK N   1      33.712  15.391   6.600  0.00  0.00    -0.021 A 
HETATM    4  C   UNK N   1      33.172  16.666   6.853  0.00  0.00     0.008 A 
HETATM    5  C   UNK N   1      31.927  17.004   6.312  0.00  0.00     0.022 A 
HETATM    6  C   UNK N   1      31.221  16.078   5.535  0.00  0.00     0.038 A 
HETATM    7  C   UNK N   1      35.033  14.976   7.136  0.00  0.00     0.165 C 
HETATM    8  N   UNK N   1      34.972  14.780   8.565  0.00  0.00    -0.347 N 
HETATM    9  C   UNK N   1      35.200  15.929   9.413  0.00  0.00     0.136 C 
HETATM   10  C   UNK N   1      34.013  16.887   9.353  0.00  0.00     0.099 C 
HETATM   11  S   UNK N   1      34.068  17.881   7.830  0.00  0.00    -0.128 SA
HETATM   12  C   UNK N   1      34.767  13.517   9.067  0.00  0.00     0.221 C 
HETATM   13  O   UNK N   1      34.537  12.598   8.290  0.00  0.00    -0.273 OA
ENDROOT
BRANCH  12  14
HETATM   14  C   UNK N   1      34.874  13.157  10.531  0.00  0.00     0.133 C 
BRANCH  14  15
HETATM   15  C   UNK N   1      36.021  12.255  10.967  0.00  0.00     0.281 C 
BRANCH  15  16
HETATM   16  N   UNK N   1      36.554  12.760  12.225  0.00  0.00     0.088 N 
HETATM   17  C   UNK N   1      35.716  13.843  12.731  0.00  0.00     0.272 C 
HETATM   18  C   UNK N   1      36.389  14.463  13.964  0.00  0.00     0.035 C 
HETATM   19  C   UNK N   1      36.585  13.397  15.046  0.00  0.00    -0.007 C 
HETATM   20  C   UNK N   1      37.361  12.210  14.451  0.00  0.00     0.035 C 
HETATM   21  C   UNK N   1      36.640  11.688  13.213  0.00  0.00     0.272 C 
BRANCH  19  22
HETATM   22  C   UNK N   1      35.204  13.008  15.594  0.00  0.00     0.043 C 
BRANCH  22  23
HETATM   23  C   UNK N   1      35.221  12.550  17.013  0.00  0.00    -0.058 A 
HETATM   24  C   UNK N   1      35.218  13.470  18.066  0.00  0.00     0.007 A 
HETATM   25  C   UNK N   1      35.228  13.013  19.388  0.00  0.00     0.001 A 
HETATM   26  C   UNK N   1      35.245  11.639  19.655  0.00  0.00     0.000 A 
HETATM   27  C   UNK N   1      35.246  10.721  18.602  0.00  0.00     0.001 A 
HETATM   28  C   UNK N   1      35.228  11.178  17.284  0.00  0.00     0.007 A 
ENDBRANCH  22  23
ENDBRANCH  19  22
ENDBRANCH  15  16
ENDBRANCH  14  15
ENDBRANCH  12  14
BRANCH   1  29
HETATM   29  O   UNK N   1      31.051  13.921   4.550  0.00  0.00    -0.356 OA
HETATM   30  C   UNK N   1      31.341  13.649   3.231  0.00  0.00     0.210 C 
ENDBRANCH   1  29
TORSDOF 6
ENDMDL
MODEL 2
REMARK VINA RESULT:      -7.6      3.347      9.995
REMARK  6 active torsions:
REMARK  status: ('A' for Active; 'I' for Inactive)
REMARK    1  A    between atoms: C_1  and  O_29 
REMARK       I    between atoms: N_8  and  C_12 
REMARK    2  A    between atoms: C_12  and  C_13 
REMARK    3  A    between atoms: C_13  and  C_15 
REMARK    4  A    between atoms: C_15  and  N_16 
REMARK    5  A    between atoms: C_19  and  C_22 
REMARK    6  A    between atoms: C_22  and  C_28 
ROOT
HETATM    1  C   UNK N   1      35.313  11.886  16.854  0.00  0.00     0.068 A 
HETATM    2  C   UNK N   1      36.071  12.412  15.801  0.00  0.00     0.047 A 
HETATM    3  C   UNK N   1      36.131  11.759  14.574  0.00  0.00    -0.021 A 
HETATM    4  C   UNK N   1      35.427  10.557  14.379  0.00  0.00     0.008 A 
HETATM    5  C   UNK N   1      34.676  10.023  15.432  0.00  0.00     0.022 A 
HETATM    6  C   UNK N   1      34.619  10.686  16.663  0.00  0.00     0.038 A 
HETATM    7  C   UNK N   1      36.954  12.372  13.500  0.00  0.00     0.165 C 
HETATM    8  N   UNK N   1      36.119  12.910  12.453  0.00  0.00    -0.347 N 
HETATM    9  C   UNK N   1      35.724  12.021  11.382  0.00  0.00     0.136 C 
HETATM   10  C   UNK N   1      34.692  11.010  11.877  0.00  0.00     0.099 C 
HETATM   11  S   UNK N   1      35.500   9.676  12.814  0.00  0.00    -0.128 SA
HETATM   12  C   UNK N   1      35.787  14.243  12.471  0.00  0.00     0.221 C 
HETATM   13  O   UNK N   1      36.120  14.927  13.430  0.00  0.00    -0.273 OA
ENDROOT
BRANCH  12  14
HETATM   14  C   UNK N   1      35.085  14.959  11.339  0.00  0.00     0.133 C 
BRANCH  14  15
HETATM   15  C   UNK N   1      35.941  15.657  10.290  0.00  0.00     0.281 C 
BRANCH  15  16
HETATM   16  N   UNK N   1      35.112  15.932   9.124  0.00  0.00     0.088 N 
HETATM   17  C   UNK N   1      34.018  14.969   9.044  0.00  0.00     0.272 C 
HETATM   18  C   UNK N   1      33.263  15.179   7.724  0.00  0.00     0.035 C 
HETATM   19  C   UNK N   1      32.714  16.608   7.655  0.00  0.00    -0.007 C 
HETATM   20  C   UNK N   1      33.867  17.602   7.871  0.00  0.00     0.035 C 
HETATM   21  C   UNK N   1      34.581  17.291   9.183  0.00  0.00     0.272 C 
BRANCH  19  22
HETATM   22  C   UNK N   1      31.592  16.742   8.695  0.00  0.00     0.043 C 
BRANCH  22  23
HETATM   23  C   UNK N   1      30.352  17.384   8.170  0.00  0.00    -0.058 A 
HETATM   24  C   UNK N   1      29.479  18.067   9.022  0.00  0.00     0.007 A 
HETATM   25  C   UNK N   1      28.326  18.664   8.501  0.00  0.00     0.001 A 
HETATM   26  C   UNK N   1      28.045  18.574   7.133  0.00  0.00     0.000 A 
HETATM   27  C   UNK N   1      28.919  17.893   6.283  0.00  0.00     0.001 A 
HETATM   28  C   UNK N   1      30.073  17.304   6.801  0.00  0.00     0.007 A 
ENDBRANCH  22  23
ENDBRANCH  19  22
ENDBRANCH  15  16
ENDBRANCH  14  15
ENDBRANCH  12  14
BRANCH   1  29
HETATM   29  O   UNK N   1      35.233  12.519  18.047  0.00  0.00    -0.356 OA
HETATM   30  C   UNK N   1      35.357  13.885  18.180  0.00  0.00     0.210 C 
ENDBRANCH   1  29
TORSDOF 6
ENDMDL
MODEL 3
REMARK VINA RESULT:      -7.4      8.292     12.520
REMARK  6 active torsions:
REMARK  status: ('A' for Active; 'I' for Inactive)
REMARK    1  A    between atoms: C_1  and  O_29 
REMARK       I    between atoms: N_8  and  C_12 
REMARK    2  A    between atoms: C_12  and  C_13 
REMARK    3  A    between atoms: C_13  and  C_15 
REMARK    4  A    between atoms: C_15  and  N_16 
REMARK    5  A    between atoms: C_19  and  C_22 
REMARK    6  A    between atoms: C_22  and  C_28 
ROOT
HETATM    1  C   UNK N   1      21.925  12.556   9.667  0.00  0.00     0.068 A 
HETATM    2  C   UNK N   1      22.318  12.718   8.333  0.00  0.00     0.047 A 
HETATM    3  C   UNK N   1      21.732  13.695   7.534  0.00  0.00    -0.021 A 
HETATM    4  C   UNK N   1      20.734  14.534   8.063  0.00  0.00     0.008 A 
HETATM    5  C   UNK N   1      20.332  14.368   9.393  0.00  0.00     0.022 A 
HETATM    6  C   UNK N   1      20.926  13.384  10.191  0.00  0.00     0.038 A 
HETATM    7  C   UNK N   1      22.195  13.813   6.128  0.00  0.00     0.165 C 
HETATM    8  N   UNK N   1      22.961  15.021   5.936  0.00  0.00    -0.347 N 
HETATM    9  C   UNK N   1      22.242  16.231   5.602  0.00  0.00     0.136 C 
HETATM   10  C   UNK N   1      21.469  16.748   6.813  0.00  0.00     0.099 C 
HETATM   11  S   UNK N   1      19.939  15.791   7.053  0.00  0.00    -0.128 SA
HETATM   12  C   UNK N   1      24.333  14.971   6.011  0.00  0.00     0.221 C 
HETATM   13  O   UNK N   1      24.873  13.922   6.340  0.00  0.00    -0.273 OA
ENDROOT
BRANCH  12  14
HETATM   14  C   UNK N   1      25.246  16.117   5.643  0.00  0.00     0.133 C 
BRANCH  14  15
HETATM   15  C   UNK N   1      25.467  16.413   4.165  0.00  0.00     0.281 C 
BRANCH  15  16
HETATM   16  N   UNK N   1      26.763  17.061   4.012  0.00  0.00     0.088 N 
HETATM   17  C   UNK N   1      27.076  17.852   5.197  0.00  0.00     0.272 C 
HETATM   18  C   UNK N   1      28.362  18.651   4.942  0.00  0.00     0.035 C 
HETATM   19  C   UNK N   1      29.517  17.697   4.624  0.00  0.00    -0.007 C 
HETATM   20  C   UNK N   1      29.113  16.787   3.452  0.00  0.00     0.035 C 
HETATM   21  C   UNK N   1      27.809  16.068   3.781  0.00  0.00     0.272 C 
BRANCH  19  22
HETATM   22  C   UNK N   1      29.867  16.923   5.903  0.00  0.00     0.043 C 
BRANCH  22  23
HETATM   23  C   UNK N   1      31.231  17.213   6.434  0.00  0.00    -0.058 A 
HETATM   24  C   UNK N   1      32.349  17.188   5.595  0.00  0.00     0.007 A 
HETATM   25  C   UNK N   1      33.616  17.469   6.118  0.00  0.00     0.001 A 
HETATM   26  C   UNK N   1      33.763  17.771   7.477  0.00  0.00     0.000 A 
HETATM   27  C   UNK N   1      32.644  17.797   8.313  0.00  0.00     0.001 A 
HETATM   28  C   UNK N   1      31.380  17.524   7.789  0.00  0.00     0.007 A 
ENDBRANCH  22  23
ENDBRANCH  19  22
ENDBRANCH  15  16
ENDBRANCH  14  15
ENDBRANCH  12  14
BRANCH   1  29
HETATM   29  O   UNK N   1      22.498  11.620  10.459  0.00  0.00    -0.356 OA
HETATM   30  C   UNK N   1      23.299  11.938  11.534  0.00  0.00     0.210 C 
ENDBRANCH   1  29
TORSDOF 6
ENDMDL
MODEL 4
REMARK VINA RESULT:      -7.4      3.539     10.807
REMARK  6 active torsions:
REMARK  status: ('A' for Active; 'I' for Inactive)
REMARK    1  A    between atoms: C_1  and  O_29 
REMARK       I    between atoms: N_8  and  C_12 
REMARK    2  A    between atoms: C_12  and  C_13 
REMARK    3  A    between atoms: C_13  and  C_15 
REMARK    4  A    between atoms: C_15  and  N_16 
REMARK    5  A    between atoms: C_19  and  C_22 
REMARK    6  A    between atoms: C_22  and  C_28 
ROOT
HETATM    1  C   UNK N   1      35.311  13.427  12.527  0.00  0.00     0.068 A 
HETATM    2  C   UNK N   1      35.684  14.351  11.544  0.00  0.00     0.047 A 
HETATM    3  C   UNK N   1      35.665  14.002  10.197  0.00  0.00    -0.021 A 
HETATM    4  C   UNK N   1      35.267  12.709   9.809  0.00  0.00     0.008 A 
HETATM    5  C   UNK N   1      34.902  11.780  10.790  0.00  0.00     0.022 A 
HETATM    6  C   UNK N   1      34.924  12.138  12.142  0.00  0.00     0.038 A 
HETATM    7  C   UNK N   1      36.073  15.030   9.206  0.00  0.00     0.165 C 
HETATM    8  N   UNK N   1      34.937  15.494   8.446  0.00  0.00    -0.347 N 
HETATM    9  C   UNK N   1      34.578  14.759   7.253  0.00  0.00     0.136 C 
HETATM   10  C   UNK N   1      33.959  13.412   7.618  0.00  0.00     0.099 C 
HETATM   11  S   UNK N   1      35.251  12.217   8.080  0.00  0.00    -0.128 SA
HETATM   12  C   UNK N   1      34.284  16.639   8.836  0.00  0.00     0.221 C 
HETATM   13  O   UNK N   1      34.615  17.186   9.881  0.00  0.00    -0.273 OA
ENDROOT
BRANCH  12  14
HETATM   14  C   UNK N   1      33.213  17.326   8.021  0.00  0.00     0.133 C 
BRANCH  14  15
HETATM   15  C   UNK N   1      31.873  17.608   8.688  0.00  0.00     0.281 C 
BRANCH  15  16
HETATM   16  N   UNK N   1      30.820  16.998   7.886  0.00  0.00     0.088 N 
HETATM   17  C   UNK N   1      29.690  17.913   7.756  0.00  0.00     0.272 C 
HETATM   18  C   UNK N   1      28.536  17.186   7.051  0.00  0.00     0.035 C 
HETATM   19  C   UNK N   1      28.987  16.704   5.668  0.00  0.00    -0.007 C 
HETATM   20  C   UNK N   1      30.254  15.847   5.821  0.00  0.00     0.035 C 
HETATM   21  C   UNK N   1      31.327  16.635   6.565  0.00  0.00     0.272 C 
BRANCH  19  22
HETATM   22  C   UNK N   1      29.188  17.935   4.773  0.00  0.00     0.043 C 
BRANCH  22  23
HETATM   23  C   UNK N   1      27.940  18.710   4.517  0.00  0.00    -0.058 A 
HETATM   24  C   UNK N   1      27.817  20.036   4.941  0.00  0.00     0.007 A 
HETATM   25  C   UNK N   1      26.637  20.742   4.683  0.00  0.00     0.001 A 
HETATM   26  C   UNK N   1      25.582  20.120   4.006  0.00  0.00     0.000 A 
HETATM   27  C   UNK N   1      25.707  18.796   3.581  0.00  0.00     0.001 A 
HETATM   28  C   UNK N   1      26.887  18.095   3.832  0.00  0.00     0.007 A 
ENDBRANCH  22  23
ENDBRANCH  19  22
ENDBRANCH  15  16
ENDBRANCH  14  15
ENDBRANCH  12  14
BRANCH   1  29
HETATM   29  O   UNK N   1      35.310  13.759  13.839  0.00  0.00    -0.356 OA
HETATM   30  C   UNK N   1      36.434  14.207  14.499  0.00  0.00     0.210 C 
ENDBRANCH   1  29
TORSDOF 6
ENDMDL
MODEL 5
REMARK VINA RESULT:      -7.2      3.160     10.670
REMARK  6 active torsions:
REMARK  status: ('A' for Active; 'I' for Inactive)
REMARK    1  A    between atoms: C_1  and  O_29 
REMARK       I    between atoms: N_8  and  C_12 
REMARK    2  A    between atoms: C_12  and  C_13 
REMARK    3  A    between atoms: C_13  and  C_15 
REMARK    4  A    between atoms: C_15  and  N_16 
REMARK    5  A    between atoms: C_19  and  C_22 
REMARK    6  A    between atoms: C_22  and  C_28 
ROOT
HETATM    1  C   UNK N   1      35.666  13.548  17.000  0.00  0.00     0.068 A 
HETATM    2  C   UNK N   1      36.290  13.678  15.754  0.00  0.00     0.047 A 
HETATM    3  C   UNK N   1      36.218  12.655  14.814  0.00  0.00    -0.021 A 
HETATM    4  C   UNK N   1      35.513  11.473  15.109  0.00  0.00     0.008 A 
HETATM    5  C   UNK N   1      34.897  11.336  16.357  0.00  0.00     0.022 A 
HETATM    6  C   UNK N   1      34.972  12.369  17.298  0.00  0.00     0.038 A 
HETATM    7  C   UNK N   1      36.903  12.857  13.511  0.00  0.00     0.165 C 
HETATM    8  N   UNK N   1      35.945  13.039  12.447  0.00  0.00    -0.347 N 
HETATM    9  C   UNK N   1      35.442  11.856  11.784  0.00  0.00     0.136 C 
HETATM   10  C   UNK N   1      34.489  11.091  12.699  0.00  0.00     0.099 C 
HETATM   11  S   UNK N   1      35.419  10.122  13.926  0.00  0.00    -0.128 SA
HETATM   12  C   UNK N   1      35.597  14.311  12.060  0.00  0.00     0.221 C 
HETATM   13  O   UNK N   1      36.029  15.265  12.694  0.00  0.00    -0.273 OA
ENDROOT
BRANCH  12  14
HETATM   14  C   UNK N   1      34.760  14.629  10.842  0.00  0.00     0.133 C 
BRANCH  14  15
HETATM   15  C   UNK N   1      35.216  15.762   9.932  0.00  0.00     0.281 C 
BRANCH  15  16
HETATM   16  N   UNK N   1      34.040  16.483   9.465  0.00  0.00     0.088 N 
HETATM   17  C   UNK N   1      34.406  17.414   8.403  0.00  0.00     0.272 C 
HETATM   18  C   UNK N   1      33.185  18.273   8.047  0.00  0.00     0.035 C 
HETATM   19  C   UNK N   1      32.029  17.377   7.589  0.00  0.00    -0.007 C 
HETATM   20  C   UNK N   1      31.748  16.323   8.672  0.00  0.00     0.035 C 
HETATM   21  C   UNK N   1      33.023  15.549   8.986  0.00  0.00     0.272 C 
BRANCH  19  22
HETATM   22  C   UNK N   1      32.403  16.769   6.229  0.00  0.00     0.043 C 
BRANCH  22  23
HETATM   23  C   UNK N   1      31.283  16.749   5.245  0.00  0.00    -0.058 A 
HETATM   24  C   UNK N   1      30.095  17.444   5.492  0.00  0.00     0.007 A 
HETATM   25  C   UNK N   1      29.063  17.413   4.549  0.00  0.00     0.001 A 
HETATM   26  C   UNK N   1      29.217  16.686   3.363  0.00  0.00     0.000 A 
HETATM   27  C   UNK N   1      30.405  15.994   3.117  0.00  0.00     0.001 A 
HETATM   28  C   UNK N   1      31.437  16.031   4.054  0.00  0.00     0.007 A 
ENDBRANCH  22  23
ENDBRANCH  19  22
ENDBRANCH  15  16
ENDBRANCH  14  15
ENDBRANCH  12  14
BRANCH   1  29
HETATM   29  O   UNK N   1      35.715  14.542  17.917  0.00  0.00    -0.356 OA
HETATM   30  C   UNK N   1      36.443  15.697  17.731  0.00  0.00     0.210 C 
ENDBRANCH   1  29
TORSDOF 6
ENDMDL
MODEL 6
REMARK VINA RESULT:      -7.1      2.077      2.843
REMARK  6 active torsions:
REMARK  status: ('A' for Active; 'I' for Inactive)
REMARK    1  A    between atoms: C_1  and  O_29 
REMARK       I    between atoms: N_8  and  C_12 
REMARK    2  A    between atoms: C_12  and  C_13 
REMARK    3  A    between atoms: C_13  and  C_15 
REMARK    4  A    between atoms: C_15  and  N_16 
REMARK    5  A    between atoms: C_19  and  C_22 
REMARK    6  A    between atoms: C_22  and  C_28 
ROOT
HETATM    1  C   UNK N   1      30.540  16.646   6.931  0.00  0.00     0.068 A 
HETATM    2  C   UNK N   1      31.591  15.745   6.723  0.00  0.00     0.047 A 
HETATM    3  C   UNK N   1      32.807  15.909   7.378  0.00  0.00    -0.021 A 
HETATM    4  C   UNK N   1      32.992  16.988   8.262  0.00  0.00     0.008 A 
HETATM    5  C   UNK N   1      31.948  17.897   8.465  0.00  0.00     0.022 A 
HETATM    6  C   UNK N   1      30.727  17.725   7.802  0.00  0.00     0.038 A 
HETATM    7  C   UNK N   1      33.880  14.917   7.112  0.00  0.00     0.165 C 
HETATM    8  N   UNK N   1      34.100  14.073   8.263  0.00  0.00    -0.347 N 
HETATM    9  C   UNK N   1      35.034  14.532   9.267  0.00  0.00     0.136 C 
HETATM   10  C   UNK N   1      34.443  15.696  10.060  0.00  0.00     0.099 C 
HETATM   11  S   UNK N   1      34.558  17.243   9.108  0.00  0.00    -0.128 SA
HETATM   12  C   UNK N   1      33.476  12.851   8.335  0.00  0.00     0.221 C 
HETATM   13  O   UNK N   1      32.664  12.545   7.470  0.00  0.00    -0.273 OA
ENDROOT
BRANCH  12  14
HETATM   14  C   UNK N   1      33.773  11.806   9.385  0.00  0.00     0.133 C 
BRANCH  14  15
HETATM   15  C   UNK N   1      34.937  10.854   9.142  0.00  0.00     0.281 C 
BRANCH  15  16
HETATM   16  N   UNK N   1      35.258  10.186  10.397  0.00  0.00     0.088 N 
HETATM   17  C   UNK N   1      35.786  11.147  11.360  0.00  0.00     0.272 C 
HETATM   18  C   UNK N   1      36.268  10.392  12.607  0.00  0.00     0.035 C 
HETATM   19  C   UNK N   1      35.107   9.608  13.226  0.00  0.00    -0.007 C 
HETATM   20  C   UNK N   1      34.485   8.697  12.155  0.00  0.00     0.035 C 
HETATM   21  C   UNK N   1      34.075   9.526  10.943  0.00  0.00     0.272 C 
BRANCH  19  22
HETATM   22  C   UNK N   1      34.111  10.614  13.822  0.00  0.00     0.043 C 
BRANCH  22  23
HETATM   23  C   UNK N   1      34.499  11.126  15.168  0.00  0.00    -0.058 A 
HETATM   24  C   UNK N   1      34.487  12.496  15.448  0.00  0.00     0.007 A 
HETATM   25  C   UNK N   1      34.850  12.948  16.721  0.00  0.00     0.001 A 
HETATM   26  C   UNK N   1      35.227  12.033  17.710  0.00  0.00     0.000 A 
HETATM   27  C   UNK N   1      35.236  10.665  17.430  0.00  0.00     0.001 A 
HETATM   28  C   UNK N   1      34.866  10.213  16.163  0.00  0.00     0.007 A 
ENDBRANCH  22  23
ENDBRANCH  19  22
ENDBRANCH  15  16
ENDBRANCH  14  15
ENDBRANCH  12  14
BRANCH   1  29
HETATM   29  O   UNK N   1      29.347  16.489   6.312  0.00  0.00    -0.356 OA
HETATM   30  C   UNK N   1      28.141  16.672   6.952  0.00  0.00     0.210 C 
ENDBRANCH   1  29
TORSDOF 6
ENDMDL
MODEL 7
REMARK VINA RESULT:      -6.9     18.061     22.036
REMARK  6 active torsions:
REMARK  status: ('A' for Active; 'I' for Inactive)
REMARK    1  A    between atoms: C_1  and  O_29 
REMARK       I    between atoms: N_8  and  C_12 
REMARK    2  A    between atoms: C_12  and  C_13 
REMARK    3  A    between atoms: C_13  and  C_15 
REMARK    4  A    between atoms: C_15  and  N_16 
REMARK    5  A    between atoms: C_19  and  C_22 
REMARK    6  A    between atoms: C_22  and  C_28 
ROOT
HETATM    1  C   UNK N   1      31.287  24.149  -3.636  0.00  0.00     0.068 A 
HETATM    2  C   UNK N   1      30.623  25.368  -3.465  0.00  0.00     0.047 A 
HETATM    3  C   UNK N   1      30.802  26.408  -4.372  0.00  0.00    -0.021 A 
HETATM    4  C   UNK N   1      31.659  26.242  -5.475  0.00  0.00     0.008 A 
HETATM    5  C   UNK N   1      32.333  25.028  -5.644  0.00  0.00     0.022 A 
HETATM    6  C   UNK N   1      32.147  23.986  -4.729  0.00  0.00     0.038 A 
HETATM    7  C   UNK N   1      30.067  27.676  -4.131  0.00  0.00     0.165 C 
HETATM    8  N   UNK N   1      29.018  27.858  -5.106  0.00  0.00    -0.347 N 
HETATM    9  C   UNK N   1      29.358  28.512  -6.349  0.00  0.00     0.136 C 
HETATM   10  C   UNK N   1      30.205  27.593  -7.227  0.00  0.00     0.099 C 
HETATM   11  S   UNK N   1      31.932  27.572  -6.654  0.00  0.00    -0.128 SA
HETATM   12  C   UNK N   1      27.735  27.469  -4.799  0.00  0.00     0.221 C 
HETATM   13  O   UNK N   1      27.527  26.881  -3.745  0.00  0.00    -0.273 OA
ENDROOT
BRANCH  12  14
HETATM   14  C   UNK N   1      26.527  27.779  -5.653  0.00  0.00     0.133 C 
BRANCH  14  15
HETATM   15  C   UNK N   1      25.240  27.010  -5.382  0.00  0.00     0.281 C 
BRANCH  15  16
HETATM   16  N   UNK N   1      25.280  25.763  -6.135  0.00  0.00     0.088 N 
HETATM   17  C   UNK N   1      26.198  25.883  -7.263  0.00  0.00     0.272 C 
HETATM   18  C   UNK N   1      26.095  24.619  -8.129  0.00  0.00     0.035 C 
HETATM   19  C   UNK N   1      26.442  23.382  -7.295  0.00  0.00    -0.007 C 
HETATM   20  C   UNK N   1      25.546  23.349  -6.045  0.00  0.00     0.035 C 
HETATM   21  C   UNK N   1      25.685  24.656  -5.273  0.00  0.00     0.272 C 
BRANCH  19  22
HETATM   22  C   UNK N   1      27.942  23.428  -6.968  0.00  0.00     0.043 C 
BRANCH  22  23
HETATM   23  C   UNK N   1      28.616  22.099  -7.027  0.00  0.00    -0.058 A 
HETATM   24  C   UNK N   1      29.685  21.796  -6.177  0.00  0.00     0.007 A 
HETATM   25  C   UNK N   1      30.296  20.540  -6.250  0.00  0.00     0.001 A 
HETATM   26  C   UNK N   1      29.842  19.591  -7.174  0.00  0.00     0.000 A 
HETATM   27  C   UNK N   1      28.773  19.894  -8.020  0.00  0.00     0.001 A 
HETATM   28  C   UNK N   1      28.159  21.144  -7.942  0.00  0.00     0.007 A 
ENDBRANCH  22  23
ENDBRANCH  19  22
ENDBRANCH  15  16
ENDBRANCH  14  15
ENDBRANCH  12  14
BRANCH   1  29
HETATM   29  O   UNK N   1      31.109  23.124  -2.771  0.00  0.00    -0.356 OA
HETATM   30  C   UNK N   1      29.902  22.861  -2.160  0.00  0.00     0.210 C 
ENDBRANCH   1  29
TORSDOF 6
ENDMDL
MODEL 8
REMARK VINA RESULT:      -6.9      3.101     10.021
REMARK  6 active torsions:
REMARK  status: ('A' for Active; 'I' for Inactive)
REMARK    1  A    between atoms: C_1  and  O_29 
REMARK       I    between atoms: N_8  and  C_12 
REMARK    2  A    between atoms: C_12  and  C_13 
REMARK    3  A    between atoms: C_13  and  C_15 
REMARK    4  A    between atoms: C_15  and  N_16 
REMARK    5  A    between atoms: C_19  and  C_22 
REMARK    6  A    between atoms: C_22  and  C_28 
ROOT
HETATM    1  C   UNK N   1      35.484   8.826  16.242  0.00  0.00     0.068 A 
HETATM    2  C   UNK N   1      35.077   9.621  15.164  0.00  0.00     0.047 A 
HETATM    3  C   UNK N   1      35.007  11.005  15.288  0.00  0.00    -0.021 A 
HETATM    4  C   UNK N   1      35.346  11.622  16.506  0.00  0.00     0.008 A 
HETATM    5  C   UNK N   1      35.744  10.830  17.589  0.00  0.00     0.022 A 
HETATM    6  C   UNK N   1      35.813   9.439  17.457  0.00  0.00     0.038 A 
HETATM    7  C   UNK N   1      34.568  11.788  14.105  0.00  0.00     0.165 C 
HETATM    8  N   UNK N   1      35.668  12.533  13.541  0.00  0.00    -0.347 N 
HETATM    9  C   UNK N   1      35.936  13.849  14.077  0.00  0.00     0.136 C 
HETATM   10  C   UNK N   1      36.539  13.748  15.476  0.00  0.00     0.099 C 
HETATM   11  S   UNK N   1      35.245  13.405  16.709  0.00  0.00    -0.128 SA
HETATM   12  C   UNK N   1      36.373  12.004  12.487  0.00  0.00     0.221 C 
HETATM   13  O   UNK N   1      36.120  10.866  12.112  0.00  0.00    -0.273 OA
ENDROOT
BRANCH  12  14
HETATM   14  C   UNK N   1      37.412  12.763  11.694  0.00  0.00     0.133 C 
BRANCH  14  15
HETATM   15  C   UNK N   1      37.074  13.162  10.263  0.00  0.00     0.281 C 
BRANCH  15  16
HETATM   16  N   UNK N   1      35.891  14.013  10.288  0.00  0.00     0.088 N 
HETATM   17  C   UNK N   1      36.277  15.410  10.458  0.00  0.00     0.272 C 
HETATM   18  C   UNK N   1      35.012  16.260  10.645  0.00  0.00     0.035 C 
HETATM   19  C   UNK N   1      34.094  16.110   9.428  0.00  0.00    -0.007 C 
HETATM   20  C   UNK N   1      33.806  14.618   9.194  0.00  0.00     0.035 C 
HETATM   21  C   UNK N   1      35.118  13.851   9.059  0.00  0.00     0.272 C 
BRANCH  19  22
HETATM   22  C   UNK N   1      34.768  16.795   8.230  0.00  0.00     0.043 C 
BRANCH  22  23
HETATM   23  C   UNK N   1      33.981  16.720   6.966  0.00  0.00    -0.058 A 
HETATM   24  C   UNK N   1      34.459  16.007   5.862  0.00  0.00     0.007 A 
HETATM   25  C   UNK N   1      33.697  15.949   4.690  0.00  0.00     0.001 A 
HETATM   26  C   UNK N   1      32.463  16.605   4.622  0.00  0.00     0.000 A 
HETATM   27  C   UNK N   1      31.986  17.315   5.726  0.00  0.00     0.001 A 
HETATM   28  C   UNK N   1      32.742  17.366   6.897  0.00  0.00     0.007 A 
ENDBRANCH  22  23
ENDBRANCH  19  22
ENDBRANCH  15  16
ENDBRANCH  14  15
ENDBRANCH  12  14
BRANCH   1  29
HETATM   29  O   UNK N   1      35.572   7.481  16.129  0.00  0.00    -0.356 OA
HETATM   30  C   UNK N   1      36.433   6.720  16.890  0.00  0.00     0.210 C 
ENDBRANCH   1  29
TORSDOF 6
ENDMDL
MODEL 9
REMARK VINA RESULT:      -6.8     17.916     22.234
REMARK  6 active torsions:
REMARK  status: ('A' for Active; 'I' for Inactive)
REMARK    1  A    between atoms: C_1  and  O_29 
REMARK       I    between atoms: N_8  and  C_12 
REMARK    2  A    between atoms: C_12  and  C_13 
REMARK    3  A    between atoms: C_13  and  C_15 
REMARK    4  A    between atoms: C_15  and  N_16 
REMARK    5  A    between atoms: C_19  and  C_22 
REMARK    6  A    between atoms: C_22  and  C_28 
ROOT
HETATM    1  C   UNK N   1      30.760  23.363  -2.982  0.00  0.00     0.068 A 
HETATM    2  C   UNK N   1      31.157  24.658  -3.334  0.00  0.00     0.047 A 
HETATM    3  C   UNK N   1      31.719  24.914  -4.581  0.00  0.00    -0.021 A 
HETATM    4  C   UNK N   1      31.894  23.867  -5.504  0.00  0.00     0.008 A 
HETATM    5  C   UNK N   1      31.507  22.570  -5.152  0.00  0.00     0.022 A 
HETATM    6  C   UNK N   1      30.942  22.319  -3.897  0.00  0.00     0.038 A 
HETATM    7  C   UNK N   1      32.119  26.311  -4.890  0.00  0.00     0.165 C 
HETATM    8  N   UNK N   1      31.240  26.894  -5.875  0.00  0.00    -0.347 N 
HETATM    9  C   UNK N   1      31.563  26.692  -7.270  0.00  0.00     0.136 C 
HETATM   10  C   UNK N   1      31.294  25.247  -7.682  0.00  0.00     0.099 C 
HETATM   11  S   UNK N   1      32.638  24.159  -7.115  0.00  0.00    -0.128 SA
HETATM   12  C   UNK N   1      30.178  27.664  -5.464  0.00  0.00     0.221 C 
HETATM   13  O   UNK N   1      29.938  27.755  -4.266  0.00  0.00    -0.273 OA
ENDROOT
BRANCH  12  14
HETATM   14  C   UNK N   1      29.308  28.477  -6.394  0.00  0.00     0.133 C 
BRANCH  14  15
HETATM   15  C   UNK N   1      28.001  29.039  -5.848  0.00  0.00     0.281 C 
BRANCH  15  16
HETATM   16  N   UNK N   1      26.917  28.145  -6.234  0.00  0.00     0.088 N 
HETATM   17  C   UNK N   1      27.441  27.011  -6.988  0.00  0.00     0.272 C 
HETATM   18  C   UNK N   1      26.266  26.178  -7.520  0.00  0.00     0.035 C 
HETATM   19  C   UNK N   1      25.403  25.684  -6.355  0.00  0.00    -0.007 C 
HETATM   20  C   UNK N   1      24.970  26.888  -5.502  0.00  0.00     0.035 C 
HETATM   21  C   UNK N   1      26.197  27.674  -5.053  0.00  0.00     0.272 C 
BRANCH  19  22
HETATM   22  C   UNK N   1      26.209  24.639  -5.569  0.00  0.00     0.043 C 
BRANCH  22  23
HETATM   23  C   UNK N   1      26.660  23.478  -6.390  0.00  0.00    -0.058 A 
HETATM   24  C   UNK N   1      28.002  23.087  -6.405  0.00  0.00     0.007 A 
HETATM   25  C   UNK N   1      28.397  21.990  -7.180  0.00  0.00     0.001 A 
HETATM   26  C   UNK N   1      27.452  21.291  -7.939  0.00  0.00     0.000 A 
HETATM   27  C   UNK N   1      26.111  21.683  -7.921  0.00  0.00     0.001 A 
HETATM   28  C   UNK N   1      25.717  22.771  -7.142  0.00  0.00     0.007 A 
ENDBRANCH  22  23
ENDBRANCH  19  22
ENDBRANCH  15  16
ENDBRANCH  14  15
ENDBRANCH  12  14
BRANCH   1  29
HETATM   29  O   UNK N   1      30.197  23.104  -1.779  0.00  0.00    -0.356 OA
HETATM   30  C   UNK N   1      28.835  23.018  -1.592  0.00  0.00     0.210 C 
ENDBRANCH   1  29
TORSDOF 6
ENDMDL
