MODEL 1
REMARK VINA RESULT:      -6.3      0.000      0.000
REMARK  8 active torsions:
REMARK  status: ('A' for Active; 'I' for Inactive)
REMARK    1  A    between atoms: C_5  and  C_6 
REMARK    2  A    between atoms: C_6  and  O_7 
REMARK    3  A    between atoms: C_10  and  C_11 
REMARK    4  A    between atoms: C_11  and  C_12 
REMARK    5  A    between atoms: C_11  and  N_15 
REMARK    6  A    between atoms: C_12  and  O_14 
REMARK       I    between atoms: N_15  and  C_16 
REMARK    7  A    between atoms: C_16  and  C_18 
REMARK    8  A    between atoms: C_18  and  C_19 
ROOT
HETATM    1  C   UNK N   1      35.659  13.930  10.132  0.00  0.00     0.215 C 
ENDROOT
BRANCH   1   2
HETATM    2  C   UNK N   1      35.013  14.321   8.780  0.00  0.00     0.177 C 
HETATM    3  S   UNK N   1      33.285  13.715   8.574  0.00  0.00    -0.137 SA
HETATM    4  C   UNK N   1      32.574  15.093   9.497  0.00  0.00     0.112 C 
HETATM    5  C   UNK N   1      32.794  16.351   8.731  0.00  0.00    -0.041 C 
HETATM    6  C   UNK N   1      31.608  17.231   8.493  0.00  0.00     0.047 C 
HETATM    7  C   UNK N   1      34.050  16.664   8.311  0.00  0.00     0.106 C 
HETATM    8  N   UNK N   1      35.130  15.755   8.537  0.00  0.00    -0.368 N 
HETATM    9  H   UNK N   1      36.039  16.133   8.527  0.00  0.00     0.161 HD
BRANCH   7  10
HETATM   10  C   UNK N   1      34.372  17.934   7.596  0.00  0.00     0.193 C 
HETATM   11  O   UNK N   1      34.226  18.049   6.392  0.00  0.00    -0.645 OA
BRANCH  10  12
HETATM   12  O   UNK N   1      34.844  18.982   8.302  0.00  0.00    -0.772 OA
HETATM   13  H   UNK N   1      34.647  19.885   8.154  0.00  0.00     0.167 HD
ENDBRANCH  10  12
ENDBRANCH   7  10
ENDBRANCH   1   2
BRANCH   1  14
HETATM   14  C   UNK N   1      35.890  15.143  11.011  0.00  0.00     0.166 C 
HETATM   15  O   UNK N   1      35.068  15.460  11.859  0.00  0.00    -0.648 OA
BRANCH  14  16
HETATM   16  O   UNK N   1      37.013  15.874  10.881  0.00  0.00    -0.775 OA
HETATM   17  H   UNK N   1      37.849  15.450  10.853  0.00  0.00     0.167 HD
ENDBRANCH  14  16
ENDBRANCH   1  14
BRANCH   1  18
HETATM   18  N   UNK N   1      34.774  12.998  10.823  0.00  0.00    -0.344 N 
HETATM   19  C   UNK N   1      35.173  11.797  11.319  0.00  0.00     0.223 C 
HETATM   20  O   UNK N   1      36.338  11.438  11.229  0.00  0.00    -0.273 OA
HETATM   21  H   UNK N   1      33.830  13.253  10.935  0.00  0.00     0.163 HD
BRANCH  19  22
HETATM   22  C   UNK N   1      34.171  10.865  11.933  0.00  0.00     0.148 C 
BRANCH  22  23
HETATM   23  C   UNK N   1      34.487  10.427  13.332  0.00  0.00    -0.009 A 
HETATM   24  C   UNK N   1      33.901  10.959  14.477  0.00  0.00     0.015 A 
HETATM   25  C   UNK N   1      34.352  10.335  15.676  0.00  0.00     0.008 A 
HETATM   26  C   UNK N   1      35.288   9.311  15.470  0.00  0.00     0.050 A 
HETATM   27  S   UNK N   1      35.515   9.225  13.827  0.00  0.00    -0.106 SA
ENDBRANCH  22  23
ENDBRANCH  19  22
ENDBRANCH   1  18
TORSDOF 8
ENDMDL
MODEL 2
REMARK VINA RESULT:      -6.2      3.786      8.575
REMARK  8 active torsions:
REMARK  status: ('A' for Active; 'I' for Inactive)
REMARK    1  A    between atoms: C_5  and  C_6 
REMARK    2  A    between atoms: C_6  and  O_7 
REMARK    3  A    between atoms: C_10  and  C_11 
REMARK    4  A    between atoms: C_11  and  C_12 
REMARK    5  A    between atoms: C_11  and  N_15 
REMARK    6  A    between atoms: C_12  and  O_14 
REMARK       I    between atoms: N_15  and  C_16 
REMARK    7  A    between atoms: C_16  and  C_18 
REMARK    8  A    between atoms: C_18  and  C_19 
ROOT
HETATM    1  C   UNK N   1      32.550  17.613   8.258  0.00  0.00     0.215 C 
ENDROOT
BRANCH   1   2
HETATM    2  C   UNK N   1      32.807  16.258   8.962  0.00  0.00     0.177 C 
HETATM    3  S   UNK N   1      32.738  14.804   7.832  0.00  0.00    -0.137 SA
HETATM    4  C   UNK N   1      34.439  15.019   7.271  0.00  0.00     0.112 C 
HETATM    5  C   UNK N   1      35.359  14.764   8.414  0.00  0.00    -0.041 C 
HETATM    6  C   UNK N   1      36.487  13.806   8.192  0.00  0.00     0.047 C 
HETATM    7  C   UNK N   1      35.163  15.425   9.587  0.00  0.00     0.106 C 
HETATM    8  N   UNK N   1      34.040  16.295   9.741  0.00  0.00    -0.368 N 
HETATM    9  H   UNK N   1      34.104  16.985  10.441  0.00  0.00     0.161 HD
BRANCH   7  10
HETATM   10  C   UNK N   1      36.075  15.281  10.761  0.00  0.00     0.193 C 
HETATM   11  O   UNK N   1      35.878  14.449  11.628  0.00  0.00    -0.645 OA
BRANCH  10  12
HETATM   12  O   UNK N   1      37.142  16.098  10.865  0.00  0.00    -0.772 OA
HETATM   13  H   UNK N   1      37.926  15.928  11.349  0.00  0.00     0.167 HD
ENDBRANCH  10  12
ENDBRANCH   7  10
ENDBRANCH   1   2
BRANCH   1  14
HETATM   14  C   UNK N   1      33.811  18.153   7.611  0.00  0.00     0.166 C 
HETATM   15  O   UNK N   1      34.662  18.715   8.285  0.00  0.00    -0.648 OA
BRANCH  14  16
HETATM   16  O   UNK N   1      34.015  17.999   6.289  0.00  0.00    -0.775 OA
HETATM   17  H   UNK N   1      33.582  17.310   5.824  0.00  0.00     0.167 HD
ENDBRANCH  14  16
ENDBRANCH   1  14
BRANCH   1  18
HETATM   18  N   UNK N   1      31.528  17.424   7.234  0.00  0.00    -0.344 N 
HETATM   19  C   UNK N   1      30.192  17.496   7.472  0.00  0.00     0.223 C 
HETATM   20  O   UNK N   1      29.767  17.755   8.588  0.00  0.00    -0.273 OA
HETATM   21  H   UNK N   1      31.824  17.231   6.315  0.00  0.00     0.163 HD
BRANCH  19  22
HETATM   22  C   UNK N   1      29.214  17.196   6.375  0.00  0.00     0.148 C 
BRANCH  22  23
HETATM   23  C   UNK N   1      28.486  18.389   5.831  0.00  0.00    -0.009 A 
HETATM   24  C   UNK N   1      28.263  18.628   4.478  0.00  0.00     0.015 A 
HETATM   25  C   UNK N   1      27.510  19.814   4.237  0.00  0.00     0.008 A 
HETATM   26  C   UNK N   1      27.140  20.502   5.403  0.00  0.00     0.050 A 
HETATM   27  S   UNK N   1      27.757  19.620   6.668  0.00  0.00    -0.106 SA
ENDBRANCH  22  23
ENDBRANCH  19  22
ENDBRANCH   1  18
TORSDOF 8
ENDMDL
MODEL 3
REMARK VINA RESULT:      -6.1     12.562     15.888
REMARK  8 active torsions:
REMARK  status: ('A' for Active; 'I' for Inactive)
REMARK    1  A    between atoms: C_5  and  C_6 
REMARK    2  A    between atoms: C_6  and  O_7 
REMARK    3  A    between atoms: C_10  and  C_11 
REMARK    4  A    between atoms: C_11  and  C_12 
REMARK    5  A    between atoms: C_11  and  N_15 
REMARK    6  A    between atoms: C_12  and  O_14 
REMARK       I    between atoms: N_15  and  C_16 
REMARK    7  A    between atoms: C_16  and  C_18 
REMARK    8  A    between atoms: C_18  and  C_19 
ROOT
HETATM    1  C   UNK N   1      21.243  19.198   2.677  0.00  0.00     0.215 C 
ENDROOT
BRANCH   1   2
HETATM    2  C   UNK N   1      20.021  18.249   2.612  0.00  0.00     0.177 C 
HETATM    3  S   UNK N   1      20.083  17.044   1.219  0.00  0.00    -0.137 SA
HETATM    4  C   UNK N   1      21.137  15.889   2.119  0.00  0.00     0.112 C 
HETATM    5  C   UNK N   1      20.371  15.335   3.271  0.00  0.00    -0.041 C 
HETATM    6  C   UNK N   1      20.346  13.848   3.432  0.00  0.00     0.047 C 
HETATM    7  C   UNK N   1      19.761  16.189   4.136  0.00  0.00     0.106 C 
HETATM    8  N   UNK N   1      19.792  17.598   3.897  0.00  0.00    -0.368 N 
HETATM    9  H   UNK N   1      19.644  18.184   4.674  0.00  0.00     0.161 HD
BRANCH   7  10
HETATM   10  C   UNK N   1      19.030  15.725   5.353  0.00  0.00     0.193 C 
HETATM   11  O   UNK N   1      19.615  15.427   6.379  0.00  0.00    -0.645 OA
BRANCH  10  12
HETATM   12  O   UNK N   1      17.686  15.627   5.312  0.00  0.00    -0.772 OA
HETATM   13  H   UNK N   1      17.074  16.328   5.422  0.00  0.00     0.167 HD
ENDBRANCH  10  12
ENDBRANCH   7  10
ENDBRANCH   1   2
BRANCH   1  14
HETATM   14  C   UNK N   1      20.834  20.607   3.060  0.00  0.00     0.166 C 
HETATM   15  O   UNK N   1      19.990  20.794   3.923  0.00  0.00    -0.648 OA
BRANCH  14  16
HETATM   16  O   UNK N   1      21.414  21.667   2.467  0.00  0.00    -0.775 OA
HETATM   17  H   UNK N   1      22.215  21.560   1.991  0.00  0.00     0.167 HD
ENDBRANCH  14  16
ENDBRANCH   1  14
BRANCH   1  18
HETATM   18  N   UNK N   1      22.183  18.684   3.669  0.00  0.00    -0.344 N 
HETATM   19  C   UNK N   1      23.458  19.135   3.811  0.00  0.00     0.223 C 
HETATM   20  O   UNK N   1      23.885  20.038   3.108  0.00  0.00    -0.273 OA
HETATM   21  H   UNK N   1      21.876  17.968   4.269  0.00  0.00     0.163 HD
BRANCH  19  22
HETATM   22  C   UNK N   1      24.380  18.483   4.798  0.00  0.00     0.148 C 
BRANCH  22  23
HETATM   23  C   UNK N   1      25.753  19.083   4.874  0.00  0.00    -0.009 A 
HETATM   24  C   UNK N   1      26.093  20.175   5.668  0.00  0.00     0.015 A 
HETATM   25  C   UNK N   1      27.474  20.517   5.584  0.00  0.00     0.008 A 
HETATM   26  C   UNK N   1      28.216  19.690   4.727  0.00  0.00     0.050 A 
HETATM   27  S   UNK N   1      27.139  18.582   4.117  0.00  0.00    -0.106 SA
ENDBRANCH  22  23
ENDBRANCH  19  22
ENDBRANCH   1  18
TORSDOF 8
ENDMDL
MODEL 4
REMARK VINA RESULT:      -6.1      3.248      7.758
REMARK  8 active torsions:
REMARK  status: ('A' for Active; 'I' for Inactive)
REMARK    1  A    between atoms: C_5  and  C_6 
REMARK    2  A    between atoms: C_6  and  O_7 
REMARK    3  A    between atoms: C_10  and  C_11 
REMARK    4  A    between atoms: C_11  and  C_12 
REMARK    5  A    between atoms: C_11  and  N_15 
REMARK    6  A    between atoms: C_12  and  O_14 
REMARK       I    between atoms: N_15  and  C_16 
REMARK    7  A    between atoms: C_16  and  C_18 
REMARK    8  A    between atoms: C_18  and  C_19 
ROOT
HETATM    1  C   UNK N   1      32.971  17.156   8.626  0.00  0.00     0.215 C 
ENDROOT
BRANCH   1   2
HETATM    2  C   UNK N   1      33.048  15.715   9.188  0.00  0.00     0.177 C 
HETATM    3  S   UNK N   1      33.575  14.456   7.950  0.00  0.00    -0.137 SA
HETATM    4  C   UNK N   1      35.330  14.810   8.173  0.00  0.00     0.112 C 
HETATM    5  C   UNK N   1      35.731  14.407   9.550  0.00  0.00    -0.041 C 
HETATM    6  C   UNK N   1      36.937  13.531   9.689  0.00  0.00     0.047 C 
HETATM    7  C   UNK N   1      35.020  14.868  10.613  0.00  0.00     0.106 C 
HETATM    8  N   UNK N   1      33.853  15.667  10.404  0.00  0.00    -0.368 N 
HETATM    9  H   UNK N   1      33.566  16.240  11.152  0.00  0.00     0.161 HD
BRANCH   7  10
HETATM   10  C   UNK N   1      35.391  14.570  12.028  0.00  0.00     0.193 C 
HETATM   11  O   UNK N   1      34.794  13.736  12.687  0.00  0.00    -0.645 OA
BRANCH  10  12
HETATM   12  O   UNK N   1      36.412  15.245  12.595  0.00  0.00    -0.772 OA
HETATM   13  H   UNK N   1      36.358  16.075  13.025  0.00  0.00     0.167 HD
ENDBRANCH  10  12
ENDBRANCH   7  10
ENDBRANCH   1   2
BRANCH   1  14
HETATM   14  C   UNK N   1      34.351  17.752   8.430  0.00  0.00     0.166 C 
HETATM   15  O   UNK N   1      34.744  18.053   7.312  0.00  0.00    -0.648 OA
BRANCH  14  16
HETATM   16  O   UNK N   1      35.151  17.975   9.489  0.00  0.00    -0.775 OA
HETATM   17  H   UNK N   1      35.216  17.337  10.172  0.00  0.00     0.167 HD
ENDBRANCH  14  16
ENDBRANCH   1  14
BRANCH   1  18
HETATM   18  N   UNK N   1      32.276  17.122   7.342  0.00  0.00    -0.344 N 
HETATM   19  C   UNK N   1      30.937  17.306   7.199  0.00  0.00     0.223 C 
HETATM   20  O   UNK N   1      30.230  17.542   8.167  0.00  0.00    -0.273 OA
HETATM   21  H   UNK N   1      32.809  16.953   6.532  0.00  0.00     0.163 HD
BRANCH  19  22
HETATM   22  C   UNK N   1      30.298  17.163   5.850  0.00  0.00     0.148 C 
BRANCH  22  23
HETATM   23  C   UNK N   1      31.211  16.680   4.763  0.00  0.00    -0.009 A 
HETATM   24  C   UNK N   1      31.993  17.510   3.964  0.00  0.00     0.015 A 
HETATM   25  C   UNK N   1      32.800  16.791   3.035  0.00  0.00     0.008 A 
HETATM   26  C   UNK N   1      32.653  15.398   3.109  0.00  0.00     0.050 A 
HETATM   27  S   UNK N   1      31.540  15.121   4.311  0.00  0.00    -0.106 SA
ENDBRANCH  22  23
ENDBRANCH  19  22
ENDBRANCH   1  18
TORSDOF 8
ENDMDL
MODEL 5
REMARK VINA RESULT:      -5.9      5.415      7.548
REMARK  8 active torsions:
REMARK  status: ('A' for Active; 'I' for Inactive)
REMARK    1  A    between atoms: C_5  and  C_6 
REMARK    2  A    between atoms: C_6  and  O_7 
REMARK    3  A    between atoms: C_10  and  C_11 
REMARK    4  A    between atoms: C_11  and  C_12 
REMARK    5  A    between atoms: C_11  and  N_15 
REMARK    6  A    between atoms: C_12  and  O_14 
REMARK       I    between atoms: N_15  and  C_16 
REMARK    7  A    between atoms: C_16  and  C_18 
REMARK    8  A    between atoms: C_18  and  C_19 
ROOT
HETATM    1  C   UNK N   1      33.833  16.896   8.064  0.00  0.00     0.215 C 
ENDROOT
BRANCH   1   2
HETATM    2  C   UNK N   1      34.466  16.334   6.767  0.00  0.00     0.177 C 
HETATM    3  S   UNK N   1      34.730  14.510   6.794  0.00  0.00    -0.137 SA
HETATM    4  C   UNK N   1      33.030  14.146   6.314  0.00  0.00     0.112 C 
HETATM    5  C   UNK N   1      32.806  14.633   4.924  0.00  0.00    -0.041 C 
HETATM    6  C   UNK N   1      32.209  13.674   3.944  0.00  0.00     0.047 C 
HETATM    7  C   UNK N   1      33.118  15.920   4.612  0.00  0.00     0.106 C 
HETATM    8  N   UNK N   1      33.725  16.769   5.589  0.00  0.00    -0.368 N 
HETATM    9  H   UNK N   1      33.634  17.740   5.452  0.00  0.00     0.161 HD
BRANCH   7  10
HETATM   10  C   UNK N   1      32.865  16.512   3.264  0.00  0.00     0.193 C 
HETATM   11  O   UNK N   1      33.546  16.221   2.297  0.00  0.00    -0.645 OA
BRANCH  10  12
HETATM   12  O   UNK N   1      31.857  17.395   3.115  0.00  0.00    -0.772 OA
HETATM   13  H   UNK N   1      31.842  18.278   3.427  0.00  0.00     0.167 HD
ENDBRANCH  10  12
ENDBRANCH   7  10
ENDBRANCH   1   2
BRANCH   1  14
HETATM   14  C   UNK N   1      34.728  17.930   8.718  0.00  0.00     0.166 C 
HETATM   15  O   UNK N   1      34.856  19.041   8.224  0.00  0.00    -0.648 OA
BRANCH  14  16
HETATM   16  O   UNK N   1      35.375  17.641   9.863  0.00  0.00    -0.775 OA
HETATM   17  H   UNK N   1      35.544  16.749  10.095  0.00  0.00     0.167 HD
ENDBRANCH  14  16
ENDBRANCH   1  14
BRANCH   1  18
HETATM   18  N   UNK N   1      32.552  17.511   7.732  0.00  0.00    -0.344 N 
HETATM   19  C   UNK N   1      31.355  17.083   8.214  0.00  0.00     0.223 C 
HETATM   20  O   UNK N   1      31.295  16.144   8.994  0.00  0.00    -0.273 OA
HETATM   21  H   UNK N   1      32.554  18.283   7.120  0.00  0.00     0.163 HD
BRANCH  19  22
HETATM   22  C   UNK N   1      30.082  17.721   7.744  0.00  0.00     0.148 C 
BRANCH  22  23
HETATM   23  C   UNK N   1      29.584  17.239   6.414  0.00  0.00    -0.009 A 
HETATM   24  C   UNK N   1      29.652  15.919   5.977  0.00  0.00     0.015 A 
HETATM   25  C   UNK N   1      29.071  15.726   4.691  0.00  0.00     0.008 A 
HETATM   26  C   UNK N   1      28.544  16.895   4.121  0.00  0.00     0.050 A 
HETATM   27  S   UNK N   1      28.820  18.105   5.226  0.00  0.00    -0.106 SA
ENDBRANCH  22  23
ENDBRANCH  19  22
ENDBRANCH   1  18
TORSDOF 8
ENDMDL
MODEL 6
REMARK VINA RESULT:      -5.8     18.647     21.966
REMARK  8 active torsions:
REMARK  status: ('A' for Active; 'I' for Inactive)
REMARK    1  A    between atoms: C_5  and  C_6 
REMARK    2  A    between atoms: C_6  and  O_7 
REMARK    3  A    between atoms: C_10  and  C_11 
REMARK    4  A    between atoms: C_11  and  C_12 
REMARK    5  A    between atoms: C_11  and  N_15 
REMARK    6  A    between atoms: C_12  and  O_14 
REMARK       I    between atoms: N_15  and  C_16 
REMARK    7  A    between atoms: C_16  and  C_18 
REMARK    8  A    between atoms: C_18  and  C_19 
ROOT
HETATM    1  C   UNK N   1      26.309  23.819  -7.497  0.00  0.00     0.215 C 
ENDROOT
BRANCH   1   2
HETATM    2  C   UNK N   1      27.590  23.334  -6.774  0.00  0.00     0.177 C 
HETATM    3  S   UNK N   1      29.132  24.167  -7.343  0.00  0.00    -0.137 SA
HETATM    4  C   UNK N   1      28.880  25.602  -6.279  0.00  0.00     0.112 C 
HETATM    5  C   UNK N   1      28.998  25.174  -4.858  0.00  0.00    -0.041 C 
HETATM    6  C   UNK N   1      29.915  25.960  -3.974  0.00  0.00     0.047 C 
HETATM    7  C   UNK N   1      28.255  24.124  -4.415  0.00  0.00     0.106 C 
HETATM    8  N   UNK N   1      27.431  23.393  -5.325  0.00  0.00    -0.368 N 
HETATM    9  H   UNK N   1      26.685  22.881  -4.937  0.00  0.00     0.161 HD
BRANCH   7  10
HETATM   10  C   UNK N   1      28.260  23.670  -2.992  0.00  0.00     0.193 C 
HETATM   11  O   UNK N   1      29.215  23.089  -2.507  0.00  0.00    -0.645 OA
BRANCH  10  12
HETATM   12  O   UNK N   1      27.176  23.906  -2.225  0.00  0.00    -0.772 OA
HETATM   13  H   UNK N   1      26.589  23.262  -1.881  0.00  0.00     0.167 HD
ENDBRANCH  10  12
ENDBRANCH   7  10
ENDBRANCH   1   2
BRANCH   1  14
HETATM   14  C   UNK N   1      25.354  22.673  -7.767  0.00  0.00     0.166 C 
HETATM   15  O   UNK N   1      24.822  22.078  -6.842  0.00  0.00    -0.648 OA
BRANCH  14  16
HETATM   16  O   UNK N   1      25.065  22.314  -9.032  0.00  0.00    -0.775 OA
HETATM   17  H   UNK N   1      24.495  22.844  -9.553  0.00  0.00     0.167 HD
ENDBRANCH  14  16
ENDBRANCH   1  14
BRANCH   1  18
HETATM   18  N   UNK N   1      25.644  24.811  -6.657  0.00  0.00    -0.344 N 
HETATM   19  C   UNK N   1      25.547  26.130  -6.971  0.00  0.00     0.223 C 
HETATM   20  O   UNK N   1      26.006  26.559  -8.019  0.00  0.00    -0.273 OA
HETATM   21  H   UNK N   1      25.243  24.506  -5.811  0.00  0.00     0.163 HD
BRANCH  19  22
HETATM   22  C   UNK N   1      24.924  27.090  -6.003  0.00  0.00     0.148 C 
BRANCH  22  23
HETATM   23  C   UNK N   1      25.876  27.708  -5.023  0.00  0.00    -0.009 A 
HETATM   24  C   UNK N   1      26.809  28.692  -5.342  0.00  0.00     0.015 A 
HETATM   25  C   UNK N   1      27.561  29.133  -4.215  0.00  0.00     0.008 A 
HETATM   26  C   UNK N   1      27.215  28.499  -3.012  0.00  0.00     0.050 A 
HETATM   27  S   UNK N   1      26.004  27.428  -3.394  0.00  0.00    -0.106 SA
ENDBRANCH  22  23
ENDBRANCH  19  22
ENDBRANCH   1  18
TORSDOF 8
ENDMDL
MODEL 7
REMARK VINA RESULT:      -5.8      2.682      3.971
REMARK  8 active torsions:
REMARK  status: ('A' for Active; 'I' for Inactive)
REMARK    1  A    between atoms: C_5  and  C_6 
REMARK    2  A    between atoms: C_6  and  O_7 
REMARK    3  A    between atoms: C_10  and  C_11 
REMARK    4  A    between atoms: C_11  and  C_12 
REMARK    5  A    between atoms: C_11  and  N_15 
REMARK    6  A    between atoms: C_12  and  O_14 
REMARK       I    between atoms: N_15  and  C_16 
REMARK    7  A    between atoms: C_16  and  C_18 
REMARK    8  A    between atoms: C_18  and  C_19 
ROOT
HETATM    1  C   UNK N   1      34.931  16.575   8.050  0.00  0.00     0.215 C 
ENDROOT
BRANCH   1   2
HETATM    2  C   UNK N   1      34.611  15.808   6.743  0.00  0.00     0.177 C 
HETATM    3  S   UNK N   1      33.745  14.204   7.010  0.00  0.00    -0.137 SA
HETATM    4  C   UNK N   1      32.120  14.977   7.145  0.00  0.00     0.112 C 
HETATM    5  C   UNK N   1      31.757  15.567   5.826  0.00  0.00    -0.041 C 
HETATM    6  C   UNK N   1      30.415  15.222   5.261  0.00  0.00     0.047 C 
HETATM    7  C   UNK N   1      32.630  16.410   5.211  0.00  0.00     0.106 C 
HETATM    8  N   UNK N   1      33.912  16.662   5.789  0.00  0.00    -0.368 N 
HETATM    9  H   UNK N   1      34.367  17.492   5.517  0.00  0.00     0.161 HD
BRANCH   7  10
HETATM   10  C   UNK N   1      32.321  17.098   3.922  0.00  0.00     0.193 C 
HETATM   11  O   UNK N   1      32.773  16.707   2.861  0.00  0.00    -0.645 OA
BRANCH  10  12
HETATM   12  O   UNK N   1      31.522  18.184   3.935  0.00  0.00    -0.772 OA
HETATM   13  H   UNK N   1      31.525  18.869   4.573  0.00  0.00     0.167 HD
ENDBRANCH  10  12
ENDBRANCH   7  10
ENDBRANCH   1   2
BRANCH   1  14
HETATM   14  C   UNK N   1      34.306  17.956   8.052  0.00  0.00     0.166 C 
HETATM   15  O   UNK N   1      34.986  18.946   7.823  0.00  0.00    -0.648 OA
BRANCH  14  16
HETATM   16  O   UNK N   1      32.988  18.105   8.286  0.00  0.00    -0.775 OA
HETATM   17  H   UNK N   1      32.684  18.308   9.149  0.00  0.00     0.167 HD
ENDBRANCH  14  16
ENDBRANCH   1  14
BRANCH   1  18
HETATM   18  N   UNK N   1      34.411  15.812   9.181  0.00  0.00    -0.344 N 
HETATM   19  C   UNK N   1      35.053  15.690  10.373  0.00  0.00     0.223 C 
HETATM   20  O   UNK N   1      36.119  16.253  10.571  0.00  0.00    -0.273 OA
HETATM   21  H   UNK N   1      33.546  15.356   9.073  0.00  0.00     0.163 HD
BRANCH  19  22
HETATM   22  C   UNK N   1      34.485  14.810  11.446  0.00  0.00     0.148 C 
BRANCH  22  23
HETATM   23  C   UNK N   1      35.477  13.906  12.115  0.00  0.00    -0.009 A 
HETATM   24  C   UNK N   1      35.805  13.958  13.467  0.00  0.00     0.015 A 
HETATM   25  C   UNK N   1      36.747  12.960  13.852  0.00  0.00     0.008 A 
HETATM   26  C   UNK N   1      37.153  12.123  12.801  0.00  0.00     0.050 A 
HETATM   27  S   UNK N   1      36.337  12.652  11.455  0.00  0.00    -0.106 SA
ENDBRANCH  22  23
ENDBRANCH  19  22
ENDBRANCH   1  18
TORSDOF 8
ENDMDL
MODEL 8
REMARK VINA RESULT:      -5.8     13.852     14.873
REMARK  8 active torsions:
REMARK  status: ('A' for Active; 'I' for Inactive)
REMARK    1  A    between atoms: C_5  and  C_6 
REMARK    2  A    between atoms: C_6  and  O_7 
REMARK    3  A    between atoms: C_10  and  C_11 
REMARK    4  A    between atoms: C_11  and  C_12 
REMARK    5  A    between atoms: C_11  and  N_15 
REMARK    6  A    between atoms: C_12  and  O_14 
REMARK       I    between atoms: N_15  and  C_16 
REMARK    7  A    between atoms: C_16  and  C_18 
REMARK    8  A    between atoms: C_18  and  C_19 
ROOT
HETATM    1  C   UNK N   1      20.277  16.196   4.058  0.00  0.00     0.215 C 
ENDROOT
BRANCH   1   2
HETATM    2  C   UNK N   1      20.548  17.645   4.533  0.00  0.00     0.177 C 
HETATM    3  S   UNK N   1      21.907  17.785   5.770  0.00  0.00    -0.137 SA
HETATM    4  C   UNK N   1      23.201  17.783   4.512  0.00  0.00     0.112 C 
HETATM    5  C   UNK N   1      23.086  19.027   3.701  0.00  0.00    -0.041 C 
HETATM    6  C   UNK N   1      24.325  19.846   3.514  0.00  0.00     0.047 C 
HETATM    7  C   UNK N   1      21.888  19.351   3.144  0.00  0.00     0.106 C 
HETATM    8  N   UNK N   1      20.736  18.544   3.400  0.00  0.00    -0.368 N 
HETATM    9  H   UNK N   1      20.000  18.601   2.749  0.00  0.00     0.161 HD
BRANCH   7  10
HETATM   10  C   UNK N   1      21.699  20.542   2.263  0.00  0.00     0.193 C 
HETATM   11  O   UNK N   1      21.641  20.441   1.051  0.00  0.00    -0.645 OA
BRANCH  10  12
HETATM   12  O   UNK N   1      21.594  21.763   2.826  0.00  0.00    -0.772 OA
HETATM   13  H   UNK N   1      20.876  22.079   3.337  0.00  0.00     0.167 HD
ENDBRANCH  10  12
ENDBRANCH   7  10
ENDBRANCH   1   2
BRANCH   1  14
HETATM   14  C   UNK N   1      20.457  16.060   2.558  0.00  0.00     0.166 C 
HETATM   15  O   UNK N   1      21.543  15.754   2.089  0.00  0.00    -0.648 OA
BRANCH  14  16
HETATM   16  O   UNK N   1      19.414  16.254   1.729  0.00  0.00    -0.775 OA
HETATM   17  H   UNK N   1      19.071  17.116   1.599  0.00  0.00     0.167 HD
ENDBRANCH  14  16
ENDBRANCH   1  14
BRANCH   1  18
HETATM   18  N   UNK N   1      21.206  15.299   4.736  0.00  0.00    -0.344 N 
HETATM   19  C   UNK N   1      20.820  14.236   5.492  0.00  0.00     0.223 C 
HETATM   20  O   UNK N   1      19.638  13.958   5.624  0.00  0.00    -0.273 OA
HETATM   21  H   UNK N   1      22.170  15.473   4.643  0.00  0.00     0.163 HD
BRANCH  19  22
HETATM   22  C   UNK N   1      21.845  13.424   6.226  0.00  0.00     0.148 C 
BRANCH  22  23
HETATM   23  C   UNK N   1      21.608  13.287   7.701  0.00  0.00    -0.009 A 
HETATM   24  C   UNK N   1      22.037  12.210   8.472  0.00  0.00     0.015 A 
HETATM   25  C   UNK N   1      21.715  12.350   9.853  0.00  0.00     0.008 A 
HETATM   26  C   UNK N   1      21.037  13.539  10.164  0.00  0.00     0.050 A 
HETATM   27  S   UNK N   1      20.868  14.356   8.728  0.00  0.00    -0.106 SA
ENDBRANCH  22  23
ENDBRANCH  19  22
ENDBRANCH   1  18
TORSDOF 8
ENDMDL
MODEL 9
REMARK VINA RESULT:      -5.7     16.690     19.450
REMARK  8 active torsions:
REMARK  status: ('A' for Active; 'I' for Inactive)
REMARK    1  A    between atoms: C_5  and  C_6 
REMARK    2  A    between atoms: C_6  and  O_7 
REMARK    3  A    between atoms: C_10  and  C_11 
REMARK    4  A    between atoms: C_11  and  C_12 
REMARK    5  A    between atoms: C_11  and  N_15 
REMARK    6  A    between atoms: C_12  and  O_14 
REMARK       I    between atoms: N_15  and  C_16 
REMARK    7  A    between atoms: C_16  and  C_18 
REMARK    8  A    between atoms: C_18  and  C_19 
ROOT
HETATM    1  C   UNK N   1      29.183  22.774  -3.268  0.00  0.00     0.215 C 
ENDROOT
BRANCH   1   2
HETATM    2  C   UNK N   1      29.841  21.731  -4.205  0.00  0.00     0.177 C 
HETATM    3  S   UNK N   1      29.949  22.268  -5.964  0.00  0.00    -0.137 SA
HETATM    4  C   UNK N   1      31.458  23.219  -5.696  0.00  0.00     0.112 C 
HETATM    5  C   UNK N   1      32.564  22.282  -5.355  0.00  0.00    -0.041 C 
HETATM    6  C   UNK N   1      33.839  22.407  -6.128  0.00  0.00     0.047 C 
HETATM    7  C   UNK N   1      32.389  21.383  -4.348  0.00  0.00     0.106 C 
HETATM    8  N   UNK N   1      31.129  21.291  -3.680  0.00  0.00    -0.368 N 
HETATM    9  H   UNK N   1      31.131  20.893  -2.779  0.00  0.00     0.161 HD
BRANCH   7  10
HETATM   10  C   UNK N   1      33.465  20.453  -3.896  0.00  0.00     0.193 C 
HETATM   11  O   UNK N   1      34.477  20.857  -3.351  0.00  0.00    -0.645 OA
BRANCH  10  12
HETATM   12  O   UNK N   1      33.315  19.128  -4.101  0.00  0.00    -0.772 OA
HETATM   13  H   UNK N   1      33.619  18.643  -4.843  0.00  0.00     0.167 HD
ENDBRANCH  10  12
ENDBRANCH   7  10
ENDBRANCH   1   2
BRANCH   1  14
HETATM   14  C   UNK N   1      30.213  23.478  -2.407  0.00  0.00     0.166 C 
HETATM   15  O   UNK N   1      30.552  23.004  -1.332  0.00  0.00    -0.648 OA
BRANCH  14  16
HETATM   16  O   UNK N   1      30.782  24.623  -2.829  0.00  0.00    -0.775 OA
HETATM   17  H   UNK N   1      31.701  24.763  -2.708  0.00  0.00     0.167 HD
ENDBRANCH  14  16
ENDBRANCH   1  14
BRANCH   1  18
HETATM   18  N   UNK N   1      28.483  23.761  -4.084  0.00  0.00    -0.344 N 
HETATM   19  C   UNK N   1      27.285  24.311  -3.750  0.00  0.00     0.223 C 
HETATM   20  O   UNK N   1      26.729  24.012  -2.704  0.00  0.00    -0.273 OA
HETATM   21  H   UNK N   1      28.903  24.046  -4.927  0.00  0.00     0.163 HD
BRANCH  19  22
HETATM   22  C   UNK N   1      26.599  25.250  -4.696  0.00  0.00     0.148 C 
BRANCH  22  23
HETATM   23  C   UNK N   1      26.730  26.704  -4.353  0.00  0.00    -0.009 A 
HETATM   24  C   UNK N   1      25.658  27.581  -4.208  0.00  0.00     0.015 A 
HETATM   25  C   UNK N   1      26.059  28.897  -3.840  0.00  0.00     0.008 A 
HETATM   26  C   UNK N   1      27.446  29.052  -3.693  0.00  0.00     0.050 A 
HETATM   27  S   UNK N   1      28.108  27.564  -4.022  0.00  0.00    -0.106 SA
ENDBRANCH  22  23
ENDBRANCH  19  22
ENDBRANCH   1  18
TORSDOF 8
ENDMDL
