REMARK  8 active torsions:
REMARK  status: ('A' for Active; 'I' for Inactive)
REMARK    1  A    between atoms: C_5  and  C_6 
REMARK    2  A    between atoms: C_6  and  O_7 
REMARK    3  A    between atoms: C_10  and  C_11 
REMARK    4  A    between atoms: C_11  and  C_12 
REMARK    5  A    between atoms: C_11  and  N_15 
REMARK    6  A    between atoms: C_12  and  O_14 
REMARK       I    between atoms: N_15  and  C_16 
REMARK    7  A    between atoms: C_16  and  C_18 
REMARK    8  A    between atoms: C_18  and  C_19 
ROOT
HETATM    1  C   UNK N   1      -0.710  -0.714  -0.070  0.00  0.00     0.215 C 
ENDROOT
BRANCH   1   2
HETATM    2  C   UNK N   1      -1.214   0.594  -0.729  0.00  0.00     0.177 C 
HETATM    3  S   UNK N   1      -3.041   0.818  -0.645  0.00  0.00    -0.137 SA
HETATM    4  C   UNK N   1      -2.993   1.489   1.029  0.00  0.00     0.112 C 
HETATM    5  C   UNK N   1      -2.294   2.804   1.001  0.00  0.00    -0.041 C 
HETATM    6  C   UNK N   1      -2.979   3.964   1.653  0.00  0.00     0.047 C 
HETATM    7  C   UNK N   1      -1.066   2.893   0.423  0.00  0.00     0.106 C 
HETATM    8  N   UNK N   1      -0.490   1.753  -0.218  0.00  0.00    -0.368 N 
HETATM    9  H   UNK N   1       0.489   1.750  -0.325  0.00  0.00     0.161 HD
BRANCH   7  10
HETATM   10  C   UNK N   1      -0.266   4.154   0.409  0.00  0.00     0.193 C 
HETATM   11  O   UNK N   1      -0.685   5.186   0.902  0.00  0.00    -0.645 OA
BRANCH  10  12
HETATM   12  O   UNK N   1       0.952   4.151  -0.170  0.00  0.00    -0.772 OA
HETATM   13  H   UNK N   1       1.374   3.418  -0.572  0.00  0.00     0.167 HD
ENDBRANCH  10  12
ENDBRANCH   7  10
ENDBRANCH   1   2
BRANCH   1  14
HETATM   14  C   UNK N   1      -1.326  -1.938  -0.719  0.00  0.00     0.166 C 
HETATM   15  O   UNK N   1      -0.621  -2.762  -1.283  0.00  0.00    -0.648 OA
BRANCH  14  16
HETATM   16  O   UNK N   1      -2.656  -2.140  -0.662  0.00  0.00    -0.775 OA
HETATM   17  H   UNK N   1      -3.241  -1.409  -0.622  0.00  0.00     0.167 HD
ENDBRANCH  14  16
ENDBRANCH   1  14
BRANCH   1  18
HETATM   18  N   UNK N   1       0.742  -0.778  -0.206  0.00  0.00    -0.344 N 
HETATM   19  C   UNK N   1       1.600  -0.863   0.845  0.00  0.00     0.223 C 
HETATM   20  O   UNK N   1       1.182  -0.916   1.992  0.00  0.00    -0.273 OA
HETATM   21  H   UNK N   1       1.123  -0.757  -1.113  0.00  0.00     0.163 HD
BRANCH  19  22
HETATM   22  C   UNK N   1       3.081  -0.832   0.612  0.00  0.00     0.148 C 
BRANCH  22  23
HETATM   23  C   UNK N   1       3.661  -2.095   0.049  0.00  0.00    -0.009 A 
HETATM   24  C   UNK N   1       5.014  -2.293  -0.214  0.00  0.00     0.015 A 
HETATM   25  C   UNK N   1       5.301  -3.598  -0.709  0.00  0.00     0.008 A 
HETATM   26  C   UNK N   1       4.173  -4.424  -0.830  0.00  0.00     0.050 A 
HETATM   27  S   UNK N   1       2.882  -3.509  -0.324  0.00  0.00    -0.106 SA
ENDBRANCH  22  23
ENDBRANCH  19  22
ENDBRANCH   1  18
TORSDOF 8
