MODEL 1
REMARK VINA RESULT:      -6.3      0.000      0.000
REMARK  7 active torsions:
REMARK  status: ('A' for Active; 'I' for Inactive)
REMARK    1  A    between atoms: O_1  and  C_2 
REMARK    2  A    between atoms: C_3  and  C_2 
REMARK    3  A    between atoms: C_5  and  O_10 
REMARK    4  A    between atoms: C_6  and  O_7 
REMARK    5  A    between atoms: C_8  and  O_9 
REMARK    6  A    between atoms: O_10  and  C_11 
REMARK    7  A    between atoms: C_14  and  N_15 
ROOT
HETATM    1  C   UNK N   1      35.746  12.857  14.935  0.00  0.00     0.179 C 
HETATM    2  O   UNK N   1      34.676  13.159  14.057  0.00  0.00    -0.348 OA
HETATM    3  C   UNK N   1      35.346  13.754  12.965  0.00  0.00     0.298 C 
HETATM    4  C   UNK N   1      36.486  12.783  12.685  0.00  0.00     0.205 C 
HETATM    5  C   UNK N   1      36.907  12.340  14.069  0.00  0.00     0.182 C 
ENDROOT
BRANCH   3   6
HETATM    6  O   UNK N   1      34.456  14.037  11.922  0.00  0.00    -0.318 OA
BRANCH   6   7
HETATM    7  C   UNK N   1      34.443  15.068  11.024  0.00  0.00     0.072 A 
HETATM    8  C   UNK N   1      35.336  16.132  11.202  0.00  0.00     0.039 A 
HETATM    9  C   UNK N   1      35.412  17.164  10.256  0.00  0.00     0.039 A 
HETATM   10  C   UNK N   1      34.583  17.148   9.122  0.00  0.00     0.103 A 
HETATM   11  C   UNK N   1      33.669  16.103   8.962  0.00  0.00     0.039 A 
HETATM   12  C   UNK N   1      33.606  15.079   9.900  0.00  0.00     0.039 A 
BRANCH  10  13
HETATM   13  N   UNK N   1      34.680  18.164   8.132  0.00  0.00    -0.116 N 
HETATM   14  O   UNK N   1      35.125  19.361   8.454  0.00  0.00    -0.532 OA
HETATM   15  O   UNK N   1      34.397  17.929   6.996  0.00  0.00    -0.532 OA
ENDBRANCH  10  13
ENDBRANCH   6   7
ENDBRANCH   3   6
BRANCH   4  16
HETATM   16  O   UNK N   1      37.544  13.354  11.973  0.00  0.00    -0.388 OA
HETATM   17  H   UNK N   1      38.013  14.187  11.806  0.00  0.00     0.210 HD
ENDBRANCH   4  16
BRANCH   1  18
HETATM   18  C   UNK N   1      35.340  11.909  16.058  0.00  0.00     0.198 C 
BRANCH  18  19
HETATM   19  O   UNK N   1      34.421  10.970  15.580  0.00  0.00    -0.398 OA
HETATM   20  H   UNK N   1      33.587  11.185  15.134  0.00  0.00     0.209 HD
ENDBRANCH  18  19
ENDBRANCH   1  18
BRANCH   5  21
HETATM   21  O   UNK N   1      37.013  10.944  14.088  0.00  0.00    -0.390 OA
HETATM   22  H   UNK N   1      37.213  10.204  13.493  0.00  0.00     0.210 HD
ENDBRANCH   5  21
TORSDOF 7
ENDMDL
MODEL 2
REMARK VINA RESULT:      -6.2     14.391     17.615
REMARK  7 active torsions:
REMARK  status: ('A' for Active; 'I' for Inactive)
REMARK    1  A    between atoms: O_1  and  C_2 
REMARK    2  A    between atoms: C_3  and  C_2 
REMARK    3  A    between atoms: C_5  and  O_10 
REMARK    4  A    between atoms: C_6  and  O_7 
REMARK    5  A    between atoms: C_8  and  O_9 
REMARK    6  A    between atoms: O_10  and  C_11 
REMARK    7  A    between atoms: C_14  and  N_15 
ROOT
HETATM    1  C   UNK N   1      20.501  20.075   2.873  0.00  0.00     0.179 C 
HETATM    2  O   UNK N   1      21.513  19.685   3.784  0.00  0.00    -0.348 OA
HETATM    3  C   UNK N   1      20.854  18.703   4.557  0.00  0.00     0.298 C 
HETATM    4  C   UNK N   1      20.204  17.812   3.506  0.00  0.00     0.205 C 
HETATM    5  C   UNK N   1      19.760  18.798   2.448  0.00  0.00     0.182 C 
ENDROOT
BRANCH   3   6
HETATM    6  O   UNK N   1      21.733  18.106   5.468  0.00  0.00    -0.318 OA
BRANCH   6   7
HETATM    7  C   UNK N   1      21.493  17.222   6.483  0.00  0.00     0.072 A 
HETATM    8  C   UNK N   1      20.533  17.547   7.449  0.00  0.00     0.039 A 
HETATM    9  C   UNK N   1      20.197  16.630   8.455  0.00  0.00     0.039 A 
HETATM   10  C   UNK N   1      20.829  15.377   8.512  0.00  0.00     0.103 A 
HETATM   11  C   UNK N   1      21.811  15.066   7.567  0.00  0.00     0.039 A 
HETATM   12  C   UNK N   1      22.132  15.978   6.567  0.00  0.00     0.039 A 
BRANCH  10  13
HETATM   13  N   UNK N   1      20.467  14.420   9.500  0.00  0.00    -0.116 N 
HETATM   14  O   UNK N   1      21.400  13.760  10.154  0.00  0.00    -0.532 OA
HETATM   15  O   UNK N   1      19.320  14.238   9.772  0.00  0.00    -0.532 OA
ENDBRANCH  10  13
ENDBRANCH   6   7
ENDBRANCH   3   6
BRANCH   4  16
HETATM   16  O   UNK N   1      19.138  17.054   3.998  0.00  0.00    -0.388 OA
HETATM   17  H   UNK N   1      18.542  16.317   3.789  0.00  0.00     0.210 HD
ENDBRANCH   4  16
BRANCH   1  18
HETATM   18  C   UNK N   1      21.040  20.897   1.707  0.00  0.00     0.198 C 
BRANCH  18  19
HETATM   19  O   UNK N   1      20.028  21.112   0.767  0.00  0.00    -0.398 OA
HETATM   20  H   UNK N   1      19.121  21.382   0.978  0.00  0.00     0.209 HD
ENDBRANCH  18  19
ENDBRANCH   1  18
BRANCH   5  21
HETATM   21  O   UNK N   1      20.166  18.332   1.191  0.00  0.00    -0.390 OA
HETATM   22  H   UNK N   1      20.749  17.663   0.798  0.00  0.00     0.210 HD
ENDBRANCH   5  21
TORSDOF 7
ENDMDL
MODEL 3
REMARK VINA RESULT:      -6.1      3.466      7.668
REMARK  7 active torsions:
REMARK  status: ('A' for Active; 'I' for Inactive)
REMARK    1  A    between atoms: O_1  and  C_2 
REMARK    2  A    between atoms: C_3  and  C_2 
REMARK    3  A    between atoms: C_5  and  O_10 
REMARK    4  A    between atoms: C_6  and  O_7 
REMARK    5  A    between atoms: C_8  and  O_9 
REMARK    6  A    between atoms: O_10  and  C_11 
REMARK    7  A    between atoms: C_14  and  N_15 
ROOT
HETATM    1  C   UNK N   1      35.050  14.765  10.550  0.00  0.00     0.179 C 
HETATM    2  O   UNK N   1      34.448  14.745  11.832  0.00  0.00    -0.348 OA
HETATM    3  C   UNK N   1      35.159  13.709  12.478  0.00  0.00     0.298 C 
HETATM    4  C   UNK N   1      36.614  14.046  12.178  0.00  0.00     0.205 C 
HETATM    5  C   UNK N   1      36.560  14.565  10.758  0.00  0.00     0.182 C 
ENDROOT
BRANCH   3   6
HETATM    6  O   UNK N   1      34.776  13.597  13.820  0.00  0.00    -0.318 OA
BRANCH   6   7
HETATM    7  C   UNK N   1      34.826  12.527  14.669  0.00  0.00     0.072 A 
HETATM    8  C   UNK N   1      35.452  12.681  15.914  0.00  0.00     0.039 A 
HETATM    9  C   UNK N   1      35.449  11.634  16.846  0.00  0.00     0.039 A 
HETATM   10  C   UNK N   1      34.826  10.414  16.539  0.00  0.00     0.103 A 
HETATM   11  C   UNK N   1      34.231  10.249  15.285  0.00  0.00     0.039 A 
HETATM   12  C   UNK N   1      34.231  11.295  14.369  0.00  0.00     0.039 A 
BRANCH  10  13
HETATM   13  N   UNK N   1      34.777   9.358  17.491  0.00  0.00    -0.116 N 
HETATM   14  O   UNK N   1      35.346   8.201  17.227  0.00  0.00    -0.532 OA
HETATM   15  O   UNK N   1      34.255   9.527  18.552  0.00  0.00    -0.532 OA
ENDBRANCH  10  13
ENDBRANCH   6   7
ENDBRANCH   3   6
BRANCH   4  16
HETATM   16  O   UNK N   1      37.478  12.955  12.306  0.00  0.00    -0.388 OA
HETATM   17  H   UNK N   1      37.780  12.144  11.868  0.00  0.00     0.210 HD
ENDBRANCH   4  16
BRANCH   1  18
HETATM   18  C   UNK N   1      34.694  16.013   9.749  0.00  0.00     0.198 C 
BRANCH  18  19
HETATM   19  O   UNK N   1      34.760  17.142  10.571  0.00  0.00    -0.398 OA
HETATM   20  H   UNK N   1      34.105  17.857  10.587  0.00  0.00     0.209 HD
ENDBRANCH  18  19
ENDBRANCH   1  18
BRANCH   5  21
HETATM   21  O   UNK N   1      37.278  15.765  10.683  0.00  0.00    -0.390 OA
HETATM   22  H   UNK N   1      38.192  16.083  10.615  0.00  0.00     0.210 HD
ENDBRANCH   5  21
TORSDOF 7
ENDMDL
MODEL 4
REMARK VINA RESULT:      -6.1      3.319      6.860
REMARK  7 active torsions:
REMARK  status: ('A' for Active; 'I' for Inactive)
REMARK    1  A    between atoms: O_1  and  C_2 
REMARK    2  A    between atoms: C_3  and  C_2 
REMARK    3  A    between atoms: C_5  and  O_10 
REMARK    4  A    between atoms: C_6  and  O_7 
REMARK    5  A    between atoms: C_8  and  O_9 
REMARK    6  A    between atoms: O_10  and  C_11 
REMARK    7  A    between atoms: C_14  and  N_15 
ROOT
HETATM    1  C   UNK N   1      35.109  14.150  10.474  0.00  0.00     0.179 C 
HETATM    2  O   UNK N   1      34.892  13.555  11.742  0.00  0.00    -0.348 OA
HETATM    3  C   UNK N   1      36.071  12.797  11.920  0.00  0.00     0.298 C 
HETATM    4  C   UNK N   1      37.176  13.786  11.572  0.00  0.00     0.205 C 
HETATM    5  C   UNK N   1      36.587  14.568  10.419  0.00  0.00     0.182 C 
ENDROOT
BRANCH   3   6
HETATM    6  O   UNK N   1      36.100  12.202  13.186  0.00  0.00    -0.318 OA
BRANCH   6   7
HETATM    7  C   UNK N   1      35.885  12.740  14.424  0.00  0.00     0.072 A 
HETATM    8  C   UNK N   1      34.826  12.249  15.200  0.00  0.00     0.039 A 
HETATM    9  C   UNK N   1      34.626  12.715  16.507  0.00  0.00     0.039 A 
HETATM   10  C   UNK N   1      35.480  13.688  17.051  0.00  0.00     0.103 A 
HETATM   11  C   UNK N   1      36.516  14.202  16.265  0.00  0.00     0.039 A 
HETATM   12  C   UNK N   1      36.713  13.728  14.973  0.00  0.00     0.039 A 
BRANCH  10  13
HETATM   13  N   UNK N   1      35.316  14.138  18.390  0.00  0.00    -0.116 N 
HETATM   14  O   UNK N   1      35.206  13.268  19.372  0.00  0.00    -0.532 OA
HETATM   15  O   UNK N   1      35.318  15.306  18.639  0.00  0.00    -0.532 OA
ENDBRANCH  10  13
ENDBRANCH   6   7
ENDBRANCH   3   6
BRANCH   4  16
HETATM   16  O   UNK N   1      38.385  13.175  11.228  0.00  0.00    -0.388 OA
HETATM   17  H   UNK N   1      39.244  12.890  11.579  0.00  0.00     0.210 HD
ENDBRANCH   4  16
BRANCH   1  18
HETATM   18  C   UNK N   1      34.131  15.282  10.177  0.00  0.00     0.198 C 
BRANCH  18  19
HETATM   19  O   UNK N   1      32.997  15.156  10.985  0.00  0.00    -0.398 OA
HETATM   20  H   UNK N   1      32.449  14.358  11.055  0.00  0.00     0.209 HD
ENDBRANCH  18  19
ENDBRANCH   1  18
BRANCH   5  21
HETATM   21  O   UNK N   1      36.768  15.937  10.656  0.00  0.00    -0.390 OA
HETATM   22  H   UNK N   1      36.563  16.610  11.324  0.00  0.00     0.210 HD
ENDBRANCH   5  21
TORSDOF 7
ENDMDL
MODEL 5
REMARK VINA RESULT:      -5.8      4.218      8.445
REMARK  7 active torsions:
REMARK  status: ('A' for Active; 'I' for Inactive)
REMARK    1  A    between atoms: O_1  and  C_2 
REMARK    2  A    between atoms: C_3  and  C_2 
REMARK    3  A    between atoms: C_5  and  O_10 
REMARK    4  A    between atoms: C_6  and  O_7 
REMARK    5  A    between atoms: C_8  and  O_9 
REMARK    6  A    between atoms: O_10  and  C_11 
REMARK    7  A    between atoms: C_14  and  N_15 
ROOT
HETATM    1  C   UNK N   1      35.120  12.967  12.158  0.00  0.00     0.179 C 
HETATM    2  O   UNK N   1      34.541  13.416  13.370  0.00  0.00    -0.348 OA
HETATM    3  C   UNK N   1      35.422  12.884  14.337  0.00  0.00     0.298 C 
HETATM    4  C   UNK N   1      36.797  13.269  13.804  0.00  0.00     0.205 C 
HETATM    5  C   UNK N   1      36.643  13.105  12.308  0.00  0.00     0.182 C 
ENDROOT
BRANCH   3   6
HETATM    6  O   UNK N   1      35.076  13.310  15.624  0.00  0.00    -0.318 OA
BRANCH   6   7
HETATM    7  C   UNK N   1      35.185  12.673  16.829  0.00  0.00     0.072 A 
HETATM    8  C   UNK N   1      35.434  11.294  16.844  0.00  0.00     0.039 A 
HETATM    9  C   UNK N   1      35.638  10.621  18.056  0.00  0.00     0.039 A 
HETATM   10  C   UNK N   1      35.584  11.320  19.273  0.00  0.00     0.103 A 
HETATM   11  C   UNK N   1      35.303  12.689  19.259  0.00  0.00     0.039 A 
HETATM   12  C   UNK N   1      35.111  13.351  18.052  0.00  0.00     0.039 A 
BRANCH  10  13
HETATM   13  N   UNK N   1      35.832  10.659  20.508  0.00  0.00    -0.116 N 
HETATM   14  O   UNK N   1      37.054  10.604  20.995  0.00  0.00    -0.532 OA
HETATM   15  O   UNK N   1      34.930  10.187  21.130  0.00  0.00    -0.532 OA
ENDBRANCH  10  13
ENDBRANCH   6   7
ENDBRANCH   3   6
BRANCH   4  16
HETATM   16  O   UNK N   1      37.834  12.485  14.315  0.00  0.00    -0.388 OA
HETATM   17  H   UNK N   1      38.798  12.435  14.416  0.00  0.00     0.210 HD
ENDBRANCH   4  16
BRANCH   1  18
HETATM   18  C   UNK N   1      34.550  13.674  10.933  0.00  0.00     0.198 C 
BRANCH  18  19
HETATM   19  O   UNK N   1      33.840  14.812  11.327  0.00  0.00    -0.398 OA
HETATM   20  H   UNK N   1      34.234  15.604  11.725  0.00  0.00     0.209 HD
ENDBRANCH  18  19
ENDBRANCH   1  18
BRANCH   5  21
HETATM   21  O   UNK N   1      37.146  14.245  11.670  0.00  0.00    -0.390 OA
HETATM   22  H   UNK N   1      37.509  14.520  10.813  0.00  0.00     0.210 HD
ENDBRANCH   5  21
TORSDOF 7
ENDMDL
MODEL 6
REMARK VINA RESULT:      -5.8      5.956     10.105
REMARK  7 active torsions:
REMARK  status: ('A' for Active; 'I' for Inactive)
REMARK    1  A    between atoms: O_1  and  C_2 
REMARK    2  A    between atoms: C_3  and  C_2 
REMARK    3  A    between atoms: C_5  and  O_10 
REMARK    4  A    between atoms: C_6  and  O_7 
REMARK    5  A    between atoms: C_8  and  O_9 
REMARK    6  A    between atoms: O_10  and  C_11 
REMARK    7  A    between atoms: C_14  and  N_15 
ROOT
HETATM    1  C   UNK N   1      27.208  19.127   5.814  0.00  0.00     0.179 C 
HETATM    2  O   UNK N   1      28.333  18.524   6.427  0.00  0.00    -0.348 OA
HETATM    3  C   UNK N   1      28.464  17.324   5.694  0.00  0.00     0.298 C 
HETATM    4  C   UNK N   1      28.376  17.790   4.246  0.00  0.00     0.205 C 
HETATM    5  C   UNK N   1      27.335  18.887   4.301  0.00  0.00     0.182 C 
ENDROOT
BRANCH   3   6
HETATM    6  O   UNK N   1      29.607  16.617   6.086  0.00  0.00    -0.318 OA
BRANCH   6   7
HETATM    7  C   UNK N   1      30.784  17.060   6.622  0.00  0.00     0.072 A 
HETATM    8  C   UNK N   1      30.834  17.354   7.991  0.00  0.00     0.039 A 
HETATM    9  C   UNK N   1      32.043  17.728   8.594  0.00  0.00     0.039 A 
HETATM   10  C   UNK N   1      33.217  17.822   7.830  0.00  0.00     0.103 A 
HETATM   11  C   UNK N   1      33.159  17.561   6.458  0.00  0.00     0.039 A 
HETATM   12  C   UNK N   1      31.959  17.182   5.869  0.00  0.00     0.039 A 
BRANCH  10  13
HETATM   13  N   UNK N   1      34.459  18.158   8.436  0.00  0.00    -0.116 N 
HETATM   14  O   UNK N   1      34.888  17.485   9.483  0.00  0.00    -0.532 OA
HETATM   15  O   UNK N   1      35.140  19.024   7.977  0.00  0.00    -0.532 OA
ENDBRANCH  10  13
ENDBRANCH   6   7
ENDBRANCH   3   6
BRANCH   4  16
HETATM   16  O   UNK N   1      28.021  16.774   3.353  0.00  0.00    -0.388 OA
HETATM   17  H   UNK N   1      27.492  15.966   3.260  0.00  0.00     0.210 HD
ENDBRANCH   4  16
BRANCH   1  18
HETATM   18  C   UNK N   1      27.040  20.593   6.197  0.00  0.00     0.198 C 
BRANCH  18  19
HETATM   19  O   UNK N   1      26.327  20.694   7.396  0.00  0.00    -0.398 OA
HETATM   20  H   UNK N   1      25.574  20.136   7.643  0.00  0.00     0.209 HD
ENDBRANCH  18  19
ENDBRANCH   1  18
BRANCH   5  21
HETATM   21  O   UNK N   1      27.819  20.008   3.616  0.00  0.00    -0.390 OA
HETATM   22  H   UNK N   1      28.580  20.282   3.080  0.00  0.00     0.210 HD
ENDBRANCH   5  21
TORSDOF 7
ENDMDL
MODEL 7
REMARK VINA RESULT:      -5.7     11.520     15.628
REMARK  7 active torsions:
REMARK  status: ('A' for Active; 'I' for Inactive)
REMARK    1  A    between atoms: O_1  and  C_2 
REMARK    2  A    between atoms: C_3  and  C_2 
REMARK    3  A    between atoms: C_5  and  O_10 
REMARK    4  A    between atoms: C_6  and  O_7 
REMARK    5  A    between atoms: C_8  and  O_9 
REMARK    6  A    between atoms: O_10  and  C_11 
REMARK    7  A    between atoms: C_14  and  N_15 
ROOT
HETATM    1  C   UNK N   1      21.267  20.919   2.343  0.00  0.00     0.179 C 
HETATM    2  O   UNK N   1      22.632  20.813   1.980  0.00  0.00    -0.348 OA
HETATM    3  C   UNK N   1      23.202  20.230   3.133  0.00  0.00     0.298 C 
HETATM    4  C   UNK N   1      22.264  19.068   3.435  0.00  0.00     0.205 C 
HETATM    5  C   UNK N   1      20.900  19.632   3.100  0.00  0.00     0.182 C 
ENDROOT
BRANCH   3   6
HETATM    6  O   UNK N   1      24.557  19.942   2.935  0.00  0.00    -0.318 OA
BRANCH   6   7
HETATM    7  C   UNK N   1      25.531  19.597   3.830  0.00  0.00     0.072 A 
HETATM    8  C   UNK N   1      26.105  20.600   4.623  0.00  0.00     0.039 A 
HETATM    9  C   UNK N   1      27.044  20.274   5.612  0.00  0.00     0.039 A 
HETATM   10  C   UNK N   1      27.428  18.938   5.813  0.00  0.00     0.103 A 
HETATM   11  C   UNK N   1      26.880  17.942   4.999  0.00  0.00     0.039 A 
HETATM   12  C   UNK N   1      25.942  18.272   4.026  0.00  0.00     0.039 A 
BRANCH  10  13
HETATM   13  N   UNK N   1      28.346  18.588   6.841  0.00  0.00    -0.116 N 
HETATM   14  O   UNK N   1      29.308  17.721   6.602  0.00  0.00    -0.532 OA
HETATM   15  O   UNK N   1      28.277  19.106   7.913  0.00  0.00    -0.532 OA
ENDBRANCH  10  13
ENDBRANCH   6   7
ENDBRANCH   3   6
BRANCH   4  16
HETATM   16  O   UNK N   1      22.335  18.621   4.758  0.00  0.00    -0.388 OA
HETATM   17  H   UNK N   1      21.860  18.119   5.438  0.00  0.00     0.210 HD
ENDBRANCH   4  16
BRANCH   1  18
HETATM   18  C   UNK N   1      20.361  21.219   1.154  0.00  0.00     0.198 C 
BRANCH  18  19
HETATM   19  O   UNK N   1      20.770  20.475   0.043  0.00  0.00    -0.398 OA
HETATM   20  H   UNK N   1      20.487  19.568  -0.154  0.00  0.00     0.209 HD
ENDBRANCH  18  19
ENDBRANCH   1  18
BRANCH   5  21
HETATM   21  O   UNK N   1      20.212  18.713   2.298  0.00  0.00    -0.390 OA
HETATM   22  H   UNK N   1      20.368  17.892   1.805  0.00  0.00     0.210 HD
ENDBRANCH   5  21
TORSDOF 7
ENDMDL
MODEL 8
REMARK VINA RESULT:      -5.7      3.710      7.748
REMARK  7 active torsions:
REMARK  status: ('A' for Active; 'I' for Inactive)
REMARK    1  A    between atoms: O_1  and  C_2 
REMARK    2  A    between atoms: C_3  and  C_2 
REMARK    3  A    between atoms: C_5  and  O_10 
REMARK    4  A    between atoms: C_6  and  O_7 
REMARK    5  A    between atoms: C_8  and  O_9 
REMARK    6  A    between atoms: O_10  and  C_11 
REMARK    7  A    between atoms: C_14  and  N_15 
ROOT
HETATM    1  C   UNK N   1      35.127  14.986  11.729  0.00  0.00     0.179 C 
HETATM    2  O   UNK N   1      35.947  14.512  12.782  0.00  0.00    -0.348 OA
HETATM    3  C   UNK N   1      35.351  13.269  13.088  0.00  0.00     0.298 C 
HETATM    4  C   UNK N   1      35.185  12.617  11.721  0.00  0.00     0.205 C 
HETATM    5  C   UNK N   1      34.806  13.781  10.830  0.00  0.00     0.182 C 
ENDROOT
BRANCH   3   6
HETATM    6  O   UNK N   1      36.091  12.579  14.056  0.00  0.00    -0.318 OA
BRANCH   6   7
HETATM    7  C   UNK N   1      35.910  12.483  15.407  0.00  0.00     0.072 A 
HETATM    8  C   UNK N   1      35.536  13.628  16.123  0.00  0.00     0.039 A 
HETATM    9  C   UNK N   1      35.258  13.550  17.495  0.00  0.00     0.039 A 
HETATM   10  C   UNK N   1      35.362  12.324  18.171  0.00  0.00     0.103 A 
HETATM   11  C   UNK N   1      35.768  11.189  17.463  0.00  0.00     0.039 A 
HETATM   12  C   UNK N   1      36.033  11.272  16.101  0.00  0.00     0.039 A 
BRANCH  10  13
HETATM   13  N   UNK N   1      35.041  12.221  19.553  0.00  0.00    -0.116 N 
HETATM   14  O   UNK N   1      34.754  13.303  20.247  0.00  0.00    -0.532 OA
HETATM   15  O   UNK N   1      34.990  11.153  20.082  0.00  0.00    -0.532 OA
ENDBRANCH  10  13
ENDBRANCH   6   7
ENDBRANCH   3   6
BRANCH   4  16
HETATM   16  O   UNK N   1      34.221  11.604  11.698  0.00  0.00    -0.388 OA
HETATM   17  H   UNK N   1      33.728  11.010  11.111  0.00  0.00     0.210 HD
ENDBRANCH   4  16
BRANCH   1  18
HETATM   18  C   UNK N   1      35.741  16.168  10.987  0.00  0.00     0.198 C 
BRANCH  18  19
HETATM   19  O   UNK N   1      37.121  15.985  10.859  0.00  0.00    -0.398 OA
HETATM   20  H   UNK N   1      37.604  15.188  11.127  0.00  0.00     0.209 HD
ENDBRANCH  18  19
ENDBRANCH   1  18
BRANCH   5  21
HETATM   21  O   UNK N   1      35.597  13.746   9.675  0.00  0.00    -0.390 OA
HETATM   22  H   UNK N   1      35.505  13.776   8.709  0.00  0.00     0.210 HD
ENDBRANCH   5  21
TORSDOF 7
ENDMDL
MODEL 9
REMARK VINA RESULT:      -5.7     15.069     16.580
REMARK  7 active torsions:
REMARK  status: ('A' for Active; 'I' for Inactive)
REMARK    1  A    between atoms: O_1  and  C_2 
REMARK    2  A    between atoms: C_3  and  C_2 
REMARK    3  A    between atoms: C_5  and  O_10 
REMARK    4  A    between atoms: C_6  and  O_7 
REMARK    5  A    between atoms: C_8  and  O_9 
REMARK    6  A    between atoms: O_10  and  C_11 
REMARK    7  A    between atoms: C_14  and  N_15 
ROOT
HETATM    1  C   UNK N   1      19.468  16.815   8.640  0.00  0.00     0.179 C 
HETATM    2  O   UNK N   1      19.274  16.879   7.238  0.00  0.00    -0.348 OA
HETATM    3  C   UNK N   1      20.524  16.444   6.744  0.00  0.00     0.298 C 
HETATM    4  C   UNK N   1      20.798  15.183   7.553  0.00  0.00     0.205 C 
HETATM    5  C   UNK N   1      20.268  15.534   8.926  0.00  0.00     0.182 C 
ENDROOT
BRANCH   3   6
HETATM    6  O   UNK N   1      20.504  16.335   5.349  0.00  0.00    -0.318 OA
BRANCH   6   7
HETATM    7  C   UNK N   1      20.692  17.284   4.383  0.00  0.00     0.072 A 
HETATM    8  C   UNK N   1      20.261  17.014   3.077  0.00  0.00     0.039 A 
HETATM    9  C   UNK N   1      20.358  17.994   2.079  0.00  0.00     0.039 A 
HETATM   10  C   UNK N   1      20.899  19.256   2.375  0.00  0.00     0.103 A 
HETATM   11  C   UNK N   1      21.360  19.513   3.669  0.00  0.00     0.039 A 
HETATM   12  C   UNK N   1      21.252  18.539   4.655  0.00  0.00     0.039 A 
BRANCH  10  13
HETATM   13  N   UNK N   1      20.964  20.274   1.383  0.00  0.00    -0.116 N 
HETATM   14  O   UNK N   1      20.802  19.971   0.112  0.00  0.00    -0.532 OA
HETATM   15  O   UNK N   1      21.125  21.413   1.699  0.00  0.00    -0.532 OA
ENDBRANCH  10  13
ENDBRANCH   6   7
ENDBRANCH   3   6
BRANCH   4  16
HETATM   16  O   UNK N   1      22.148  14.824   7.588  0.00  0.00    -0.388 OA
HETATM   17  H   UNK N   1      22.754  14.068   7.646  0.00  0.00     0.210 HD
ENDBRANCH   4  16
BRANCH   1  18
HETATM   18  C   UNK N   1      18.164  16.921   9.423  0.00  0.00     0.198 C 
BRANCH  18  19
HETATM   19  O   UNK N   1      17.850  18.265   9.644  0.00  0.00    -0.398 OA
HETATM   20  H   UNK N   1      17.153  18.757   9.181  0.00  0.00     0.209 HD
ENDBRANCH  18  19
ENDBRANCH   1  18
BRANCH   5  21
HETATM   21  O   UNK N   1      19.460  14.486   9.384  0.00  0.00    -0.390 OA
HETATM   22  H   UNK N   1      18.583  14.101   9.232  0.00  0.00     0.210 HD
ENDBRANCH   5  21
TORSDOF 7
ENDMDL
