MODEL 1
REMARK VINA RESULT:      -7.2      0.000      0.000
REMARK  5 active torsions:
REMARK  status: ('A' for Active; 'I' for Inactive)
REMARK    1  A    between atoms: C_2  and  O_21 
REMARK    2  A    between atoms: C_6  and  O_20 
REMARK    3  A    between atoms: C_8  and  O_19 
REMARK    4  A    between atoms: C_9  and  C_10 
REMARK    5  A    between atoms: C_13  and  O_18 
ROOT
HETATM    1  C   UNK N   1      35.762  14.129  10.350  0.00  0.00     0.074 A 
HETATM    2  C   UNK N   1      35.185  12.956  10.847  0.00  0.00     0.085 A 
HETATM    3  C   UNK N   1      35.077  12.758  12.245  0.00  0.00     0.084 A 
HETATM    4  C   UNK N   1      35.565  13.759  13.117  0.00  0.00     0.096 A 
HETATM    5  C   UNK N   1      36.134  14.924  12.601  0.00  0.00     0.075 A 
HETATM    6  C   UNK N   1      36.231  15.111  11.224  0.00  0.00     0.071 A 
HETATM    7  C   UNK N   1      34.511  11.604  12.819  0.00  0.00     0.223 A 
HETATM    8  C   UNK N   1      34.475  11.472  14.212  0.00  0.00     0.152 A 
HETATM    9  C   UNK N   1      35.011  12.507  15.016  0.00  0.00     0.123 A 
HETATM   10  O   UNK N   1      35.514  13.593  14.433  0.00  0.00    -0.306 OA
HETATM   11  O   UNK N   1      34.067  10.708  12.119  0.00  0.00    -0.284 OA
ENDROOT
BRANCH   9  12
HETATM   12  C   UNK N   1      35.099  12.419  16.498  0.00  0.00     0.001 A 
HETATM   13  C   UNK N   1      34.944  13.592  17.255  0.00  0.00     0.017 A 
HETATM   14  C   UNK N   1      35.108  13.573  18.642  0.00  0.00     0.037 A 
HETATM   15  C   UNK N   1      35.434  12.381  19.289  0.00  0.00     0.065 A 
HETATM   16  C   UNK N   1      35.578  11.203  18.552  0.00  0.00     0.037 A 
HETATM   17  C   UNK N   1      35.415  11.222  17.164  0.00  0.00     0.017 A 
BRANCH  15  18
HETATM   18  O   UNK N   1      35.614  12.367  20.620  0.00  0.00    -0.361 OA
HETATM   19  H   UNK N   1      35.964  11.606  21.038  0.00  0.00     0.217 HD
ENDBRANCH  15  18
ENDBRANCH   9  12
BRANCH   8  20
HETATM   20  O   UNK N   1      33.952  10.359  14.759  0.00  0.00    -0.355 OA
HETATM   21  H   UNK N   1      33.150  10.406  15.242  0.00  0.00     0.218 HD
ENDBRANCH   8  20
BRANCH   2  22
HETATM   22  O   UNK N   1      34.751  12.028   9.975  0.00  0.00    -0.360 OA
HETATM   23  H   UNK N   1      33.889  11.670  10.052  0.00  0.00     0.217 HD
ENDBRANCH   2  22
BRANCH   6  24
HETATM   24  O   UNK N   1      36.784  16.233  10.736  0.00  0.00    -0.361 OA
HETATM   25  H   UNK N   1      37.352  16.747  11.275  0.00  0.00     0.217 HD
ENDBRANCH   6  24
TORSDOF 5
ENDMDL
MODEL 2
REMARK VINA RESULT:      -7.2     10.672     14.051
REMARK  5 active torsions:
REMARK  status: ('A' for Active; 'I' for Inactive)
REMARK    1  A    between atoms: C_2  and  O_21 
REMARK    2  A    between atoms: C_6  and  O_20 
REMARK    3  A    between atoms: C_8  and  O_19 
REMARK    4  A    between atoms: C_9  and  C_10 
REMARK    5  A    between atoms: C_13  and  O_18 
ROOT
HETATM    1  C   UNK N   1      30.654  17.292   8.827  0.00  0.00     0.074 A 
HETATM    2  C   UNK N   1      30.647  16.912   7.481  0.00  0.00     0.085 A 
HETATM    3  C   UNK N   1      29.671  17.441   6.602  0.00  0.00     0.084 A 
HETATM    4  C   UNK N   1      28.711  18.347   7.111  0.00  0.00     0.096 A 
HETATM    5  C   UNK N   1      28.738  18.716   8.457  0.00  0.00     0.075 A 
HETATM    6  C   UNK N   1      29.706  18.193   9.312  0.00  0.00     0.071 A 
HETATM    7  C   UNK N   1      29.599  17.104   5.238  0.00  0.00     0.223 A 
HETATM    8  C   UNK N   1      28.579  17.646   4.445  0.00  0.00     0.152 A 
HETATM    9  C   UNK N   1      27.639  18.524   5.037  0.00  0.00     0.123 A 
HETATM   10  O   UNK N   1      27.759  18.835   6.327  0.00  0.00    -0.306 OA
HETATM   11  O   UNK N   1      30.403  16.333   4.738  0.00  0.00    -0.284 OA
ENDROOT
BRANCH   9  12
HETATM   12  C   UNK N   1      26.471  19.077   4.301  0.00  0.00     0.001 A 
HETATM   13  C   UNK N   1      26.673  20.165   3.436  0.00  0.00     0.017 A 
HETATM   14  C   UNK N   1      25.593  20.774   2.793  0.00  0.00     0.037 A 
HETATM   15  C   UNK N   1      24.296  20.305   3.012  0.00  0.00     0.065 A 
HETATM   16  C   UNK N   1      24.082  19.216   3.859  0.00  0.00     0.037 A 
HETATM   17  C   UNK N   1      25.163  18.607   4.503  0.00  0.00     0.017 A 
BRANCH  15  18
HETATM   18  O   UNK N   1      23.256  20.906   2.412  0.00  0.00    -0.361 OA
HETATM   19  H   UNK N   1      22.385  20.755   2.721  0.00  0.00     0.217 HD
ENDBRANCH  15  18
ENDBRANCH   9  12
BRANCH   8  20
HETATM   20  O   UNK N   1      28.500  17.307   3.145  0.00  0.00    -0.355 OA
HETATM   21  H   UNK N   1      28.098  17.890   2.532  0.00  0.00     0.218 HD
ENDBRANCH   8  20
BRANCH   2  22
HETATM   22  O   UNK N   1      31.572  16.035   7.051  0.00  0.00    -0.360 OA
HETATM   23  H   UNK N   1      31.393  15.477   6.320  0.00  0.00     0.217 HD
ENDBRANCH   2  22
BRANCH   6  24
HETATM   24  O   UNK N   1      29.721  18.551  10.606  0.00  0.00    -0.361 OA
HETATM   25  H   UNK N   1      28.934  18.505  11.114  0.00  0.00     0.217 HD
ENDBRANCH   6  24
TORSDOF 5
ENDMDL
MODEL 3
REMARK VINA RESULT:      -7.2     13.525     15.880
REMARK  5 active torsions:
REMARK  status: ('A' for Active; 'I' for Inactive)
REMARK    1  A    between atoms: C_2  and  O_21 
REMARK    2  A    between atoms: C_6  and  O_20 
REMARK    3  A    between atoms: C_8  and  O_19 
REMARK    4  A    between atoms: C_9  and  C_10 
REMARK    5  A    between atoms: C_13  and  O_18 
ROOT
HETATM    1  C   UNK N   1      22.994  11.831  11.637  0.00  0.00     0.074 A 
HETATM    2  C   UNK N   1      21.769  12.345  11.198  0.00  0.00     0.085 A 
HETATM    3  C   UNK N   1      21.725  13.204  10.073  0.00  0.00     0.084 A 
HETATM    4  C   UNK N   1      22.933  13.531   9.414  0.00  0.00     0.096 A 
HETATM    5  C   UNK N   1      24.145  13.004   9.865  0.00  0.00     0.075 A 
HETATM    6  C   UNK N   1      24.176  12.156  10.971  0.00  0.00     0.071 A 
HETATM    7  C   UNK N   1      20.533  13.762   9.576  0.00  0.00     0.223 A 
HETATM    8  C   UNK N   1      20.581  14.631   8.478  0.00  0.00     0.152 A 
HETATM    9  C   UNK N   1      21.835  14.929   7.892  0.00  0.00     0.123 A 
HETATM   10  O   UNK N   1      22.936  14.361   8.379  0.00  0.00    -0.306 OA
HETATM   11  O   UNK N   1      19.457  13.513  10.098  0.00  0.00    -0.284 OA
ENDROOT
BRANCH   9  12
HETATM   12  C   UNK N   1      21.998  15.908   6.783  0.00  0.00     0.001 A 
HETATM   13  C   UNK N   1      22.895  15.607   5.745  0.00  0.00     0.017 A 
HETATM   14  C   UNK N   1      23.148  16.534   4.731  0.00  0.00     0.037 A 
HETATM   15  C   UNK N   1      22.510  17.775   4.745  0.00  0.00     0.065 A 
HETATM   16  C   UNK N   1      21.605  18.083   5.764  0.00  0.00     0.037 A 
HETATM   17  C   UNK N   1      21.353  17.156   6.780  0.00  0.00     0.017 A 
BRANCH  15  18
HETATM   18  O   UNK N   1      22.770  18.674   3.783  0.00  0.00    -0.361 OA
HETATM   19  H   UNK N   1      22.097  18.929   3.184  0.00  0.00     0.217 HD
ENDBRANCH  15  18
ENDBRANCH   9  12
BRANCH   8  20
HETATM   20  O   UNK N   1      19.442  15.178   8.016  0.00  0.00    -0.355 OA
HETATM   21  H   UNK N   1      19.462  15.735   7.263  0.00  0.00     0.218 HD
ENDBRANCH   8  20
BRANCH   2  22
HETATM   22  O   UNK N   1      20.651  12.017  11.871  0.00  0.00    -0.360 OA
HETATM   23  H   UNK N   1      20.339  11.134  11.869  0.00  0.00     0.217 HD
ENDBRANCH   2  22
BRANCH   6  24
HETATM   24  O   UNK N   1      25.346  11.658  11.400  0.00  0.00    -0.361 OA
HETATM   25  H   UNK N   1      25.819  12.093  12.082  0.00  0.00     0.217 HD
ENDBRANCH   6  24
TORSDOF 5
ENDMDL
MODEL 4
REMARK VINA RESULT:      -7.1     10.169     13.645
REMARK  5 active torsions:
REMARK  status: ('A' for Active; 'I' for Inactive)
REMARK    1  A    between atoms: C_2  and  O_21 
REMARK    2  A    between atoms: C_6  and  O_20 
REMARK    3  A    between atoms: C_8  and  O_19 
REMARK    4  A    between atoms: C_9  and  C_10 
REMARK    5  A    between atoms: C_13  and  O_18 
ROOT
HETATM    1  C   UNK N   1      31.649  15.875   7.564  0.00  0.00     0.074 A 
HETATM    2  C   UNK N   1      30.831  16.851   8.142  0.00  0.00     0.085 A 
HETATM    3  C   UNK N   1      29.769  17.415   7.394  0.00  0.00     0.084 A 
HETATM    4  C   UNK N   1      29.561  16.980   6.064  0.00  0.00     0.096 A 
HETATM    5  C   UNK N   1      30.387  16.002   5.508  0.00  0.00     0.075 A 
HETATM    6  C   UNK N   1      31.426  15.450   6.253  0.00  0.00     0.071 A 
HETATM    7  C   UNK N   1      28.906  18.403   7.906  0.00  0.00     0.223 A 
HETATM    8  C   UNK N   1      27.902  18.935   7.088  0.00  0.00     0.152 A 
HETATM    9  C   UNK N   1      27.777  18.465   5.757  0.00  0.00     0.123 A 
HETATM   10  O   UNK N   1      28.599  17.513   5.321  0.00  0.00    -0.306 OA
HETATM   11  O   UNK N   1      29.031  18.815   9.049  0.00  0.00    -0.284 OA
ENDROOT
BRANCH   9  12
HETATM   12  C   UNK N   1      26.803  19.031   4.786  0.00  0.00     0.001 A 
HETATM   13  C   UNK N   1      27.230  20.049   3.918  0.00  0.00     0.017 A 
HETATM   14  C   UNK N   1      26.328  20.671   3.051  0.00  0.00     0.037 A 
HETATM   15  C   UNK N   1      24.987  20.286   3.047  0.00  0.00     0.065 A 
HETATM   16  C   UNK N   1      24.550  19.267   3.895  0.00  0.00     0.037 A 
HETATM   17  C   UNK N   1      25.452  18.644   4.763  0.00  0.00     0.017 A 
BRANCH  15  18
HETATM   18  O   UNK N   1      24.115  20.901   2.231  0.00  0.00    -0.361 OA
HETATM   19  H   UNK N   1      24.395  21.209   1.392  0.00  0.00     0.217 HD
ENDBRANCH  15  18
ENDBRANCH   9  12
BRANCH   8  20
HETATM   20  O   UNK N   1      27.090  19.892   7.573  0.00  0.00    -0.355 OA
HETATM   21  H   UNK N   1      26.204  19.950   7.275  0.00  0.00     0.218 HD
ENDBRANCH   8  20
BRANCH   2  22
HETATM   22  O   UNK N   1      31.081  17.241   9.404  0.00  0.00    -0.360 OA
HETATM   23  H   UNK N   1      31.776  17.843   9.586  0.00  0.00     0.217 HD
ENDBRANCH   2  22
BRANCH   6  24
HETATM   24  O   UNK N   1      32.219  14.513   5.708  0.00  0.00    -0.361 OA
HETATM   25  H   UNK N   1      31.855  13.694   5.433  0.00  0.00     0.217 HD
ENDBRANCH   6  24
TORSDOF 5
ENDMDL
MODEL 5
REMARK VINA RESULT:      -7.0      5.279      9.921
REMARK  5 active torsions:
REMARK  status: ('A' for Active; 'I' for Inactive)
REMARK    1  A    between atoms: C_2  and  O_21 
REMARK    2  A    between atoms: C_6  and  O_20 
REMARK    3  A    between atoms: C_8  and  O_19 
REMARK    4  A    between atoms: C_9  and  C_10 
REMARK    5  A    between atoms: C_13  and  O_18 
ROOT
HETATM    1  C   UNK N   1      36.157  13.870  10.578  0.00  0.00     0.074 A 
HETATM    2  C   UNK N   1      36.054  15.252  10.391  0.00  0.00     0.085 A 
HETATM    3  C   UNK N   1      35.087  15.774   9.497  0.00  0.00     0.084 A 
HETATM    4  C   UNK N   1      34.243  14.877   8.802  0.00  0.00     0.096 A 
HETATM    5  C   UNK N   1      34.360  13.501   9.006  0.00  0.00     0.075 A 
HETATM    6  C   UNK N   1      35.311  12.998   9.891  0.00  0.00     0.071 A 
HETATM    7  C   UNK N   1      34.926  17.151   9.255  0.00  0.00     0.223 A 
HETATM    8  C   UNK N   1      33.969  17.582   8.328  0.00  0.00     0.152 A 
HETATM    9  C   UNK N   1      33.182  16.619   7.652  0.00  0.00     0.123 A 
HETATM   10  O   UNK N   1      33.350  15.327   7.929  0.00  0.00    -0.306 OA
HETATM   11  O   UNK N   1      35.621  17.975   9.829  0.00  0.00    -0.284 OA
ENDROOT
BRANCH   9  12
HETATM   12  C   UNK N   1      32.205  16.972   6.588  0.00  0.00     0.001 A 
HETATM   13  C   UNK N   1      30.834  16.939   6.892  0.00  0.00     0.017 A 
HETATM   14  C   UNK N   1      29.878  17.176   5.902  0.00  0.00     0.037 A 
HETATM   15  C   UNK N   1      30.282  17.445   4.593  0.00  0.00     0.065 A 
HETATM   16  C   UNK N   1      31.642  17.494   4.278  0.00  0.00     0.037 A 
HETATM   17  C   UNK N   1      32.599  17.256   5.269  0.00  0.00     0.017 A 
BRANCH  15  18
HETATM   18  O   UNK N   1      29.362  17.649   3.636  0.00  0.00    -0.361 OA
HETATM   19  H   UNK N   1      29.631  17.792   2.750  0.00  0.00     0.217 HD
ENDBRANCH  15  18
ENDBRANCH   9  12
BRANCH   8  20
HETATM   20  O   UNK N   1      33.830  18.898   8.084  0.00  0.00    -0.355 OA
HETATM   21  H   UNK N   1      33.549  19.475   8.767  0.00  0.00     0.218 HD
ENDBRANCH   8  20
BRANCH   2  22
HETATM   22  O   UNK N   1      36.892  16.061  11.064  0.00  0.00    -0.360 OA
HETATM   23  H   UNK N   1      36.670  16.959  11.210  0.00  0.00     0.217 HD
ENDBRANCH   2  22
BRANCH   6  24
HETATM   24  O   UNK N   1      35.419  11.673  10.078  0.00  0.00    -0.361 OA
HETATM   25  H   UNK N   1      36.248  11.298  10.304  0.00  0.00     0.217 HD
ENDBRANCH   6  24
TORSDOF 5
ENDMDL
MODEL 6
REMARK VINA RESULT:      -6.9     19.918     23.585
REMARK  5 active torsions:
REMARK  status: ('A' for Active; 'I' for Inactive)
REMARK    1  A    between atoms: C_2  and  O_21 
REMARK    2  A    between atoms: C_6  and  O_20 
REMARK    3  A    between atoms: C_8  and  O_19 
REMARK    4  A    between atoms: C_9  and  C_10 
REMARK    5  A    between atoms: C_13  and  O_18 
ROOT
HETATM    1  C   UNK N   1      31.280  20.821  -4.064  0.00  0.00     0.074 A 
HETATM    2  C   UNK N   1      30.366  21.151  -5.070  0.00  0.00     0.085 A 
HETATM    3  C   UNK N   1      29.681  22.390  -5.023  0.00  0.00     0.084 A 
HETATM    4  C   UNK N   1      29.934  23.272  -3.947  0.00  0.00     0.096 A 
HETATM    5  C   UNK N   1      30.853  22.924  -2.955  0.00  0.00     0.075 A 
HETATM    6  C   UNK N   1      31.525  21.705  -3.013  0.00  0.00     0.071 A 
HETATM    7  C   UNK N   1      28.746  22.790  -5.996  0.00  0.00     0.223 A 
HETATM    8  C   UNK N   1      28.086  24.017  -5.857  0.00  0.00     0.152 A 
HETATM    9  C   UNK N   1      28.375  24.830  -4.735  0.00  0.00     0.123 A 
HETATM   10  O   UNK N   1      29.284  24.425  -3.850  0.00  0.00    -0.306 OA
HETATM   11  O   UNK N   1      28.490  22.075  -6.953  0.00  0.00    -0.284 OA
ENDROOT
BRANCH   9  12
HETATM   12  C   UNK N   1      27.662  26.105  -4.453  0.00  0.00     0.001 A 
HETATM   13  C   UNK N   1      28.182  27.300  -4.978  0.00  0.00     0.017 A 
HETATM   14  C   UNK N   1      27.598  28.529  -4.665  0.00  0.00     0.037 A 
HETATM   15  C   UNK N   1      26.489  28.580  -3.820  0.00  0.00     0.065 A 
HETATM   16  C   UNK N   1      25.952  27.400  -3.301  0.00  0.00     0.037 A 
HETATM   17  C   UNK N   1      26.538  26.169  -3.613  0.00  0.00     0.017 A 
BRANCH  15  18
HETATM   18  O   UNK N   1      25.942  29.764  -3.501  0.00  0.00    -0.361 OA
HETATM   19  H   UNK N   1      25.400  29.841  -2.741  0.00  0.00     0.217 HD
ENDBRANCH  15  18
ENDBRANCH   9  12
BRANCH   8  20
HETATM   20  O   UNK N   1      27.179  24.389  -6.778  0.00  0.00    -0.355 OA
HETATM   21  H   UNK N   1      26.442  24.910  -6.527  0.00  0.00     0.218 HD
ENDBRANCH   8  20
BRANCH   2  22
HETATM   22  O   UNK N   1      30.150  20.269  -6.063  0.00  0.00    -0.360 OA
HETATM   23  H   UNK N   1      30.824  19.674  -6.324  0.00  0.00     0.217 HD
ENDBRANCH   2  22
BRANCH   6  24
HETATM   24  O   UNK N   1      32.403  21.378  -2.052  0.00  0.00    -0.361 OA
HETATM   25  H   UNK N   1      32.842  22.051  -1.569  0.00  0.00     0.217 HD
ENDBRANCH   6  24
TORSDOF 5
ENDMDL
MODEL 7
REMARK VINA RESULT:      -6.6     15.717     18.449
REMARK  5 active torsions:
REMARK  status: ('A' for Active; 'I' for Inactive)
REMARK    1  A    between atoms: C_2  and  O_21 
REMARK    2  A    between atoms: C_6  and  O_20 
REMARK    3  A    between atoms: C_8  and  O_19 
REMARK    4  A    between atoms: C_9  and  C_10 
REMARK    5  A    between atoms: C_13  and  O_18 
ROOT
HETATM    1  C   UNK N   1      20.857  14.845   8.752  0.00  0.00     0.074 A 
HETATM    2  C   UNK N   1      21.922  14.886   7.846  0.00  0.00     0.085 A 
HETATM    3  C   UNK N   1      21.885  15.786   6.753  0.00  0.00     0.084 A 
HETATM    4  C   UNK N   1      20.759  16.628   6.597  0.00  0.00     0.096 A 
HETATM    5  C   UNK N   1      19.709  16.574   7.515  0.00  0.00     0.075 A 
HETATM    6  C   UNK N   1      19.757  15.688   8.590  0.00  0.00     0.071 A 
HETATM    7  C   UNK N   1      22.916  15.882   5.799  0.00  0.00     0.223 A 
HETATM    8  C   UNK N   1      22.785  16.775   4.728  0.00  0.00     0.152 A 
HETATM    9  C   UNK N   1      21.613  17.564   4.628  0.00  0.00     0.123 A 
HETATM   10  O   UNK N   1      20.673  17.458   5.566  0.00  0.00    -0.306 OA
HETATM   11  O   UNK N   1      23.916  15.187   5.883  0.00  0.00    -0.284 OA
ENDROOT
BRANCH   9  12
HETATM   12  C   UNK N   1      21.343  18.472   3.482  0.00  0.00     0.001 A 
HETATM   13  C   UNK N   1      20.577  17.993   2.407  0.00  0.00     0.017 A 
HETATM   14  C   UNK N   1      20.373  18.779   1.271  0.00  0.00     0.037 A 
HETATM   15  C   UNK N   1      20.937  20.053   1.193  0.00  0.00     0.065 A 
HETATM   16  C   UNK N   1      21.690  20.548   2.260  0.00  0.00     0.037 A 
HETATM   17  C   UNK N   1      21.895  19.761   3.397  0.00  0.00     0.017 A 
BRANCH  15  18
HETATM   18  O   UNK N   1      20.760  20.799   0.091  0.00  0.00    -0.361 OA
HETATM   19  H   UNK N   1      20.923  21.721   0.117  0.00  0.00     0.217 HD
ENDBRANCH  15  18
ENDBRANCH   9  12
BRANCH   8  20
HETATM   20  O   UNK N   1      23.763  16.852   3.807  0.00  0.00    -0.355 OA
HETATM   21  H   UNK N   1      24.647  16.652   4.044  0.00  0.00     0.218 HD
ENDBRANCH   8  20
BRANCH   2  22
HETATM   22  O   UNK N   1      22.961  14.052   8.030  0.00  0.00    -0.360 OA
HETATM   23  H   UNK N   1      22.998  13.233   7.577  0.00  0.00     0.217 HD
ENDBRANCH   2  22
BRANCH   6  24
HETATM   24  O   UNK N   1      18.740  15.640   9.465  0.00  0.00    -0.361 OA
HETATM   25  H   UNK N   1      18.506  16.405   9.953  0.00  0.00     0.217 HD
ENDBRANCH   6  24
TORSDOF 5
ENDMDL
MODEL 8
REMARK VINA RESULT:      -6.4      3.363      6.055
REMARK  5 active torsions:
REMARK  status: ('A' for Active; 'I' for Inactive)
REMARK    1  A    between atoms: C_2  and  O_21 
REMARK    2  A    between atoms: C_6  and  O_20 
REMARK    3  A    between atoms: C_8  and  O_19 
REMARK    4  A    between atoms: C_9  and  C_10 
REMARK    5  A    between atoms: C_13  and  O_18 
ROOT
HETATM    1  C   UNK N   1      32.222  17.263   7.545  0.00  0.00     0.074 A 
HETATM    2  C   UNK N   1      33.340  17.568   8.328  0.00  0.00     0.085 A 
HETATM    3  C   UNK N   1      33.977  16.548   9.077  0.00  0.00     0.084 A 
HETATM    4  C   UNK N   1      33.459  15.233   9.021  0.00  0.00     0.096 A 
HETATM    5  C   UNK N   1      32.344  14.950   8.230  0.00  0.00     0.075 A 
HETATM    6  C   UNK N   1      31.728  15.959   7.493  0.00  0.00     0.071 A 
HETATM    7  C   UNK N   1      35.103  16.778   9.889  0.00  0.00     0.223 A 
HETATM    8  C   UNK N   1      35.652  15.721  10.625  0.00  0.00     0.152 A 
HETATM    9  C   UNK N   1      35.057  14.439  10.536  0.00  0.00     0.123 A 
HETATM   10  O   UNK N   1      34.007  14.260   9.737  0.00  0.00    -0.306 OA
HETATM   11  O   UNK N   1      35.600  17.891   9.973  0.00  0.00    -0.284 OA
ENDROOT
BRANCH   9  12
HETATM   12  C   UNK N   1      35.511  13.277  11.347  0.00  0.00     0.001 A 
HETATM   13  C   UNK N   1      34.973  13.101  12.633  0.00  0.00     0.017 A 
HETATM   14  C   UNK N   1      35.435  12.077  13.463  0.00  0.00     0.037 A 
HETATM   15  C   UNK N   1      36.443  11.220  13.020  0.00  0.00     0.065 A 
HETATM   16  C   UNK N   1      36.977  11.374  11.739  0.00  0.00     0.037 A 
HETATM   17  C   UNK N   1      36.516  12.400  10.908  0.00  0.00     0.017 A 
BRANCH  15  18
HETATM   18  O   UNK N   1      36.902  10.250  13.828  0.00  0.00    -0.361 OA
HETATM   19  H   UNK N   1      36.380   9.491  13.994  0.00  0.00     0.217 HD
ENDBRANCH  15  18
ENDBRANCH   9  12
BRANCH   8  20
HETATM   20  O   UNK N   1      36.717  15.947  11.416  0.00  0.00    -0.355 OA
HETATM   21  H   UNK N   1      37.188  16.754  11.348  0.00  0.00     0.218 HD
ENDBRANCH   8  20
BRANCH   2  22
HETATM   22  O   UNK N   1      33.782  18.838   8.359  0.00  0.00    -0.360 OA
HETATM   23  H   UNK N   1      34.595  19.047   8.775  0.00  0.00     0.217 HD
ENDBRANCH   2  22
BRANCH   6  24
HETATM   24  O   UNK N   1      30.653  15.678   6.739  0.00  0.00    -0.361 OA
HETATM   25  H   UNK N   1      30.608  14.867   6.271  0.00  0.00     0.217 HD
ENDBRANCH   6  24
TORSDOF 5
ENDMDL
MODEL 9
REMARK VINA RESULT:      -6.4      7.410     10.236
REMARK  5 active torsions:
REMARK  status: ('A' for Active; 'I' for Inactive)
REMARK    1  A    between atoms: C_2  and  O_21 
REMARK    2  A    between atoms: C_6  and  O_20 
REMARK    3  A    between atoms: C_8  and  O_19 
REMARK    4  A    between atoms: C_9  and  C_10 
REMARK    5  A    between atoms: C_13  and  O_18 
ROOT
HETATM    1  C   UNK N   1      27.736  17.045   4.258  0.00  0.00     0.074 A 
HETATM    2  C   UNK N   1      27.772  17.560   5.557  0.00  0.00     0.085 A 
HETATM    3  C   UNK N   1      28.974  17.508   6.305  0.00  0.00     0.084 A 
HETATM    4  C   UNK N   1      30.121  16.926   5.717  0.00  0.00     0.096 A 
HETATM    5  C   UNK N   1      30.064  16.420   4.417  0.00  0.00     0.075 A 
HETATM    6  C   UNK N   1      28.878  16.480   3.688  0.00  0.00     0.071 A 
HETATM    7  C   UNK N   1      29.087  18.003   7.618  0.00  0.00     0.223 A 
HETATM    8  C   UNK N   1      30.303  17.881   8.300  0.00  0.00     0.152 A 
HETATM    9  C   UNK N   1      31.397  17.259   7.651  0.00  0.00     0.123 A 
HETATM   10  O   UNK N   1      31.254  16.826   6.399  0.00  0.00    -0.306 OA
HETATM   11  O   UNK N   1      28.133  18.523   8.177  0.00  0.00    -0.284 OA
ENDROOT
BRANCH   9  12
HETATM   12  C   UNK N   1      32.699  17.002   8.323  0.00  0.00     0.001 A 
HETATM   13  C   UNK N   1      32.864  15.807   9.042  0.00  0.00     0.017 A 
HETATM   14  C   UNK N   1      34.035  15.564   9.762  0.00  0.00     0.037 A 
HETATM   15  C   UNK N   1      35.056  16.516   9.776  0.00  0.00     0.065 A 
HETATM   16  C   UNK N   1      34.912  17.703   9.055  0.00  0.00     0.037 A 
HETATM   17  C   UNK N   1      33.739  17.947   8.335  0.00  0.00     0.017 A 
BRANCH  15  18
HETATM   18  O   UNK N   1      36.172  16.292  10.488  0.00  0.00    -0.361 OA
HETATM   19  H   UNK N   1      36.198  15.595  11.113  0.00  0.00     0.217 HD
ENDBRANCH  15  18
ENDBRANCH   9  12
BRANCH   8  20
HETATM   20  O   UNK N   1      30.403  18.337   9.562  0.00  0.00    -0.355 OA
HETATM   21  H   UNK N   1      30.471  17.733  10.275  0.00  0.00     0.218 HD
ENDBRANCH   8  20
BRANCH   2  22
HETATM   22  O   UNK N   1      26.649  18.088   6.076  0.00  0.00    -0.360 OA
HETATM   23  H   UNK N   1      26.690  18.850   6.620  0.00  0.00     0.217 HD
ENDBRANCH   2  22
BRANCH   6  24
HETATM   24  O   UNK N   1      28.832  15.988   2.440  0.00  0.00    -0.361 OA
HETATM   25  H   UNK N   1      28.800  16.571   1.707  0.00  0.00     0.217 HD
ENDBRANCH   6  24
TORSDOF 5
ENDMDL
