REMARK  5 active torsions:
REMARK  status: ('A' for Active; 'I' for Inactive)
REMARK    1  A    between atoms: C_2  and  O_21 
REMARK    2  A    between atoms: C_6  and  O_20 
REMARK    3  A    between atoms: C_8  and  O_19 
REMARK    4  A    between atoms: C_9  and  C_10 
REMARK    5  A    between atoms: C_13  and  O_18 
ROOT
HETATM    1  C   UNK N   1      -4.165  -0.990  -0.421  0.00  0.00     0.074 A 
HETATM    2  C   UNK N   1      -3.029  -1.805  -0.388  0.00  0.00     0.085 A 
HETATM    3  C   UNK N   1      -1.748  -1.225  -0.219  0.00  0.00     0.084 A 
HETATM    4  C   UNK N   1      -1.644   0.180  -0.092  0.00  0.00     0.096 A 
HETATM    5  C   UNK N   1      -2.791   0.975  -0.124  0.00  0.00     0.075 A 
HETATM    6  C   UNK N   1      -4.047   0.394  -0.286  0.00  0.00     0.071 A 
HETATM    7  C   UNK N   1      -0.560  -1.979  -0.179  0.00  0.00     0.223 A 
HETATM    8  C   UNK N   1       0.670  -1.324  -0.044  0.00  0.00     0.152 A 
HETATM    9  C   UNK N   1       0.691   0.089   0.049  0.00  0.00     0.123 A 
HETATM   10  O   UNK N   1      -0.458   0.762   0.031  0.00  0.00    -0.306 OA
HETATM   11  O   UNK N   1      -0.585  -3.196  -0.277  0.00  0.00    -0.284 OA
ENDROOT
BRANCH   9  12
HETATM   12  C   UNK N   1       1.950   0.879   0.104  0.00  0.00     0.001 A 
HETATM   13  C   UNK N   1       1.867   2.281   0.117  0.00  0.00     0.017 A 
HETATM   14  C   UNK N   1       3.023   3.064   0.078  0.00  0.00     0.037 A 
HETATM   15  C   UNK N   1       4.277   2.454   0.021  0.00  0.00     0.065 A 
HETATM   16  C   UNK N   1       4.376   1.061   0.021  0.00  0.00     0.037 A 
HETATM   17  C   UNK N   1       3.219   0.277   0.059  0.00  0.00     0.017 A 
BRANCH  15  18
HETATM   18  O   UNK N   1       5.387   3.207  -0.040  0.00  0.00    -0.361 OA
HETATM   19  H   UNK N   1       6.229   2.799  -0.082  0.00  0.00     0.217 HD
ENDBRANCH  15  18
ENDBRANCH   9  12
BRANCH   8  20
HETATM   20  O   UNK N   1       1.806  -2.045  -0.025  0.00  0.00    -0.355 OA
HETATM   21  H   UNK N   1       1.767  -2.981  -0.012  0.00  0.00     0.218 HD
ENDBRANCH   8  20
BRANCH   2  22
HETATM   22  O   UNK N   1      -3.181  -3.134  -0.530  0.00  0.00    -0.360 OA
HETATM   23  H   UNK N   1      -4.035  -3.506  -0.630  0.00  0.00     0.217 HD
ENDBRANCH   2  22
BRANCH   6  24
HETATM   24  O   UNK N   1      -5.144   1.167  -0.320  0.00  0.00    -0.361 OA
HETATM   25  H   UNK N   1      -5.059   2.100  -0.344  0.00  0.00     0.217 HD
ENDBRANCH   6  24
TORSDOF 5
