MODEL 1
REMARK VINA RESULT:      -8.0      0.000      0.000
REMARK  6 active torsions:
REMARK  status: ('A' for Active; 'I' for Inactive)
REMARK    1  A    between atoms: C_4  and  P_1 
REMARK    2  A    between atoms: P_1  and  O_6 
REMARK    3  A    between atoms: P_1  and  O_7 
REMARK    4  A    between atoms: C_4  and  C_5 
REMARK    5  A    between atoms: C_4  and  C_19 
REMARK    6  A    between atoms: C_5  and  C_8 
ROOT
HETATM    1  C   UNK N   1      26.543  22.402  -7.358  0.00  0.00     0.205 C 
ENDROOT
BRANCH   1   2
HETATM    2  P   UNK N   1      25.181  21.458  -8.278  0.00  0.00     0.252 P 
HETATM    3  O   UNK N   1      25.153  19.997  -7.752  0.00  0.00    -0.653 OA
BRANCH   2   4
HETATM    4  O   UNK N   1      23.564  22.011  -7.982  0.00  0.00    -0.328 OA
HETATM    5  H   UNK N   1      22.764  22.156  -7.453  0.00  0.00     0.220 HD
ENDBRANCH   2   4
BRANCH   2   6
HETATM    6  O   UNK N   1      25.334  21.220  -9.990  0.00  0.00    -0.328 OA
HETATM    7  H   UNK N   1      24.570  21.265 -10.586  0.00  0.00     0.220 HD
ENDBRANCH   2   6
ENDBRANCH   1   2
BRANCH   1   8
HETATM    8  C   UNK N   1      27.960  22.067  -7.851  0.00  0.00     0.179 C 
HETATM    9  O   UNK N   1      28.253  22.256  -9.023  0.00  0.00    -0.291 OA
BRANCH   8  10
HETATM   10  C   UNK N   1      29.049  21.720  -6.908  0.00  0.00     0.012 A 
HETATM   11  C   UNK N   1      29.255  22.533  -5.782  0.00  0.00     0.027 A 
HETATM   12  C   UNK N   1      30.206  22.179  -4.822  0.00  0.00    -0.025 A 
HETATM   13  C   UNK N   1      30.350  22.941  -3.660  0.00  0.00     0.012 A 
HETATM   14  C   UNK N   1      31.005  21.031  -5.014  0.00  0.00    -0.026 A 
HETATM   15  C   UNK N   1      31.290  22.567  -2.693  0.00  0.00     0.001 A 
HETATM   16  C   UNK N   1      32.099  21.442  -2.895  0.00  0.00     0.001 A 
HETATM   17  C   UNK N   1      31.956  20.674  -4.055  0.00  0.00     0.012 A 
HETATM   18  C   UNK N   1      30.822  20.240  -6.147  0.00  0.00     0.013 A 
HETATM   19  C   UNK N   1      29.827  20.571  -7.070  0.00  0.00     0.016 A 
ENDBRANCH   8  10
ENDBRANCH   1   8
BRANCH   1  20
HETATM   20  C   UNK N   1      26.294  23.923  -7.352  0.00  0.00    -0.024 A 
HETATM   21  C   UNK N   1      26.064  24.608  -8.560  0.00  0.00     0.009 A 
HETATM   22  C   UNK N   1      25.827  25.981  -8.584  0.00  0.00     0.002 A 
HETATM   23  C   UNK N   1      25.827  26.714  -7.400  0.00  0.00     0.012 A 
HETATM   24  C   UNK N   1      26.052  26.075  -6.182  0.00  0.00    -0.025 A 
HETATM   25  C   UNK N   1      26.275  24.674  -6.140  0.00  0.00    -0.018 A 
HETATM   26  C   UNK N   1      26.060  26.825  -5.003  0.00  0.00     0.012 A 
HETATM   27  C   UNK N   1      26.484  24.063  -4.890  0.00  0.00     0.013 A 
HETATM   28  C   UNK N   1      26.495  24.823  -3.719  0.00  0.00     0.001 A 
HETATM   29  C   UNK N   1      26.288  26.202  -3.776  0.00  0.00     0.001 A 
ENDBRANCH   1  20
TORSDOF 6
ENDMDL
MODEL 2
REMARK VINA RESULT:      -7.8      2.504      5.896
REMARK  6 active torsions:
REMARK  status: ('A' for Active; 'I' for Inactive)
REMARK    1  A    between atoms: C_4  and  P_1 
REMARK    2  A    between atoms: P_1  and  O_6 
REMARK    3  A    between atoms: P_1  and  O_7 
REMARK    4  A    between atoms: C_4  and  C_5 
REMARK    5  A    between atoms: C_4  and  C_19 
REMARK    6  A    between atoms: C_5  and  C_8 
ROOT
HETATM    1  C   UNK N   1      27.135  24.494  -7.651  0.00  0.00     0.205 C 
ENDROOT
BRANCH   1   2
HETATM    2  P   UNK N   1      26.150  23.039  -8.364  0.00  0.00     0.252 P 
HETATM    3  O   UNK N   1      26.538  22.867  -9.857  0.00  0.00    -0.653 OA
BRANCH   2   4
HETATM    4  O   UNK N   1      26.520  21.488  -7.682  0.00  0.00    -0.328 OA
HETATM    5  H   UNK N   1      27.091  20.738  -7.452  0.00  0.00     0.220 HD
ENDBRANCH   2   4
BRANCH   2   6
HETATM    6  O   UNK N   1      24.422  23.159  -8.454  0.00  0.00    -0.328 OA
HETATM    7  H   UNK N   1      23.931  23.873  -8.016  0.00  0.00     0.220 HD
ENDBRANCH   2   6
ENDBRANCH   1   2
BRANCH   1   8
HETATM    8  C   UNK N   1      26.573  25.868  -8.052  0.00  0.00     0.179 C 
HETATM    9  O   UNK N   1      25.644  25.934  -8.843  0.00  0.00    -0.291 OA
BRANCH   8  10
HETATM   10  C   UNK N   1      26.981  27.108  -7.352  0.00  0.00     0.012 A 
HETATM   11  C   UNK N   1      26.306  27.477  -6.177  0.00  0.00     0.027 A 
HETATM   12  C   UNK N   1      26.729  28.585  -5.439  0.00  0.00    -0.025 A 
HETATM   13  C   UNK N   1      26.112  28.900  -4.226  0.00  0.00     0.012 A 
HETATM   14  C   UNK N   1      27.804  29.371  -5.907  0.00  0.00    -0.026 A 
HETATM   15  C   UNK N   1      26.557  29.998  -3.482  0.00  0.00     0.001 A 
HETATM   16  C   UNK N   1      27.607  30.792  -3.958  0.00  0.00     0.001 A 
HETATM   17  C   UNK N   1      28.231  30.479  -5.170  0.00  0.00     0.012 A 
HETATM   18  C   UNK N   1      28.456  29.024  -7.089  0.00  0.00     0.013 A 
HETATM   19  C   UNK N   1      28.062  27.879  -7.787  0.00  0.00     0.016 A 
ENDBRANCH   8  10
ENDBRANCH   1   8
BRANCH   1  20
HETATM   20  C   UNK N   1      27.314  24.382  -6.124  0.00  0.00    -0.024 A 
HETATM   21  C   UNK N   1      26.210  24.094  -5.301  0.00  0.00     0.009 A 
HETATM   22  C   UNK N   1      26.343  23.979  -3.918  0.00  0.00     0.002 A 
HETATM   23  C   UNK N   1      27.586  24.163  -3.316  0.00  0.00     0.012 A 
HETATM   24  C   UNK N   1      28.705  24.451  -4.095  0.00  0.00    -0.025 A 
HETATM   25  C   UNK N   1      28.587  24.552  -5.505  0.00  0.00    -0.018 A 
HETATM   26  C   UNK N   1      29.942  24.643  -3.475  0.00  0.00     0.012 A 
HETATM   27  C   UNK N   1      29.742  24.829  -6.259  0.00  0.00     0.013 A 
HETATM   28  C   UNK N   1      30.974  25.025  -5.629  0.00  0.00     0.001 A 
HETATM   29  C   UNK N   1      31.072  24.937  -4.240  0.00  0.00     0.001 A 
ENDBRANCH   1  20
TORSDOF 6
ENDMDL
MODEL 3
REMARK VINA RESULT:      -7.8      1.979      2.868
REMARK  6 active torsions:
REMARK  status: ('A' for Active; 'I' for Inactive)
REMARK    1  A    between atoms: C_4  and  P_1 
REMARK    2  A    between atoms: P_1  and  O_6 
REMARK    3  A    between atoms: P_1  and  O_7 
REMARK    4  A    between atoms: C_4  and  C_5 
REMARK    5  A    between atoms: C_4  and  C_19 
REMARK    6  A    between atoms: C_5  and  C_8 
ROOT
HETATM    1  C   UNK N   1      25.629  25.156  -7.331  0.00  0.00     0.205 C 
ENDROOT
BRANCH   1   2
HETATM    2  P   UNK N   1      25.631  24.253  -8.997  0.00  0.00     0.252 P 
HETATM    3  O   UNK N   1      24.879  22.906  -8.827  0.00  0.00    -0.653 OA
BRANCH   2   4
HETATM    4  O   UNK N   1      24.747  25.037 -10.267  0.00  0.00    -0.328 OA
HETATM    5  H   UNK N   1      24.124  25.086 -11.009  0.00  0.00     0.220 HD
ENDBRANCH   2   4
BRANCH   2   6
HETATM    6  O   UNK N   1      27.144  23.737  -9.671  0.00  0.00    -0.328 OA
HETATM    7  H   UNK N   1      27.970  24.223  -9.515  0.00  0.00     0.220 HD
ENDBRANCH   2   6
ENDBRANCH   1   2
BRANCH   1   8
HETATM    8  C   UNK N   1      25.876  24.228  -6.130  0.00  0.00     0.179 C 
HETATM    9  O   UNK N   1      24.925  23.797  -5.494  0.00  0.00    -0.291 OA
BRANCH   8  10
HETATM   10  C   UNK N   1      27.217  23.667  -5.845  0.00  0.00     0.012 A 
HETATM   11  C   UNK N   1      27.868  24.038  -4.658  0.00  0.00     0.027 A 
HETATM   12  C   UNK N   1      29.088  23.453  -4.309  0.00  0.00    -0.025 A 
HETATM   13  C   UNK N   1      29.692  23.758  -3.088  0.00  0.00     0.012 A 
HETATM   14  C   UNK N   1      29.697  22.526  -5.183  0.00  0.00    -0.026 A 
HETATM   15  C   UNK N   1      30.902  23.150  -2.737  0.00  0.00     0.001 A 
HETATM   16  C   UNK N   1      31.518  22.250  -3.615  0.00  0.00     0.001 A 
HETATM   17  C   UNK N   1      30.916  21.938  -4.837  0.00  0.00     0.012 A 
HETATM   18  C   UNK N   1      29.066  22.180  -6.377  0.00  0.00     0.013 A 
HETATM   19  C   UNK N   1      27.818  22.727  -6.686  0.00  0.00     0.016 A 
ENDBRANCH   8  10
ENDBRANCH   1   8
BRANCH   1  20
HETATM   20  C   UNK N   1      26.593  26.359  -7.320  0.00  0.00    -0.024 A 
HETATM   21  C   UNK N   1      27.553  26.505  -8.338  0.00  0.00     0.009 A 
HETATM   22  C   UNK N   1      28.433  27.586  -8.359  0.00  0.00     0.002 A 
HETATM   23  C   UNK N   1      28.386  28.548  -7.352  0.00  0.00     0.012 A 
HETATM   24  C   UNK N   1      27.452  28.439  -6.324  0.00  0.00    -0.025 A 
HETATM   25  C   UNK N   1      26.538  27.354  -6.301  0.00  0.00    -0.018 A 
HETATM   26  C   UNK N   1      27.426  29.405  -5.315  0.00  0.00     0.012 A 
HETATM   27  C   UNK N   1      25.600  27.288  -5.255  0.00  0.00     0.013 A 
HETATM   28  C   UNK N   1      25.585  28.255  -4.248  0.00  0.00     0.001 A 
HETATM   29  C   UNK N   1      26.499  29.309  -4.275  0.00  0.00     0.001 A 
ENDBRANCH   1  20
TORSDOF 6
ENDMDL
MODEL 4
REMARK VINA RESULT:      -7.7     13.988     15.330
REMARK  6 active torsions:
REMARK  status: ('A' for Active; 'I' for Inactive)
REMARK    1  A    between atoms: C_4  and  P_1 
REMARK    2  A    between atoms: P_1  and  O_6 
REMARK    3  A    between atoms: P_1  and  O_7 
REMARK    4  A    between atoms: C_4  and  C_5 
REMARK    5  A    between atoms: C_4  and  C_19 
REMARK    6  A    between atoms: C_5  and  C_8 
ROOT
HETATM    1  C   UNK N   1      20.711  16.397   2.898  0.00  0.00     0.205 C 
ENDROOT
BRANCH   1   2
HETATM    2  P   UNK N   1      20.068  17.931   1.988  0.00  0.00     0.252 P 
HETATM    3  O   UNK N   1      20.955  19.143   2.381  0.00  0.00    -0.653 OA
BRANCH   2   4
HETATM    4  O   UNK N   1      20.212  17.884   0.261  0.00  0.00    -0.328 OA
HETATM    5  H   UNK N   1      20.013  18.156  -0.649  0.00  0.00     0.220 HD
ENDBRANCH   2   4
BRANCH   2   6
HETATM    6  O   UNK N   1      18.476  18.517   2.353  0.00  0.00    -0.328 OA
HETATM    7  H   UNK N   1      17.693  18.218   1.864  0.00  0.00     0.220 HD
ENDBRANCH   2   6
ENDBRANCH   1   2
BRANCH   1   8
HETATM    8  C   UNK N   1      20.138  16.240   4.316  0.00  0.00     0.179 C 
HETATM    9  O   UNK N   1      18.961  16.498   4.524  0.00  0.00    -0.291 OA
BRANCH   8  10
HETATM   10  C   UNK N   1      20.910  15.587   5.398  0.00  0.00     0.012 A 
HETATM   11  C   UNK N   1      20.323  15.460   6.667  0.00  0.00     0.027 A 
HETATM   12  C   UNK N   1      20.983  14.762   7.682  0.00  0.00    -0.025 A 
HETATM   13  C   UNK N   1      20.361  14.561   8.917  0.00  0.00     0.012 A 
HETATM   14  C   UNK N   1      22.270  14.233   7.448  0.00  0.00    -0.026 A 
HETATM   15  C   UNK N   1      21.020  13.842   9.920  0.00  0.00     0.001 A 
HETATM   16  C   UNK N   1      22.307  13.338   9.696  0.00  0.00     0.001 A 
HETATM   17  C   UNK N   1      22.932  13.533   8.461  0.00  0.00     0.012 A 
HETATM   18  C   UNK N   1      22.867  14.385   6.198  0.00  0.00     0.013 A 
HETATM   19  C   UNK N   1      22.173  15.033   5.173  0.00  0.00     0.016 A 
ENDBRANCH   8  10
ENDBRANCH   1   8
BRANCH   1  20
HETATM   20  C   UNK N   1      20.525  15.110   2.070  0.00  0.00    -0.024 A 
HETATM   21  C   UNK N   1      19.244  14.552   1.906  0.00  0.00     0.009 A 
HETATM   22  C   UNK N   1      19.044  13.394   1.157  0.00  0.00     0.002 A 
HETATM   23  C   UNK N   1      20.125  12.751   0.559  0.00  0.00     0.012 A 
HETATM   24  C   UNK N   1      21.411  13.269   0.699  0.00  0.00    -0.025 A 
HETATM   25  C   UNK N   1      21.626  14.457   1.443  0.00  0.00    -0.018 A 
HETATM   26  C   UNK N   1      22.487  12.605   0.103  0.00  0.00     0.012 A 
HETATM   27  C   UNK N   1      22.937  14.957   1.547  0.00  0.00     0.013 A 
HETATM   28  C   UNK N   1      24.007  14.284   0.953  0.00  0.00     0.001 A 
HETATM   29  C   UNK N   1      23.783  13.108   0.236  0.00  0.00     0.001 A 
ENDBRANCH   1  20
TORSDOF 6
ENDMDL
MODEL 5
REMARK VINA RESULT:      -7.6      1.606      5.673
REMARK  6 active torsions:
REMARK  status: ('A' for Active; 'I' for Inactive)
REMARK    1  A    between atoms: C_4  and  P_1 
REMARK    2  A    between atoms: P_1  and  O_6 
REMARK    3  A    between atoms: P_1  and  O_7 
REMARK    4  A    between atoms: C_4  and  C_5 
REMARK    5  A    between atoms: C_4  and  C_19 
REMARK    6  A    between atoms: C_5  and  C_8 
ROOT
HETATM    1  C   UNK N   1      27.046  22.680  -8.153  0.00  0.00     0.205 C 
ENDROOT
BRANCH   1   2
HETATM    2  P   UNK N   1      26.298  22.256  -9.842  0.00  0.00     0.252 P 
HETATM    3  O   UNK N   1      25.487  23.481 -10.343  0.00  0.00    -0.653 OA
BRANCH   2   4
HETATM    4  O   UNK N   1      27.445  21.997 -11.117  0.00  0.00    -0.328 OA
HETATM    5  H   UNK N   1      27.924  22.217 -11.931  0.00  0.00     0.220 HD
ENDBRANCH   2   4
BRANCH   2   6
HETATM    6  O   UNK N   1      25.125  20.982  -9.944  0.00  0.00    -0.328 OA
HETATM    7  H   UNK N   1      25.083  20.266  -9.290  0.00  0.00     0.220 HD
ENDBRANCH   2   6
ENDBRANCH   1   2
BRANCH   1   8
HETATM    8  C   UNK N   1      25.994  22.878  -7.049  0.00  0.00     0.179 C 
HETATM    9  O   UNK N   1      25.087  22.067  -6.926  0.00  0.00    -0.291 OA
BRANCH   8  10
HETATM   10  C   UNK N   1      26.158  23.905  -5.994  0.00  0.00     0.012 A 
HETATM   11  C   UNK N   1      25.879  25.245  -6.304  0.00  0.00     0.027 A 
HETATM   12  C   UNK N   1      25.927  26.224  -5.308  0.00  0.00    -0.025 A 
HETATM   13  C   UNK N   1      25.566  27.541  -5.598  0.00  0.00     0.012 A 
HETATM   14  C   UNK N   1      26.314  25.873  -3.996  0.00  0.00    -0.026 A 
HETATM   15  C   UNK N   1      25.595  28.510  -4.589  0.00  0.00     0.001 A 
HETATM   16  C   UNK N   1      26.003  28.167  -3.294  0.00  0.00     0.001 A 
HETATM   17  C   UNK N   1      26.362  26.849  -2.998  0.00  0.00     0.012 A 
HETATM   18  C   UNK N   1      26.621  24.547  -3.695  0.00  0.00     0.013 A 
HETATM   19  C   UNK N   1      26.511  23.567  -4.685  0.00  0.00     0.016 A 
ENDBRANCH   8  10
ENDBRANCH   1   8
BRANCH   1  20
HETATM   20  C   UNK N   1      28.128  21.669  -7.725  0.00  0.00    -0.024 A 
HETATM   21  C   UNK N   1      28.000  20.310  -8.066  0.00  0.00     0.009 A 
HETATM   22  C   UNK N   1      28.966  19.373  -7.699  0.00  0.00     0.002 A 
HETATM   23  C   UNK N   1      30.084  19.769  -6.968  0.00  0.00     0.012 A 
HETATM   24  C   UNK N   1      30.247  21.105  -6.608  0.00  0.00    -0.025 A 
HETATM   25  C   UNK N   1      29.281  22.072  -6.991  0.00  0.00    -0.018 A 
HETATM   26  C   UNK N   1      31.368  21.484  -5.864  0.00  0.00     0.012 A 
HETATM   27  C   UNK N   1      29.490  23.413  -6.622  0.00  0.00     0.013 A 
HETATM   28  C   UNK N   1      30.610  23.781  -5.874  0.00  0.00     0.001 A 
HETATM   29  C   UNK N   1      31.545  22.817  -5.492  0.00  0.00     0.001 A 
ENDBRANCH   1  20
TORSDOF 6
ENDMDL
MODEL 6
REMARK VINA RESULT:      -7.4     24.239     27.058
REMARK  6 active torsions:
REMARK  status: ('A' for Active; 'I' for Inactive)
REMARK    1  A    between atoms: C_4  and  P_1 
REMARK    2  A    between atoms: P_1  and  O_6 
REMARK    3  A    between atoms: P_1  and  O_7 
REMARK    4  A    between atoms: C_4  and  C_5 
REMARK    5  A    between atoms: C_4  and  C_19 
REMARK    6  A    between atoms: C_5  and  C_8 
ROOT
HETATM    1  C   UNK N   1      36.147  12.301  14.565  0.00  0.00     0.205 C 
ENDROOT
BRANCH   1   2
HETATM    2  P   UNK N   1      36.069  13.645  13.230  0.00  0.00     0.252 P 
HETATM    3  O   UNK N   1      36.940  13.194  12.027  0.00  0.00    -0.653 OA
BRANCH   2   4
HETATM    4  O   UNK N   1      34.509  13.890  12.514  0.00  0.00    -0.328 OA
HETATM    5  H   UNK N   1      33.576  13.690  12.341  0.00  0.00     0.220 HD
ENDBRANCH   2   4
BRANCH   2   6
HETATM    6  O   UNK N   1      36.723  15.213  13.580  0.00  0.00    -0.328 OA
HETATM    7  H   UNK N   1      36.758  15.917  12.913  0.00  0.00     0.220 HD
ENDBRANCH   2   6
ENDBRANCH   1   2
BRANCH   1   8
HETATM    8  C   UNK N   1      35.150  12.521  15.714  0.00  0.00     0.179 C 
HETATM    9  O   UNK N   1      34.049  12.995  15.477  0.00  0.00    -0.291 OA
BRANCH   8  10
HETATM   10  C   UNK N   1      35.399  11.984  17.073  0.00  0.00     0.012 A 
HETATM   11  C   UNK N   1      35.970  10.708  17.202  0.00  0.00     0.027 A 
HETATM   12  C   UNK N   1      36.310  10.213  18.464  0.00  0.00    -0.025 A 
HETATM   13  C   UNK N   1      36.956   8.981  18.586  0.00  0.00     0.012 A 
HETATM   14  C   UNK N   1      36.024  10.975  19.618  0.00  0.00    -0.026 A 
HETATM   15  C   UNK N   1      37.312   8.502  19.851  0.00  0.00     0.001 A 
HETATM   16  C   UNK N   1      37.008   9.247  20.997  0.00  0.00     0.001 A 
HETATM   17  C   UNK N   1      36.364  10.483  20.880  0.00  0.00     0.012 A 
HETATM   18  C   UNK N   1      35.430  12.229  19.492  0.00  0.00     0.013 A 
HETATM   19  C   UNK N   1      35.150  12.739  18.222  0.00  0.00     0.016 A 
ENDBRANCH   8  10
ENDBRANCH   1   8
BRANCH   1  20
HETATM   20  C   UNK N   1      36.018  10.884  13.971  0.00  0.00    -0.024 A 
HETATM   21  C   UNK N   1      34.825  10.487  13.339  0.00  0.00     0.009 A 
HETATM   22  C   UNK N   1      34.682   9.216  12.786  0.00  0.00     0.002 A 
HETATM   23  C   UNK N   1      35.726   8.297  12.862  0.00  0.00     0.012 A 
HETATM   24  C   UNK N   1      36.924   8.649  13.482  0.00  0.00    -0.025 A 
HETATM   25  C   UNK N   1      37.090   9.946  14.032  0.00  0.00    -0.018 A 
HETATM   26  C   UNK N   1      37.958   7.712  13.561  0.00  0.00     0.012 A 
HETATM   27  C   UNK N   1      38.319  10.268  14.636  0.00  0.00     0.013 A 
HETATM   28  C   UNK N   1      39.344   9.324  14.714  0.00  0.00     0.001 A 
HETATM   29  C   UNK N   1      39.162   8.046  14.182  0.00  0.00     0.001 A 
ENDBRANCH   1  20
TORSDOF 6
ENDMDL
MODEL 7
REMARK VINA RESULT:      -7.4     14.033     15.526
REMARK  6 active torsions:
REMARK  status: ('A' for Active; 'I' for Inactive)
REMARK    1  A    between atoms: C_4  and  P_1 
REMARK    2  A    between atoms: P_1  and  O_6 
REMARK    3  A    between atoms: P_1  and  O_7 
REMARK    4  A    between atoms: C_4  and  C_5 
REMARK    5  A    between atoms: C_4  and  C_19 
REMARK    6  A    between atoms: C_5  and  C_8 
ROOT
HETATM    1  C   UNK N   1      20.785  17.196   3.965  0.00  0.00     0.205 C 
ENDROOT
BRANCH   1   2
HETATM    2  P   UNK N   1      20.158  18.772   3.118  0.00  0.00     0.252 P 
HETATM    3  O   UNK N   1      20.980  18.993   1.820  0.00  0.00    -0.653 OA
BRANCH   2   4
HETATM    4  O   UNK N   1      18.524  18.703   2.540  0.00  0.00    -0.328 OA
HETATM    5  H   UNK N   1      17.562  18.618   2.623  0.00  0.00     0.220 HD
ENDBRANCH   2   4
BRANCH   2   6
HETATM    6  O   UNK N   1      20.350  20.294   3.928  0.00  0.00    -0.328 OA
HETATM    7  H   UNK N   1      19.757  20.575   4.642  0.00  0.00     0.220 HD
ENDBRANCH   2   6
ENDBRANCH   1   2
BRANCH   1   8
HETATM    8  C   UNK N   1      19.756  16.560   4.914  0.00  0.00     0.179 C 
HETATM    9  O   UNK N   1      18.600  16.418   4.544  0.00  0.00    -0.291 OA
BRANCH   8  10
HETATM   10  C   UNK N   1      20.164  15.918   6.185  0.00  0.00     0.012 A 
HETATM   11  C   UNK N   1      20.566  14.573   6.167  0.00  0.00     0.027 A 
HETATM   12  C   UNK N   1      21.050  13.966   7.329  0.00  0.00    -0.025 A 
HETATM   13  C   UNK N   1      21.530  12.655   7.291  0.00  0.00     0.012 A 
HETATM   14  C   UNK N   1      21.082  14.692   8.540  0.00  0.00    -0.026 A 
HETATM   15  C   UNK N   1      22.035  12.063   8.454  0.00  0.00     0.001 A 
HETATM   16  C   UNK N   1      22.043  12.775   9.659  0.00  0.00     0.001 A 
HETATM   17  C   UNK N   1      21.568  14.089   9.702  0.00  0.00     0.012 A 
HETATM   18  C   UNK N   1      20.655  16.019   8.565  0.00  0.00     0.013 A 
HETATM   19  C   UNK N   1      20.229  16.633   7.384  0.00  0.00     0.016 A 
ENDBRANCH   8  10
ENDBRANCH   1   8
BRANCH   1  20
HETATM   20  C   UNK N   1      21.330  16.169   2.953  0.00  0.00    -0.024 A 
HETATM   21  C   UNK N   1      20.508  15.695   1.914  0.00  0.00     0.009 A 
HETATM   22  C   UNK N   1      20.975  14.772   0.980  0.00  0.00     0.002 A 
HETATM   23  C   UNK N   1      22.277  14.285   1.066  0.00  0.00     0.012 A 
HETATM   24  C   UNK N   1      23.123  14.727   2.081  0.00  0.00    -0.025 A 
HETATM   25  C   UNK N   1      22.667  15.680   3.028  0.00  0.00    -0.018 A 
HETATM   26  C   UNK N   1      24.423  14.220   2.162  0.00  0.00     0.012 A 
HETATM   27  C   UNK N   1      23.556  16.113   4.029  0.00  0.00     0.013 A 
HETATM   28  C   UNK N   1      24.851  15.597   4.104  0.00  0.00     0.001 A 
HETATM   29  C   UNK N   1      25.283  14.648   3.175  0.00  0.00     0.001 A 
ENDBRANCH   1  20
TORSDOF 6
ENDMDL
MODEL 8
REMARK VINA RESULT:      -7.2     27.276     30.800
REMARK  6 active torsions:
REMARK  status: ('A' for Active; 'I' for Inactive)
REMARK    1  A    between atoms: C_4  and  P_1 
REMARK    2  A    between atoms: P_1  and  O_6 
REMARK    3  A    between atoms: P_1  and  O_7 
REMARK    4  A    between atoms: C_4  and  C_5 
REMARK    5  A    between atoms: C_4  and  C_19 
REMARK    6  A    between atoms: C_5  and  C_8 
ROOT
HETATM    1  C   UNK N   1      35.418   9.425  21.627  0.00  0.00     0.205 C 
ENDROOT
BRANCH   1   2
HETATM    2  P   UNK N   1      36.062   8.936  23.342  0.00  0.00     0.252 P 
HETATM    3  O   UNK N   1      35.217   7.743  23.863  0.00  0.00    -0.653 OA
BRANCH   2   4
HETATM    4  O   UNK N   1      37.681   8.315  23.377  0.00  0.00    -0.328 OA
HETATM    5  H   UNK N   1      38.384   7.673  23.192  0.00  0.00     0.220 HD
ENDBRANCH   2   4
BRANCH   2   6
HETATM    6  O   UNK N   1      35.922  10.073  24.645  0.00  0.00    -0.328 OA
HETATM    7  H   UNK N   1      36.553  10.801  24.764  0.00  0.00     0.220 HD
ENDBRANCH   2   6
ENDBRANCH   1   2
BRANCH   1   8
HETATM    8  C   UNK N   1      36.438  10.217  20.793  0.00  0.00     0.179 C 
HETATM    9  O   UNK N   1      37.633  10.070  21.001  0.00  0.00    -0.291 OA
BRANCH   8  10
HETATM   10  C   UNK N   1      36.029  10.995  19.600  0.00  0.00     0.012 A 
HETATM   11  C   UNK N   1      36.063  10.374  18.341  0.00  0.00     0.027 A 
HETATM   12  C   UNK N   1      35.591  11.047  17.211  0.00  0.00    -0.025 A 
HETATM   13  C   UNK N   1      35.545  10.398  15.975  0.00  0.00     0.012 A 
HETATM   14  C   UNK N   1      35.132  12.377  17.325  0.00  0.00    -0.026 A 
HETATM   15  C   UNK N   1      35.050  11.071  14.853  0.00  0.00     0.001 A 
HETATM   16  C   UNK N   1      34.617  12.398  14.962  0.00  0.00     0.001 A 
HETATM   17  C   UNK N   1      34.657  13.050  16.197  0.00  0.00     0.012 A 
HETATM   18  C   UNK N   1      35.126  13.004  18.570  0.00  0.00     0.013 A 
HETATM   19  C   UNK N   1      35.544  12.302  19.703  0.00  0.00     0.016 A 
ENDBRANCH   8  10
ENDBRANCH   1   8
BRANCH   1  20
HETATM   20  C   UNK N   1      34.869   8.215  20.845  0.00  0.00    -0.024 A 
HETATM   21  C   UNK N   1      35.743   7.210  20.390  0.00  0.00     0.009 A 
HETATM   22  C   UNK N   1      35.275   6.101  19.688  0.00  0.00     0.002 A 
HETATM   23  C   UNK N   1      33.916   5.970  19.409  0.00  0.00     0.012 A 
HETATM   24  C   UNK N   1      33.017   6.944  19.840  0.00  0.00    -0.025 A 
HETATM   25  C   UNK N   1      33.478   8.069  20.572  0.00  0.00    -0.018 A 
HETATM   26  C   UNK N   1      31.659   6.805  19.542  0.00  0.00     0.012 A 
HETATM   27  C   UNK N   1      32.537   9.022  21.003  0.00  0.00     0.013 A 
HETATM   28  C   UNK N   1      31.183   8.876  20.695  0.00  0.00     0.001 A 
HETATM   29  C   UNK N   1      30.745   7.772  19.961  0.00  0.00     0.001 A 
ENDBRANCH   1  20
TORSDOF 6
ENDMDL
MODEL 9
REMARK VINA RESULT:      -7.1     12.279     13.578
REMARK  6 active torsions:
REMARK  status: ('A' for Active; 'I' for Inactive)
REMARK    1  A    between atoms: C_4  and  P_1 
REMARK    2  A    between atoms: P_1  and  O_6 
REMARK    3  A    between atoms: P_1  and  O_7 
REMARK    4  A    between atoms: C_4  and  C_5 
REMARK    5  A    between atoms: C_4  and  C_19 
REMARK    6  A    between atoms: C_5  and  C_8 
ROOT
HETATM    1  C   UNK N   1      21.523  16.920   4.740  0.00  0.00     0.205 C 
ENDROOT
BRANCH   1   2
HETATM    2  P   UNK N   1      20.856  17.104   6.505  0.00  0.00     0.252 P 
HETATM    3  O   UNK N   1      21.742  16.255   7.457  0.00  0.00    -0.653 OA
BRANCH   2   4
HETATM    4  O   UNK N   1      20.971  18.697   7.180  0.00  0.00    -0.328 OA
HETATM    5  H   UNK N   1      20.836  19.382   7.854  0.00  0.00     0.220 HD
ENDBRANCH   2   4
BRANCH   2   6
HETATM    6  O   UNK N   1      19.267  16.508   6.868  0.00  0.00    -0.328 OA
HETATM    7  H   UNK N   1      19.043  15.566   6.806  0.00  0.00     0.220 HD
ENDBRANCH   2   6
ENDBRANCH   1   2
BRANCH   1   8
HETATM    8  C   UNK N   1      20.690  15.968   3.867  0.00  0.00     0.179 C 
HETATM    9  O   UNK N   1      19.470  16.027   3.902  0.00  0.00    -0.291 OA
BRANCH   8  10
HETATM   10  C   UNK N   1      21.317  15.122   2.824  0.00  0.00     0.012 A 
HETATM   11  C   UNK N   1      22.630  14.667   3.020  0.00  0.00     0.027 A 
HETATM   12  C   UNK N   1      23.215  13.788   2.105  0.00  0.00    -0.025 A 
HETATM   13  C   UNK N   1      24.489  13.268   2.345  0.00  0.00     0.012 A 
HETATM   14  C   UNK N   1      22.504  13.401   0.949  0.00  0.00    -0.026 A 
HETATM   15  C   UNK N   1      25.058  12.370   1.435  0.00  0.00     0.001 A 
HETATM   16  C   UNK N   1      24.362  12.006   0.276  0.00  0.00     0.001 A 
HETATM   17  C   UNK N   1      23.085  12.520   0.033  0.00  0.00     0.012 A 
HETATM   18  C   UNK N   1      21.210  13.877   0.738  0.00  0.00     0.013 A 
HETATM   19  C   UNK N   1      20.614  14.708   1.690  0.00  0.00     0.016 A 
ENDBRANCH   8  10
ENDBRANCH   1   8
BRANCH   1  20
HETATM   20  C   UNK N   1      21.727  18.284   4.051  0.00  0.00    -0.024 A 
HETATM   21  C   UNK N   1      20.615  19.062   3.679  0.00  0.00     0.009 A 
HETATM   22  C   UNK N   1      20.769  20.303   3.062  0.00  0.00     0.002 A 
HETATM   23  C   UNK N   1      22.042  20.796   2.786  0.00  0.00     0.012 A 
HETATM   24  C   UNK N   1      23.169  20.056   3.136  0.00  0.00    -0.025 A 
HETATM   25  C   UNK N   1      23.028  18.800   3.782  0.00  0.00    -0.018 A 
HETATM   26  C   UNK N   1      24.440  20.559   2.843  0.00  0.00     0.012 A 
HETATM   27  C   UNK N   1      24.191  18.090   4.134  0.00  0.00     0.013 A 
HETATM   28  C   UNK N   1      25.456  18.599   3.832  0.00  0.00     0.001 A 
HETATM   29  C   UNK N   1      25.580  19.829   3.183  0.00  0.00     0.001 A 
ENDBRANCH   1  20
TORSDOF 6
ENDMDL
