REMARK  6 active torsions:
REMARK  status: ('A' for Active; 'I' for Inactive)
REMARK    1  A    between atoms: C_4  and  P_1 
REMARK    2  A    between atoms: P_1  and  O_6 
REMARK    3  A    between atoms: P_1  and  O_7 
REMARK    4  A    between atoms: C_4  and  C_5 
REMARK    5  A    between atoms: C_4  and  C_19 
REMARK    6  A    between atoms: C_5  and  C_8 
ROOT
HETATM    1  C   UNK N   1      -0.877  -0.739  -0.136  0.00  0.00     0.205 C 
ENDROOT
BRANCH   1   2
HETATM    2  P   UNK N   1      -2.674  -0.185   0.105  0.00  0.00     0.252 P 
HETATM    3  O   UNK N   1      -3.579  -1.029  -0.832  0.00  0.00    -0.653 OA
BRANCH   2   4
HETATM    4  O   UNK N   1      -3.341  -0.493   1.676  0.00  0.00    -0.328 OA
HETATM    5  H   UNK N   1      -3.677  -0.255   2.554  0.00  0.00     0.220 HD
ENDBRANCH   2   4
BRANCH   2   6
HETATM    6  O   UNK N   1      -3.118   1.435  -0.330  0.00  0.00    -0.328 OA
HETATM    7  H   UNK N   1      -2.457   2.103  -0.572  0.00  0.00     0.220 HD
ENDBRANCH   2   6
ENDBRANCH   1   2
BRANCH   1   8
HETATM    8  C   UNK N   1       0.123   0.025   0.747  0.00  0.00     0.179 C 
HETATM    9  O   UNK N   1       0.849  -0.593   1.512  0.00  0.00    -0.291 OA
BRANCH   8  10
HETATM   10  C   UNK N   1       0.386   1.470   0.552  0.00  0.00     0.012 A 
HETATM   11  C   UNK N   1       1.714   1.925   0.568  0.00  0.00     0.027 A 
HETATM   12  C   UNK N   1       2.004   3.263   0.289  0.00  0.00    -0.025 A 
HETATM   13  C   UNK N   1       3.330   3.696   0.220  0.00  0.00     0.012 A 
HETATM   14  C   UNK N   1       0.953   4.174   0.047  0.00  0.00    -0.026 A 
HETATM   15  C   UNK N   1       3.612   5.033  -0.082  0.00  0.00     0.001 A 
HETATM   16  C   UNK N   1       2.569   5.941  -0.298  0.00  0.00     0.001 A 
HETATM   17  C   UNK N   1       1.240   5.512  -0.234  0.00  0.00     0.012 A 
HETATM   18  C   UNK N   1      -0.368   3.729   0.061  0.00  0.00     0.013 A 
HETATM   19  C   UNK N   1      -0.642   2.377   0.282  0.00  0.00     0.016 A 
ENDBRANCH   8  10
ENDBRANCH   1   8
BRANCH   1  20
HETATM   20  C   UNK N   1      -0.713  -2.264   0.017  0.00  0.00    -0.024 A 
HETATM   21  C   UNK N   1      -1.805  -3.057   0.415  0.00  0.00     0.009 A 
HETATM   22  C   UNK N   1      -1.689  -4.439   0.554  0.00  0.00     0.002 A 
HETATM   23  C   UNK N   1      -0.470  -5.068   0.311  0.00  0.00     0.012 A 
HETATM   24  C   UNK N   1       0.637  -4.319  -0.083  0.00  0.00    -0.025 A 
HETATM   25  C   UNK N   1       0.528  -2.914  -0.247  0.00  0.00    -0.018 A 
HETATM   26  C   UNK N   1       1.856  -4.963  -0.312  0.00  0.00     0.012 A 
HETATM   27  C   UNK N   1       1.664  -2.195  -0.661  0.00  0.00     0.013 A 
HETATM   28  C   UNK N   1       2.879  -2.847  -0.882  0.00  0.00     0.001 A 
HETATM   29  C   UNK N   1       2.976  -4.228  -0.703  0.00  0.00     0.001 A 
ENDBRANCH   1  20
TORSDOF 6
