MODEL 1
REMARK VINA RESULT:      -7.9      0.000      0.000
REMARK  4 active torsions:
REMARK  status: ('A' for Active; 'I' for Inactive)
REMARK    1  A    between atoms: C_7  and  N_8 
REMARK       I    between atoms: N_8  and  C_9 
REMARK       I    between atoms: C_9  and  N_11 
REMARK    2  A    between atoms: N_11  and  C_13 
REMARK    3  A    between atoms: N_15  and  C_22 
REMARK    4  A    between atoms: C_17  and  C_18 
ROOT
HETATM    1  C   UNK N   1      36.081  15.517  10.835  0.00  0.00     0.133 A 
HETATM    2  C   UNK N   1      35.254  16.554  10.434  0.00  0.00     0.077 A 
HETATM    3  N   UNK N   1      36.265  14.667   9.797  0.00  0.00    -0.240 N 
HETATM    4  N   UNK N   1      35.579  15.115   8.756  0.00  0.00    -0.295 N 
HETATM    5  C   UNK N   1      34.958  16.260   9.119  0.00  0.00     0.037 A 
HETATM    6  H   UNK N   1      35.530  14.688   7.870  0.00  0.00     0.187 HD
ENDROOT
BRANCH   1   7
HETATM    7  N   UNK N   1      36.587  15.356  12.019  0.00  0.00    -0.293 N 
HETATM    8  C   UNK N   1      36.084  14.505  12.965  0.00  0.00     0.326 C 
HETATM    9  N   UNK N   1      36.753  14.331  14.138  0.00  0.00    -0.309 N 
HETATM   10  O   UNK N   1      35.047  13.888  12.755  0.00  0.00    -0.247 OA
HETATM   11  H   UNK N   1      37.537  14.901  14.309  0.00  0.00     0.170 HD
ATOM     12  HN  UNK N   1      37.414  15.900  12.262  1.00  0.00     0.172 HD
BRANCH   9  13
HETATM   13  C   UNK N   1      36.390  13.375  15.137  0.00  0.00     0.036 A 
HETATM   14  C   UNK N   1      35.565  13.720  16.224  0.00  0.00     0.031 A 
HETATM   15  C   UNK N   1      35.199  12.770  17.175  0.00  0.00     0.026 A 
HETATM   16  C   UNK N   1      35.649  11.458  17.053  0.00  0.00     0.034 A 
HETATM   17 Cl   UNK N   1      35.190  10.272  18.254  0.00  0.00    -0.084 Cl
HETATM   18  C   UNK N   1      36.463  11.095  15.973  0.00  0.00     0.026 A 
HETATM   19  C   UNK N   1      36.828  12.050  15.015  0.00  0.00     0.031 A 
ENDBRANCH   9  13
ENDBRANCH   1   7
BRANCH   3  20
HETATM   20  C   UNK N   1      37.063  13.465   9.748  0.00  0.00     0.058 A 
HETATM   21  C   UNK N   1      38.438  13.553   9.475  0.00  0.00     0.031 A 
HETATM   22  C   UNK N   1      39.233  12.403   9.450  0.00  0.00     0.002 A 
HETATM   23  C   UNK N   1      38.660  11.153   9.697  0.00  0.00     0.000 A 
HETATM   24  C   UNK N   1      37.292  11.054   9.967  0.00  0.00     0.002 A 
HETATM   25  C   UNK N   1      36.497  12.204   9.995  0.00  0.00     0.031 A 
ENDBRANCH   3  20
BRANCH   5  26
HETATM   26  C   UNK N   1      34.074  17.075   8.214  0.00  0.00    -0.007 C 
HETATM   27  C   UNK N   1      34.180  16.553   6.795  0.00  0.00     0.021 C 
HETATM   28  C   UNK N   1      34.509  18.527   8.244  0.00  0.00     0.021 C 
HETATM   29  C   UNK N   1      32.615  17.006   8.641  0.00  0.00     0.021 C 
ENDBRANCH   5  26
TORSDOF 4
ENDMDL
MODEL 2
REMARK VINA RESULT:      -7.0      3.490      7.423
REMARK  4 active torsions:
REMARK  status: ('A' for Active; 'I' for Inactive)
REMARK    1  A    between atoms: C_7  and  N_8 
REMARK       I    between atoms: N_8  and  C_9 
REMARK       I    between atoms: C_9  and  N_11 
REMARK    2  A    between atoms: N_11  and  C_13 
REMARK    3  A    between atoms: N_15  and  C_22 
REMARK    4  A    between atoms: C_17  and  C_18 
ROOT
HETATM    1  C   UNK N   1      36.224  15.098  11.366  0.00  0.00     0.133 A 
HETATM    2  C   UNK N   1      35.905  15.062  12.714  0.00  0.00     0.077 A 
HETATM    3  N   UNK N   1      36.965  14.009  11.054  0.00  0.00    -0.240 N 
HETATM    4  N   UNK N   1      37.139  13.287  12.152  0.00  0.00    -0.295 N 
HETATM    5  C   UNK N   1      36.503  13.906  13.171  0.00  0.00     0.037 A 
HETATM    6  H   UNK N   1      37.645  12.444  12.214  0.00  0.00     0.187 HD
ENDROOT
BRANCH   1   7
HETATM    7  N   UNK N   1      35.897  16.033  10.528  0.00  0.00    -0.293 N 
HETATM    8  C   UNK N   1      34.856  15.948   9.644  0.00  0.00     0.326 C 
HETATM    9  N   UNK N   1      34.530  17.029   8.881  0.00  0.00    -0.309 N 
HETATM   10  O   UNK N   1      34.207  14.914   9.548  0.00  0.00    -0.247 OA
HETATM   11  H   UNK N   1      35.121  17.815   8.923  0.00  0.00     0.170 HD
ATOM     12  HN  UNK N   1      36.453  16.888  10.527  1.00  0.00     0.172 HD
BRANCH   9  13
HETATM   13  C   UNK N   1      33.388  17.093   8.025  0.00  0.00     0.036 A 
HETATM   14  C   UNK N   1      32.092  17.290   8.537  0.00  0.00     0.031 A 
HETATM   15  C   UNK N   1      30.991  17.376   7.687  0.00  0.00     0.026 A 
HETATM   16  C   UNK N   1      31.170  17.271   6.310  0.00  0.00     0.034 A 
HETATM   17 Cl   UNK N   1      29.783  17.374   5.249  0.00  0.00    -0.084 Cl
HETATM   18  C   UNK N   1      32.453  17.083   5.783  0.00  0.00     0.026 A 
HETATM   19  C   UNK N   1      33.560  17.000   6.638  0.00  0.00     0.031 A 
ENDBRANCH   9  13
ENDBRANCH   1   7
BRANCH   3  20
HETATM   20  C   UNK N   1      37.502  13.621   9.771  0.00  0.00     0.058 A 
HETATM   21  C   UNK N   1      36.789  12.723   8.961  0.00  0.00     0.031 A 
HETATM   22  C   UNK N   1      37.279  12.358   7.704  0.00  0.00     0.002 A 
HETATM   23  C   UNK N   1      38.487  12.886   7.245  0.00  0.00     0.000 A 
HETATM   24  C   UNK N   1      39.207  13.779   8.044  0.00  0.00     0.002 A 
HETATM   25  C   UNK N   1      38.716  14.148   9.301  0.00  0.00     0.031 A 
ENDBRANCH   3  20
BRANCH   5  26
HETATM   26  C   UNK N   1      36.470  13.401  14.589  0.00  0.00    -0.007 C 
HETATM   27  C   UNK N   1      37.029  14.460  15.518  0.00  0.00     0.021 C 
HETATM   28  C   UNK N   1      37.309  12.144  14.705  0.00  0.00     0.021 C 
HETATM   29  C   UNK N   1      35.053  13.071  15.037  0.00  0.00     0.021 C 
ENDBRANCH   5  26
TORSDOF 4
ENDMDL
MODEL 3
REMARK VINA RESULT:      -7.0      9.403     12.236
REMARK  4 active torsions:
REMARK  status: ('A' for Active; 'I' for Inactive)
REMARK    1  A    between atoms: C_7  and  N_8 
REMARK       I    between atoms: N_8  and  C_9 
REMARK       I    between atoms: C_9  and  N_11 
REMARK    2  A    between atoms: N_11  and  C_13 
REMARK    3  A    between atoms: N_15  and  C_22 
REMARK    4  A    between atoms: C_17  and  C_18 
ROOT
HETATM    1  C   UNK N   1      28.958  16.924   5.977  0.00  0.00     0.133 A 
HETATM    2  C   UNK N   1      30.181  16.275   5.919  0.00  0.00     0.077 A 
HETATM    3  N   UNK N   1      28.948  17.935   5.077  0.00  0.00    -0.240 N 
HETATM    4  N   UNK N   1      30.118  17.962   4.456  0.00  0.00    -0.295 N 
HETATM    5  C   UNK N   1      30.882  16.963   4.950  0.00  0.00     0.037 A 
HETATM    6  H   UNK N   1      30.386  18.601   3.756  0.00  0.00     0.187 HD
ENDROOT
BRANCH   1   7
HETATM    7  N   UNK N   1      27.978  16.640   6.778  0.00  0.00    -0.293 N 
HETATM    8  C   UNK N   1      26.926  15.827   6.455  0.00  0.00     0.326 C 
HETATM    9  N   UNK N   1      26.006  15.506   7.406  0.00  0.00    -0.309 N 
HETATM   10  O   UNK N   1      26.819  15.374   5.322  0.00  0.00    -0.247 OA
HETATM   11  H   UNK N   1      26.075  15.951   8.281  0.00  0.00     0.170 HD
ATOM     12  HN  UNK N   1      27.993  17.049   7.712  1.00  0.00     0.172 HD
BRANCH   9  13
HETATM   13  C   UNK N   1      24.945  14.567   7.214  0.00  0.00     0.036 A 
HETATM   14  C   UNK N   1      25.090  13.210   7.559  0.00  0.00     0.031 A 
HETATM   15  C   UNK N   1      24.038  12.312   7.389  0.00  0.00     0.026 A 
HETATM   16  C   UNK N   1      22.822  12.758   6.875  0.00  0.00     0.034 A 
HETATM   17 Cl   UNK N   1      21.508  11.624   6.659  0.00  0.00    -0.084 Cl
HETATM   18  C   UNK N   1      22.659  14.106   6.534  0.00  0.00     0.026 A 
HETATM   19  C   UNK N   1      23.716  15.009   6.708  0.00  0.00     0.031 A 
ENDBRANCH   9  13
ENDBRANCH   1   7
BRANCH   3  20
HETATM   20  C   UNK N   1      27.883  18.862   4.775  0.00  0.00     0.058 A 
HETATM   21  C   UNK N   1      26.939  18.540   3.787  0.00  0.00     0.031 A 
HETATM   22  C   UNK N   1      25.885  19.413   3.500  0.00  0.00     0.002 A 
HETATM   23  C   UNK N   1      25.764  20.616   4.199  0.00  0.00     0.000 A 
HETATM   24  C   UNK N   1      26.699  20.948   5.183  0.00  0.00     0.002 A 
HETATM   25  C   UNK N   1      27.753  20.074   5.473  0.00  0.00     0.031 A 
ENDBRANCH   3  20
BRANCH   5  26
HETATM   26  C   UNK N   1      32.289  16.663   4.505  0.00  0.00    -0.007 C 
HETATM   27  C   UNK N   1      32.436  16.990   3.032  0.00  0.00     0.021 C 
HETATM   28  C   UNK N   1      32.594  15.194   4.722  0.00  0.00     0.021 C 
HETATM   29  C   UNK N   1      33.311  17.482   5.280  0.00  0.00     0.021 C 
ENDBRANCH   5  26
TORSDOF 4
ENDMDL
MODEL 4
REMARK VINA RESULT:      -6.9      3.565      8.095
REMARK  4 active torsions:
REMARK  status: ('A' for Active; 'I' for Inactive)
REMARK    1  A    between atoms: C_7  and  N_8 
REMARK       I    between atoms: N_8  and  C_9 
REMARK       I    between atoms: C_9  and  N_11 
REMARK    2  A    between atoms: N_11  and  C_13 
REMARK    3  A    between atoms: N_15  and  C_22 
REMARK    4  A    between atoms: C_17  and  C_18 
ROOT
HETATM    1  C   UNK N   1      35.779  12.462  13.382  0.00  0.00     0.133 A 
HETATM    2  C   UNK N   1      36.111  11.299  12.706  0.00  0.00     0.077 A 
HETATM    3  N   UNK N   1      36.428  12.489  14.569  0.00  0.00    -0.240 N 
HETATM    4  N   UNK N   1      37.153  11.385  14.681  0.00  0.00    -0.295 N 
HETATM    5  C   UNK N   1      36.977  10.648  13.562  0.00  0.00     0.037 A 
HETATM    6  H   UNK N   1      37.721  11.143  15.448  0.00  0.00     0.187 HD
ENDROOT
BRANCH   1   7
HETATM    7  N   UNK N   1      34.956  13.377  12.969  0.00  0.00    -0.293 N 
HETATM    8  C   UNK N   1      35.048  14.010  11.760  0.00  0.00     0.326 C 
HETATM    9  N   UNK N   1      34.071  14.879  11.379  0.00  0.00    -0.309 N 
HETATM   10  O   UNK N   1      35.992  13.787  11.014  0.00  0.00    -0.247 OA
HETATM   11  H   UNK N   1      33.370  15.098  12.034  0.00  0.00     0.170 HD
ATOM     12  HN  UNK N   1      34.190  13.643  13.588  1.00  0.00     0.172 HD
BRANCH   9  13
HETATM   13  C   UNK N   1      33.999  15.493  10.090  0.00  0.00     0.036 A 
HETATM   14  C   UNK N   1      34.634  16.720   9.821  0.00  0.00     0.031 A 
HETATM   15  C   UNK N   1      34.575  17.293   8.553  0.00  0.00     0.026 A 
HETATM   16  C   UNK N   1      33.885  16.646   7.531  0.00  0.00     0.034 A 
HETATM   17 Cl   UNK N   1      33.811  17.374   5.942  0.00  0.00    -0.084 Cl
HETATM   18  C   UNK N   1      33.255  15.421   7.779  0.00  0.00     0.026 A 
HETATM   19  C   UNK N   1      33.317  14.843   9.054  0.00  0.00     0.031 A 
ENDBRANCH   9  13
ENDBRANCH   1   7
BRANCH   3  20
HETATM   20  C   UNK N   1      36.400  13.512  15.588  0.00  0.00     0.058 A 
HETATM   21  C   UNK N   1      35.571  13.353  16.710  0.00  0.00     0.031 A 
HETATM   22  C   UNK N   1      35.551  14.318  17.721  0.00  0.00     0.002 A 
HETATM   23  C   UNK N   1      36.360  15.453  17.619  0.00  0.00     0.000 A 
HETATM   24  C   UNK N   1      37.187  15.622  16.506  0.00  0.00     0.002 A 
HETATM   25  C   UNK N   1      37.210  14.655  15.495  0.00  0.00     0.031 A 
ENDBRANCH   3  20
BRANCH   5  26
HETATM   26  C   UNK N   1      37.629   9.315  13.306  0.00  0.00    -0.007 C 
HETATM   27  C   UNK N   1      36.618   8.207  13.524  0.00  0.00     0.021 C 
HETATM   28  C   UNK N   1      38.792   9.123  14.259  0.00  0.00     0.021 C 
HETATM   29  C   UNK N   1      38.155   9.209  11.882  0.00  0.00     0.021 C 
ENDBRANCH   5  26
TORSDOF 4
ENDMDL
MODEL 5
REMARK VINA RESULT:      -6.9      3.511      6.442
REMARK  4 active torsions:
REMARK  status: ('A' for Active; 'I' for Inactive)
REMARK    1  A    between atoms: C_7  and  N_8 
REMARK       I    between atoms: N_8  and  C_9 
REMARK       I    between atoms: C_9  and  N_11 
REMARK    2  A    between atoms: N_11  and  C_13 
REMARK    3  A    between atoms: N_15  and  C_22 
REMARK    4  A    between atoms: C_17  and  C_18 
ROOT
HETATM    1  C   UNK N   1      31.952  17.310   7.598  0.00  0.00     0.133 A 
HETATM    2  C   UNK N   1      30.859  17.781   8.308  0.00  0.00     0.077 A 
HETATM    3  N   UNK N   1      31.541  16.866   6.388  0.00  0.00    -0.240 N 
HETATM    4  N   UNK N   1      30.228  17.024   6.303  0.00  0.00    -0.295 N 
HETATM    5  C   UNK N   1      29.793  17.579   7.456  0.00  0.00     0.037 A 
HETATM    6  H   UNK N   1      29.666  16.779   5.532  0.00  0.00     0.187 HD
ENDROOT
BRANCH   1   7
HETATM    7  N   UNK N   1      33.178  17.270   8.022  0.00  0.00    -0.293 N 
HETATM    8  C   UNK N   1      33.666  16.333   8.891  0.00  0.00     0.326 C 
HETATM    9  N   UNK N   1      34.995  16.316   9.188  0.00  0.00    -0.309 N 
HETATM   10  O   UNK N   1      32.918  15.501   9.389  0.00  0.00    -0.247 OA
HETATM   11  H   UNK N   1      35.553  17.047   8.837  0.00  0.00     0.170 HD
ATOM     12  HN  UNK N   1      33.823  17.985   7.684  1.00  0.00     0.172 HD
BRANCH   9  13
HETATM   13  C   UNK N   1      35.630  15.308   9.977  0.00  0.00     0.036 A 
HETATM   14  C   UNK N   1      35.650  15.375  11.383  0.00  0.00     0.031 A 
HETATM   15  C   UNK N   1      36.251  14.371  12.139  0.00  0.00     0.026 A 
HETATM   16  C   UNK N   1      36.838  13.280  11.502  0.00  0.00     0.034 A 
HETATM   17 Cl   UNK N   1      37.595  12.026  12.457  0.00  0.00    -0.084 Cl
HETATM   18  C   UNK N   1      36.819  13.194  10.105  0.00  0.00     0.026 A 
HETATM   19  C   UNK N   1      36.212  14.202   9.345  0.00  0.00     0.031 A 
ENDBRANCH   9  13
ENDBRANCH   1   7
BRANCH   3  20
HETATM   20  C   UNK N   1      32.332  16.311   5.315  0.00  0.00     0.058 A 
HETATM   21  C   UNK N   1      32.963  15.068   5.487  0.00  0.00     0.031 A 
HETATM   22  C   UNK N   1      33.710  14.502   4.450  0.00  0.00     0.002 A 
HETATM   23  C   UNK N   1      33.833  15.173   3.231  0.00  0.00     0.000 A 
HETATM   24  C   UNK N   1      33.211  16.411   3.050  0.00  0.00     0.002 A 
HETATM   25  C   UNK N   1      32.461  16.977   4.086  0.00  0.00     0.031 A 
ENDBRANCH   3  20
BRANCH   5  26
HETATM   26  C   UNK N   1      28.355  17.913   7.754  0.00  0.00    -0.007 C 
HETATM   27  C   UNK N   1      28.138  17.930   9.253  0.00  0.00     0.021 C 
HETATM   28  C   UNK N   1      27.447  16.870   7.131  0.00  0.00     0.021 C 
HETATM   29  C   UNK N   1      27.966  19.275   7.198  0.00  0.00     0.021 C 
ENDBRANCH   5  26
TORSDOF 4
ENDMDL
MODEL 6
REMARK VINA RESULT:      -6.8      6.845     10.882
REMARK  4 active torsions:
REMARK  status: ('A' for Active; 'I' for Inactive)
REMARK    1  A    between atoms: C_7  and  N_8 
REMARK       I    between atoms: N_8  and  C_9 
REMARK       I    between atoms: C_9  and  N_11 
REMARK    2  A    between atoms: N_11  and  C_13 
REMARK    3  A    between atoms: N_15  and  C_22 
REMARK    4  A    between atoms: C_17  and  C_18 
ROOT
HETATM    1  C   UNK N   1      29.021  16.902   3.931  0.00  0.00     0.133 A 
HETATM    2  C   UNK N   1      28.737  15.742   3.228  0.00  0.00     0.077 A 
HETATM    3  N   UNK N   1      27.861  17.514   4.268  0.00  0.00    -0.240 N 
HETATM    4  N   UNK N   1      26.852  16.796   3.798  0.00  0.00    -0.295 N 
HETATM    5  C   UNK N   1      27.359  15.716   3.164  0.00  0.00     0.037 A 
HETATM    6  H   UNK N   1      25.895  17.013   3.894  0.00  0.00     0.187 HD
ENDROOT
BRANCH   1   7
HETATM    7  N   UNK N   1      30.203  17.358   4.209  0.00  0.00    -0.293 N 
HETATM    8  C   UNK N   1      30.907  17.045   5.340  0.00  0.00     0.326 C 
HETATM    9  N   UNK N   1      32.185  17.492   5.484  0.00  0.00    -0.309 N 
HETATM   10  O   UNK N   1      30.399  16.353   6.213  0.00  0.00    -0.247 OA
HETATM   11  H   UNK N   1      32.534  18.112   4.803  0.00  0.00     0.170 HD
ATOM     12  HN  UNK N   1      30.639  17.992   3.539  1.00  0.00     0.172 HD
BRANCH   9  13
HETATM   13  C   UNK N   1      33.051  17.120   6.558  0.00  0.00     0.036 A 
HETATM   14  C   UNK N   1      33.087  17.847   7.762  0.00  0.00     0.031 A 
HETATM   15  C   UNK N   1      33.919  17.457   8.810  0.00  0.00     0.026 A 
HETATM   16  C   UNK N   1      34.725  16.329   8.672  0.00  0.00     0.034 A 
HETATM   17 Cl   UNK N   1      35.770  15.848   9.989  0.00  0.00    -0.084 Cl
HETATM   18  C   UNK N   1      34.695  15.589   7.483  0.00  0.00     0.026 A 
HETATM   19  C   UNK N   1      33.856  15.981   6.432  0.00  0.00     0.031 A 
ENDBRANCH   9  13
ENDBRANCH   1   7
BRANCH   3  20
HETATM   20  C   UNK N   1      27.671  18.733   5.018  0.00  0.00     0.058 A 
HETATM   21  C   UNK N   1      27.287  19.908   4.350  0.00  0.00     0.031 A 
HETATM   22  C   UNK N   1      27.071  21.091   5.062  0.00  0.00     0.002 A 
HETATM   23  C   UNK N   1      27.236  21.112   6.448  0.00  0.00     0.000 A 
HETATM   24  C   UNK N   1      27.620  19.950   7.123  0.00  0.00     0.002 A 
HETATM   25  C   UNK N   1      27.834  18.765   6.412  0.00  0.00     0.031 A 
ENDBRANCH   3  20
BRANCH   5  26
HETATM   26  C   UNK N   1      26.530  14.656   2.488  0.00  0.00    -0.007 C 
HETATM   27  C   UNK N   1      25.555  14.061   3.484  0.00  0.00     0.021 C 
HETATM   28  C   UNK N   1      27.434  13.559   1.960  0.00  0.00     0.021 C 
HETATM   29  C   UNK N   1      25.736  15.222   1.320  0.00  0.00     0.021 C 
ENDBRANCH   5  26
TORSDOF 4
ENDMDL
MODEL 7
REMARK VINA RESULT:      -6.8     17.601     21.140
REMARK  4 active torsions:
REMARK  status: ('A' for Active; 'I' for Inactive)
REMARK    1  A    between atoms: C_7  and  N_8 
REMARK       I    between atoms: N_8  and  C_9 
REMARK       I    between atoms: C_9  and  N_11 
REMARK    2  A    between atoms: N_11  and  C_13 
REMARK    3  A    between atoms: N_15  and  C_22 
REMARK    4  A    between atoms: C_17  and  C_18 
ROOT
HETATM    1  C   UNK N   1      28.005  24.528  -4.540  0.00  0.00     0.133 A 
HETATM    2  C   UNK N   1      28.172  25.812  -4.048  0.00  0.00     0.077 A 
HETATM    3  N   UNK N   1      27.239  24.574  -5.654  0.00  0.00    -0.240 N 
HETATM    4  N   UNK N   1      26.902  25.834  -5.885  0.00  0.00    -0.295 N 
HETATM    5  C   UNK N   1      27.458  26.604  -4.924  0.00  0.00     0.037 A 
HETATM    6  H   UNK N   1      26.342  26.155  -6.629  0.00  0.00     0.187 HD
ENDROOT
BRANCH   1   7
HETATM    7  N   UNK N   1      28.479  23.440  -4.014  0.00  0.00    -0.293 N 
HETATM    8  C   UNK N   1      29.664  22.860  -4.375  0.00  0.00     0.326 C 
HETATM    9  N   UNK N   1      30.121  21.778  -3.685  0.00  0.00    -0.309 N 
HETATM   10  O   UNK N   1      30.321  23.317  -5.301  0.00  0.00    -0.247 OA
HETATM   11  H   UNK N   1      29.532  21.386  -3.002  0.00  0.00     0.170 HD
ATOM     12  HN  UNK N   1      27.931  22.987  -3.283  1.00  0.00     0.172 HD
BRANCH   9  13
HETATM   13  C   UNK N   1      31.401  21.176  -3.892  0.00  0.00     0.036 A 
HETATM   14  C   UNK N   1      32.500  21.476  -3.065  0.00  0.00     0.031 A 
HETATM   15  C   UNK N   1      33.734  20.861  -3.263  0.00  0.00     0.026 A 
HETATM   16  C   UNK N   1      33.889  19.932  -4.290  0.00  0.00     0.034 A 
HETATM   17 Cl   UNK N   1      35.443  19.169  -4.537  0.00  0.00    -0.084 Cl
HETATM   18  C   UNK N   1      32.804  19.616  -5.117  0.00  0.00     0.026 A 
HETATM   19  C   UNK N   1      31.562  20.232  -4.914  0.00  0.00     0.031 A 
ENDBRANCH   9  13
ENDBRANCH   1   7
BRANCH   3  20
HETATM   20  C   UNK N   1      26.823  23.486  -6.508  0.00  0.00     0.058 A 
HETATM   21  C   UNK N   1      25.561  22.898  -6.321  0.00  0.00     0.031 A 
HETATM   22  C   UNK N   1      25.130  21.862  -7.155  0.00  0.00     0.002 A 
HETATM   23  C   UNK N   1      25.957  21.404  -8.183  0.00  0.00     0.000 A 
HETATM   24  C   UNK N   1      27.215  21.979  -8.376  0.00  0.00     0.002 A 
HETATM   25  C   UNK N   1      27.647  23.018  -7.544  0.00  0.00     0.031 A 
ENDBRANCH   3  20
BRANCH   5  26
HETATM   26  C   UNK N   1      27.305  28.099  -4.831  0.00  0.00    -0.007 C 
HETATM   27  C   UNK N   1      25.919  28.437  -4.319  0.00  0.00     0.021 C 
HETATM   28  C   UNK N   1      27.494  28.719  -6.202  0.00  0.00     0.021 C 
HETATM   29  C   UNK N   1      28.327  28.713  -3.885  0.00  0.00     0.021 C 
ENDBRANCH   5  26
TORSDOF 4
ENDMDL
MODEL 8
REMARK VINA RESULT:      -6.7      9.332     13.819
REMARK  4 active torsions:
REMARK  status: ('A' for Active; 'I' for Inactive)
REMARK    1  A    between atoms: C_7  and  N_8 
REMARK       I    between atoms: N_8  and  C_9 
REMARK       I    between atoms: C_9  and  N_11 
REMARK    2  A    between atoms: N_11  and  C_13 
REMARK    3  A    between atoms: N_15  and  C_22 
REMARK    4  A    between atoms: C_17  and  C_18 
ROOT
HETATM    1  C   UNK N   1      28.496  17.089   5.243  0.00  0.00     0.133 A 
HETATM    2  C   UNK N   1      29.303  16.715   6.305  0.00  0.00     0.077 A 
HETATM    3  N   UNK N   1      27.767  18.173   5.596  0.00  0.00    -0.240 N 
HETATM    4  N   UNK N   1      28.069  18.497   6.845  0.00  0.00    -0.295 N 
HETATM    5  C   UNK N   1      29.000  17.628   7.295  0.00  0.00     0.037 A 
HETATM    6  H   UNK N   1      27.682  19.245   7.357  0.00  0.00     0.187 HD
ENDROOT
BRANCH   1   7
HETATM    7  N   UNK N   1      28.419  16.490   4.094  0.00  0.00    -0.293 N 
HETATM    8  C   UNK N   1      27.430  15.610   3.746  0.00  0.00     0.326 C 
HETATM    9  N   UNK N   1      27.382  15.119   2.476  0.00  0.00    -0.309 N 
HETATM   10  O   UNK N   1      26.581  15.277   4.563  0.00  0.00    -0.247 OA
HETATM   11  H   UNK N   1      28.124  15.342   1.869  0.00  0.00     0.170 HD
ATOM     12  HN  UNK N   1      29.144  16.687   3.404  1.00  0.00     0.172 HD
BRANCH   9  13
HETATM   13  C   UNK N   1      26.325  14.301   1.970  0.00  0.00     0.036 A 
HETATM   14  C   UNK N   1      25.155  14.862   1.424  0.00  0.00     0.031 A 
HETATM   15  C   UNK N   1      24.144  14.051   0.912  0.00  0.00     0.026 A 
HETATM   16  C   UNK N   1      24.289  12.665   0.934  0.00  0.00     0.034 A 
HETATM   17 Cl   UNK N   1      23.014  11.653   0.294  0.00  0.00    -0.084 Cl
HETATM   18  C   UNK N   1      25.450  12.092   1.466  0.00  0.00     0.026 A 
HETATM   19  C   UNK N   1      26.468  12.908   1.978  0.00  0.00     0.031 A 
ENDBRANCH   9  13
ENDBRANCH   1   7
BRANCH   3  20
HETATM   20  C   UNK N   1      26.811  18.913   4.806  0.00  0.00     0.058 A 
HETATM   21  C   UNK N   1      27.258  19.930   3.947  0.00  0.00     0.031 A 
HETATM   22  C   UNK N   1      26.352  20.639   3.154  0.00  0.00     0.002 A 
HETATM   23  C   UNK N   1      24.989  20.338   3.212  0.00  0.00     0.000 A 
HETATM   24  C   UNK N   1      24.533  19.330   4.065  0.00  0.00     0.002 A 
HETATM   25  C   UNK N   1      25.439  18.618   4.857  0.00  0.00     0.031 A 
ENDBRANCH   3  20
BRANCH   5  26
HETATM   26  C   UNK N   1      29.601  17.659   8.676  0.00  0.00    -0.007 C 
HETATM   27  C   UNK N   1      30.798  16.731   8.728  0.00  0.00     0.021 C 
HETATM   28  C   UNK N   1      28.572  17.203   9.692  0.00  0.00     0.021 C 
HETATM   29  C   UNK N   1      30.062  19.057   9.058  0.00  0.00     0.021 C 
ENDBRANCH   5  26
TORSDOF 4
ENDMDL
MODEL 9
REMARK VINA RESULT:      -6.6      9.755     13.691
REMARK  4 active torsions:
REMARK  status: ('A' for Active; 'I' for Inactive)
REMARK    1  A    between atoms: C_7  and  N_8 
REMARK       I    between atoms: N_8  and  C_9 
REMARK       I    between atoms: C_9  and  N_11 
REMARK    2  A    between atoms: N_11  and  C_13 
REMARK    3  A    between atoms: N_15  and  C_22 
REMARK    4  A    between atoms: C_17  and  C_18 
ROOT
HETATM    1  C   UNK N   1      28.872  16.425   4.477  0.00  0.00     0.133 A 
HETATM    2  C   UNK N   1      30.069  15.753   4.286  0.00  0.00     0.077 A 
HETATM    3  N   UNK N   1      29.128  17.732   4.716  0.00  0.00    -0.240 N 
HETATM    4  N   UNK N   1      30.440  17.917   4.695  0.00  0.00    -0.295 N 
HETATM    5  C   UNK N   1      31.031  16.730   4.435  0.00  0.00     0.037 A 
HETATM    6  H   UNK N   1      30.905  18.773   4.844  0.00  0.00     0.187 HD
ENDROOT
BRANCH   1   7
HETATM    7  N   UNK N   1      27.687  15.896   4.460  0.00  0.00    -0.293 N 
HETATM    8  C   UNK N   1      27.122  15.302   3.365  0.00  0.00     0.326 C 
HETATM    9  N   UNK N   1      25.915  14.682   3.484  0.00  0.00    -0.309 N 
HETATM   10  O   UNK N   1      27.701  15.310   2.287  0.00  0.00    -0.247 OA
HETATM   11  H   UNK N   1      25.438  14.764   4.341  0.00  0.00     0.170 HD
ATOM     12  HN  UNK N   1      27.140  15.926   5.321  1.00  0.00     0.172 HD
BRANCH   9  13
HETATM   13  C   UNK N   1      25.296  13.922   2.444  0.00  0.00     0.036 A 
HETATM   14  C   UNK N   1      24.385  14.507   1.544  0.00  0.00     0.031 A 
HETATM   15  C   UNK N   1      23.810  13.759   0.519  0.00  0.00     0.026 A 
HETATM   16  C   UNK N   1      24.139  12.412   0.376  0.00  0.00     0.034 A 
HETATM   17 Cl   UNK N   1      23.408  11.478  -0.910  0.00  0.00    -0.084 Cl
HETATM   18  C   UNK N   1      25.049  11.817   1.257  0.00  0.00     0.026 A 
HETATM   19  C   UNK N   1      25.630  12.571   2.285  0.00  0.00     0.031 A 
ENDBRANCH   9  13
ENDBRANCH   1   7
BRANCH   3  20
HETATM   20  C   UNK N   1      28.192  18.806   4.951  0.00  0.00     0.058 A 
HETATM   21  C   UNK N   1      27.991  19.280   6.257  0.00  0.00     0.031 A 
HETATM   22  C   UNK N   1      27.110  20.338   6.501  0.00  0.00     0.002 A 
HETATM   23  C   UNK N   1      26.420  20.930   5.441  0.00  0.00     0.000 A 
HETATM   24  C   UNK N   1      26.610  20.464   4.138  0.00  0.00     0.002 A 
HETATM   25  C   UNK N   1      27.494  19.409   3.892  0.00  0.00     0.031 A 
ENDBRANCH   3  20
BRANCH   5  26
HETATM   26  C   UNK N   1      32.519  16.521   4.334  0.00  0.00    -0.007 C 
HETATM   27  C   UNK N   1      33.235  17.552   5.183  0.00  0.00     0.021 C 
HETATM   28  C   UNK N   1      32.961  16.670   2.891  0.00  0.00     0.021 C 
HETATM   29  C   UNK N   1      32.927  15.137   4.817  0.00  0.00     0.021 C 
ENDBRANCH   5  26
TORSDOF 4
ENDMDL
