REMARK  4 active torsions:
REMARK  status: ('A' for Active; 'I' for Inactive)
REMARK    1  A    between atoms: C_7  and  N_8 
REMARK       I    between atoms: N_8  and  C_9 
REMARK       I    between atoms: C_9  and  N_11 
REMARK    2  A    between atoms: N_11  and  C_13 
REMARK    3  A    between atoms: N_15  and  C_22 
REMARK    4  A    between atoms: C_17  and  C_18 
ROOT
HETATM    1  C   UNK N   1      -1.066  -0.400   0.050  0.00  0.00     0.133 A 
HETATM    2  C   UNK N   1       0.031  -1.244   0.114  0.00  0.00     0.077 A 
HETATM    3  N   UNK N   1      -2.192  -1.141  -0.071  0.00  0.00    -0.240 N 
HETATM    4  N   UNK N   1      -1.855  -2.422  -0.098  0.00  0.00    -0.295 N 
HETATM    5  C   UNK N   1      -0.511  -2.509   0.014  0.00  0.00     0.037 A 
HETATM    6  H   UNK N   1      -2.477  -3.181  -0.185  0.00  0.00     0.187 HD
ENDROOT
BRANCH   1   7
HETATM    7  N   UNK N   1      -1.035   0.897   0.074  0.00  0.00    -0.293 N 
HETATM    8  C   UNK N   1       0.108   1.641   0.186  0.00  0.00     0.326 C 
HETATM    9  N   UNK N   1       0.040   2.998   0.093  0.00  0.00    -0.309 N 
HETATM   10  O   UNK N   1       1.190   1.093   0.352  0.00  0.00    -0.247 OA
HETATM   11  H   UNK N   1      -0.852   3.411   0.042  0.00  0.00     0.170 HD
ATOM     12  HN  UNK N   1      -1.922   1.396   0.005  1.00  0.00     0.172 HD
BRANCH   9  13
HETATM   13  C   UNK N   1       1.180   3.860   0.066  0.00  0.00     0.036 A 
HETATM   14  C   UNK N   1       2.486   3.352  -0.066  0.00  0.00     0.031 A 
HETATM   15  C   UNK N   1       3.585   4.207  -0.116  0.00  0.00     0.026 A 
HETATM   16  C   UNK N   1       3.395   5.585  -0.039  0.00  0.00     0.034 A 
HETATM   17 Cl   UNK N   1       4.780   6.652  -0.097  0.00  0.00    -0.084 Cl
HETATM   18  C   UNK N   1       2.102   6.107   0.084  0.00  0.00     0.026 A 
HETATM   19  C   UNK N   1       0.997   5.247   0.131  0.00  0.00     0.031 A 
ENDBRANCH   9  13
ENDBRANCH   1   7
BRANCH   3  20
HETATM   20  C   UNK N   1      -3.562  -0.692  -0.152  0.00  0.00     0.058 A 
HETATM   21  C   UNK N   1      -4.600  -1.635  -0.225  0.00  0.00     0.031 A 
HETATM   22  C   UNK N   1      -5.934  -1.220  -0.276  0.00  0.00     0.002 A 
HETATM   23  C   UNK N   1      -6.243   0.142  -0.255  0.00  0.00     0.000 A 
HETATM   24  C   UNK N   1      -5.218   1.089  -0.185  0.00  0.00     0.002 A 
HETATM   25  C   UNK N   1      -3.883   0.675  -0.131  0.00  0.00     0.031 A 
ENDBRANCH   3  20
BRANCH   5  26
HETATM   26  C   UNK N   1       0.264  -3.800   0.019  0.00  0.00    -0.007 C 
HETATM   27  C   UNK N   1       0.092  -4.500  -1.314  0.00  0.00     0.021 C 
HETATM   28  C   UNK N   1      -0.249  -4.701   1.125  0.00  0.00     0.021 C 
HETATM   29  C   UNK N   1       1.750  -3.564   0.247  0.00  0.00     0.021 C 
ENDBRANCH   5  26
TORSDOF 4
