MODEL 1
REMARK VINA RESULT:      -6.3      0.000      0.000
REMARK  3 active torsions:
REMARK  status: ('A' for Active; 'I' for Inactive)
REMARK    1  A    between atoms: C_1  and  C_2 
REMARK    2  A    between atoms: C_2  and  C_3 
REMARK    3  A    between atoms: C_3  and  C_4 
ROOT
HETATM    1  C   UNK N   1      28.891  17.732   7.032  0.00  0.00    -0.030 A 
HETATM    2  C   UNK N   1      28.546  17.959   8.364  0.00  0.00     0.096 A 
HETATM    3  C   UNK N   1      28.342  18.994   4.937  0.00  0.00     0.014 A 
HETATM    4  C   UNK N   1      28.318  18.737   6.307  0.00  0.00    -0.002 A 
HETATM    5  C   UNK N   1      27.652  19.537   7.184  0.00  0.00     0.042 A 
HETATM    6  C   UNK N   1      26.953  20.664   6.760  0.00  0.00     0.030 A 
HETATM    7  C   UNK N   1      26.955  20.957   5.381  0.00  0.00     0.002 A 
HETATM    8  N   UNK N   1      27.780  19.078   8.446  0.00  0.00    -0.365 N 
HETATM    9  C   UNK N   1      27.648  20.123   4.473  0.00  0.00     0.001 A 
HETATM   10  H   UNK N   1      27.395  19.474   9.261  0.00  0.00     0.165 HD
ENDROOT
BRANCH   1  11
HETATM   11  C   UNK N   1      29.712  16.643   6.432  0.00  0.00     0.045 C 
BRANCH  11  12
HETATM   12  C   UNK N   1      31.154  16.990   6.089  0.00  0.00     0.043 C 
BRANCH  12  13
HETATM   13  C   UNK N   1      32.049  16.804   7.288  0.00  0.00    -0.055 A 
HETATM   14  C   UNK N   1      33.040  17.744   7.619  0.00  0.00     0.024 A 
HETATM   15  C   UNK N   1      33.849  17.537   8.735  0.00  0.00     0.088 A 
HETATM   16  N   UNK N   1      33.678  16.428   9.501  0.00  0.00    -0.375 N 
HETATM   17  C   UNK N   1      32.727  15.500   9.204  0.00  0.00     0.088 A 
ATOM     18  HN  UNK N   1      34.276  16.287  10.316  1.00  0.00     0.164 HD
HETATM   19  C   UNK N   1      31.896  15.672   8.092  0.00  0.00     0.024 A 
ENDBRANCH  12  13
ENDBRANCH  11  12
ENDBRANCH   1  11
TORSDOF 3
ENDMDL
MODEL 2
REMARK VINA RESULT:      -6.3      7.835     10.457
REMARK  3 active torsions:
REMARK  status: ('A' for Active; 'I' for Inactive)
REMARK    1  A    between atoms: C_1  and  C_2 
REMARK    2  A    between atoms: C_2  and  C_3 
REMARK    3  A    between atoms: C_3  and  C_4 
ROOT
HETATM    1  C   UNK N   1      21.091  13.299   9.732  0.00  0.00    -0.030 A 
HETATM    2  C   UNK N   1      20.335  12.722  10.751  0.00  0.00     0.096 A 
HETATM    3  C   UNK N   1      23.563  13.335   9.317  0.00  0.00     0.014 A 
HETATM    4  C   UNK N   1      22.396  13.006  10.005  0.00  0.00    -0.002 A 
HETATM    5  C   UNK N   1      22.413  12.276  11.154  0.00  0.00     0.042 A 
HETATM    6  C   UNK N   1      23.603  11.815  11.711  0.00  0.00     0.030 A 
HETATM    7  C   UNK N   1      24.804  12.129  11.043  0.00  0.00     0.002 A 
HETATM    8  N   UNK N   1      21.162  12.092  11.625  0.00  0.00    -0.365 N 
HETATM    9  C   UNK N   1      24.783  12.887   9.849  0.00  0.00     0.001 A 
HETATM   10  H   UNK N   1      20.903  11.601  12.438  0.00  0.00     0.165 HD
ENDROOT
BRANCH   1  11
HETATM   11  C   UNK N   1      20.651  14.089   8.548  0.00  0.00     0.045 C 
BRANCH  11  12
HETATM   12  C   UNK N   1      20.626  15.602   8.713  0.00  0.00     0.043 C 
BRANCH  12  13
HETATM   13  C   UNK N   1      21.266  16.280   7.527  0.00  0.00    -0.055 A 
HETATM   14  C   UNK N   1      22.309  15.673   6.808  0.00  0.00     0.024 A 
HETATM   15  C   UNK N   1      22.876  16.331   5.717  0.00  0.00     0.088 A 
HETATM   16  N   UNK N   1      22.418  17.557   5.351  0.00  0.00    -0.375 N 
HETATM   17  C   UNK N   1      21.409  18.169   6.029  0.00  0.00     0.088 A 
ATOM     18  HN  UNK N   1      22.841  18.029   4.551  1.00  0.00     0.164 HD
HETATM   19  C   UNK N   1      20.815  17.541   7.130  0.00  0.00     0.024 A 
ENDBRANCH  12  13
ENDBRANCH  11  12
ENDBRANCH   1  11
TORSDOF 3
ENDMDL
MODEL 3
REMARK VINA RESULT:      -6.3     11.276     13.341
REMARK  3 active torsions:
REMARK  status: ('A' for Active; 'I' for Inactive)
REMARK    1  A    between atoms: C_1  and  C_2 
REMARK    2  A    between atoms: C_2  and  C_3 
REMARK    3  A    between atoms: C_3  and  C_4 
ROOT
HETATM    1  C   UNK N   1      26.803  24.352  -4.292  0.00  0.00    -0.030 A 
HETATM    2  C   UNK N   1      26.283  23.704  -5.411  0.00  0.00     0.096 A 
HETATM    3  C   UNK N   1      26.479  26.682  -3.423  0.00  0.00     0.014 A 
HETATM    4  C   UNK N   1      26.290  25.617  -4.305  0.00  0.00    -0.002 A 
HETATM    5  C   UNK N   1      25.489  25.717  -5.401  0.00  0.00     0.042 A 
HETATM    6  C   UNK N   1      24.809  26.892  -5.707  0.00  0.00     0.030 A 
HETATM    7  C   UNK N   1      24.975  27.990  -4.838  0.00  0.00     0.002 A 
HETATM    8  N   UNK N   1      25.472  24.557  -6.090  0.00  0.00    -0.365 N 
HETATM    9  C   UNK N   1      25.808  27.884  -3.700  0.00  0.00     0.001 A 
HETATM   10  H   UNK N   1      24.973  24.368  -6.918  0.00  0.00     0.165 HD
ENDROOT
BRANCH   1  11
HETATM   11  C   UNK N   1      27.732  23.846  -3.243  0.00  0.00     0.045 C 
BRANCH  11  12
HETATM   12  C   UNK N   1      29.202  24.207  -3.407  0.00  0.00     0.043 C 
BRANCH  12  13
HETATM   13  C   UNK N   1      30.041  22.967  -3.585  0.00  0.00    -0.055 A 
HETATM   14  C   UNK N   1      29.818  22.074  -4.646  0.00  0.00     0.024 A 
HETATM   15  C   UNK N   1      30.614  20.937  -4.778  0.00  0.00     0.088 A 
HETATM   16  N   UNK N   1      31.604  20.695  -3.880  0.00  0.00    -0.375 N 
HETATM   17  C   UNK N   1      31.843  21.541  -2.841  0.00  0.00     0.088 A 
ATOM     18  HN  UNK N   1      32.180  19.859  -3.986  1.00  0.00     0.164 HD
HETATM   19  C   UNK N   1      31.066  22.693  -2.676  0.00  0.00     0.024 A 
ENDBRANCH  12  13
ENDBRANCH  11  12
ENDBRANCH   1  11
TORSDOF 3
ENDMDL
MODEL 4
REMARK VINA RESULT:      -6.2     12.478     15.526
REMARK  3 active torsions:
REMARK  status: ('A' for Active; 'I' for Inactive)
REMARK    1  A    between atoms: C_1  and  C_2 
REMARK    2  A    between atoms: C_2  and  C_3 
REMARK    3  A    between atoms: C_3  and  C_4 
ROOT
HETATM    1  C   UNK N   1      25.830  27.341  -5.335  0.00  0.00    -0.030 A 
HETATM    2  C   UNK N   1      25.316  27.890  -4.161  0.00  0.00     0.096 A 
HETATM    3  C   UNK N   1      27.641  28.125  -6.881  0.00  0.00     0.014 A 
HETATM    4  C   UNK N   1      26.808  28.191  -5.764  0.00  0.00    -0.002 A 
HETATM    5  C   UNK N   1      26.873  29.215  -4.870  0.00  0.00     0.042 A 
HETATM    6  C   UNK N   1      27.778  30.262  -5.021  0.00  0.00     0.030 A 
HETATM    7  C   UNK N   1      28.637  30.230  -6.138  0.00  0.00     0.002 A 
HETATM    8  N   UNK N   1      25.968  29.049  -3.883  0.00  0.00    -0.365 N 
HETATM    9  C   UNK N   1      28.567  29.164  -7.065  0.00  0.00     0.001 A 
HETATM   10  H   UNK N   1      25.813  29.647  -3.116  0.00  0.00     0.165 HD
ENDROOT
BRANCH   1  11
HETATM   11  C   UNK N   1      25.451  26.088  -6.047  0.00  0.00     0.045 C 
BRANCH  11  12
HETATM   12  C   UNK N   1      25.349  24.828  -5.197  0.00  0.00     0.043 C 
BRANCH  12  13
HETATM   13  C   UNK N   1      26.719  24.306  -4.848  0.00  0.00    -0.055 A 
HETATM   14  C   UNK N   1      27.590  23.810  -5.833  0.00  0.00     0.024 A 
HETATM   15  C   UNK N   1      28.850  23.335  -5.472  0.00  0.00     0.088 A 
HETATM   16  N   UNK N   1      29.234  23.354  -4.169  0.00  0.00    -0.375 N 
HETATM   17  C   UNK N   1      28.412  23.828  -3.193  0.00  0.00     0.088 A 
ATOM     18  HN  UNK N   1      30.159  23.004  -3.916  1.00  0.00     0.164 HD
HETATM   19  C   UNK N   1      27.140  24.313  -3.516  0.00  0.00     0.024 A 
ENDBRANCH  12  13
ENDBRANCH  11  12
ENDBRANCH   1  11
TORSDOF 3
ENDMDL
MODEL 5
REMARK VINA RESULT:      -6.1      2.087      2.729
REMARK  3 active torsions:
REMARK  status: ('A' for Active; 'I' for Inactive)
REMARK    1  A    between atoms: C_1  and  C_2 
REMARK    2  A    between atoms: C_2  and  C_3 
REMARK    3  A    between atoms: C_3  and  C_4 
ROOT
HETATM    1  C   UNK N   1      28.826  17.968   7.057  0.00  0.00    -0.030 A 
HETATM    2  C   UNK N   1      28.396  18.322   8.335  0.00  0.00     0.096 A 
HETATM    3  C   UNK N   1      28.299  18.928   4.802  0.00  0.00     0.014 A 
HETATM    4  C   UNK N   1      28.221  18.833   6.191  0.00  0.00    -0.002 A 
HETATM    5  C   UNK N   1      27.453  19.675   6.934  0.00  0.00     0.042 A 
HETATM    6  C   UNK N   1      26.697  20.686   6.347  0.00  0.00     0.030 A 
HETATM    7  C   UNK N   1      26.751  20.814   4.944  0.00  0.00     0.002 A 
HETATM    8  N   UNK N   1      27.546  19.379   8.247  0.00  0.00    -0.365 N 
HETATM    9  C   UNK N   1      27.550  19.937   4.175  0.00  0.00     0.001 A 
HETATM   10  H   UNK N   1      27.091  19.836   8.991  0.00  0.00     0.165 HD
ENDROOT
BRANCH   1  11
HETATM   11  C   UNK N   1      29.756  16.884   6.630  0.00  0.00     0.045 C 
BRANCH  11  12
HETATM   12  C   UNK N   1      31.244  17.176   6.756  0.00  0.00     0.043 C 
BRANCH  12  13
HETATM   13  C   UNK N   1      31.966  16.839   5.477  0.00  0.00    -0.055 A 
HETATM   14  C   UNK N   1      31.600  17.419   4.251  0.00  0.00     0.024 A 
HETATM   15  C   UNK N   1      32.291  17.082   3.088  0.00  0.00     0.088 A 
HETATM   16  N   UNK N   1      33.317  16.194   3.142  0.00  0.00    -0.375 N 
HETATM   17  C   UNK N   1      33.695  15.616   4.315  0.00  0.00     0.088 A 
ATOM     18  HN  UNK N   1      33.816  15.955   2.284  1.00  0.00     0.164 HD
HETATM   19  C   UNK N   1      33.025  15.928   5.503  0.00  0.00     0.024 A 
ENDBRANCH  12  13
ENDBRANCH  11  12
ENDBRANCH   1  11
TORSDOF 3
ENDMDL
MODEL 6
REMARK VINA RESULT:      -6.1      1.470      2.099
REMARK  3 active torsions:
REMARK  status: ('A' for Active; 'I' for Inactive)
REMARK    1  A    between atoms: C_1  and  C_2 
REMARK    2  A    between atoms: C_2  and  C_3 
REMARK    3  A    between atoms: C_3  and  C_4 
ROOT
HETATM    1  C   UNK N   1      29.214  17.840   6.624  0.00  0.00    -0.030 A 
HETATM    2  C   UNK N   1      29.689  17.303   5.429  0.00  0.00     0.096 A 
HETATM    3  C   UNK N   1      27.637  19.735   7.082  0.00  0.00     0.014 A 
HETATM    4  C   UNK N   1      28.378  18.864   6.283  0.00  0.00    -0.002 A 
HETATM    5  C   UNK N   1      28.358  18.932   4.923  0.00  0.00     0.042 A 
HETATM    6  C   UNK N   1      27.592  19.880   4.249  0.00  0.00     0.030 A 
HETATM    7  C   UNK N   1      26.830  20.778   5.024  0.00  0.00     0.002 A 
HETATM    8  N   UNK N   1      29.153  17.986   4.383  0.00  0.00    -0.365 N 
HETATM    9  C   UNK N   1      26.853  20.705   6.436  0.00  0.00     0.001 A 
HETATM   10  H   UNK N   1      29.313  17.823   3.425  0.00  0.00     0.165 HD
ENDROOT
BRANCH   1  11
HETATM   11  C   UNK N   1      29.505  17.442   8.030  0.00  0.00     0.045 C 
BRANCH  11  12
HETATM   12  C   UNK N   1      30.666  18.155   8.711  0.00  0.00     0.043 C 
BRANCH  12  13
HETATM   13  C   UNK N   1      31.977  17.496   8.360  0.00  0.00    -0.055 A 
HETATM   14  C   UNK N   1      33.119  18.252   8.048  0.00  0.00     0.024 A 
HETATM   15  C   UNK N   1      34.314  17.608   7.729  0.00  0.00     0.088 A 
HETATM   16  N   UNK N   1      34.371  16.250   7.721  0.00  0.00    -0.375 N 
HETATM   17  C   UNK N   1      33.280  15.492   8.019  0.00  0.00     0.088 A 
ATOM     18  HN  UNK N   1      35.250  15.789   7.486  1.00  0.00     0.164 HD
HETATM   19  C   UNK N   1      32.064  16.102   8.344  0.00  0.00     0.024 A 
ENDBRANCH  12  13
ENDBRANCH  11  12
ENDBRANCH   1  11
TORSDOF 3
ENDMDL
MODEL 7
REMARK VINA RESULT:      -6.0      1.674      5.817
REMARK  3 active torsions:
REMARK  status: ('A' for Active; 'I' for Inactive)
REMARK    1  A    between atoms: C_1  and  C_2 
REMARK    2  A    between atoms: C_2  and  C_3 
REMARK    3  A    between atoms: C_3  and  C_4 
ROOT
HETATM    1  C   UNK N   1      30.432  17.325   7.763  0.00  0.00    -0.030 A 
HETATM    2  C   UNK N   1      31.138  17.423   8.961  0.00  0.00     0.096 A 
HETATM    3  C   UNK N   1      31.208  17.242   5.380  0.00  0.00     0.014 A 
HETATM    4  C   UNK N   1      31.363  17.321   6.764  0.00  0.00    -0.002 A 
HETATM    5  C   UNK N   1      32.587  17.413   7.353  0.00  0.00     0.042 A 
HETATM    6  C   UNK N   1      33.760  17.433   6.604  0.00  0.00     0.030 A 
HETATM    7  C   UNK N   1      33.643  17.355   5.201  0.00  0.00     0.002 A 
HETATM    8  N   UNK N   1      32.470  17.476   8.696  0.00  0.00    -0.365 N 
HETATM    9  C   UNK N   1      32.371  17.260   4.592  0.00  0.00     0.001 A 
HETATM   10  H   UNK N   1      33.202  17.546   9.351  0.00  0.00     0.165 HD
ENDROOT
BRANCH   1  11
HETATM   11  C   UNK N   1      28.963  17.240   7.526  0.00  0.00     0.045 C 
BRANCH  11  12
HETATM   12  C   UNK N   1      28.151  18.489   7.839  0.00  0.00     0.043 C 
BRANCH  12  13
HETATM   13  C   UNK N   1      27.735  19.188   6.570  0.00  0.00    -0.055 A 
HETATM   14  C   UNK N   1      27.342  20.537   6.568  0.00  0.00     0.024 A 
HETATM   15  C   UNK N   1      26.964  21.150   5.375  0.00  0.00     0.088 A 
HETATM   16  N   UNK N   1      26.975  20.442   4.215  0.00  0.00    -0.375 N 
HETATM   17  C   UNK N   1      27.351  19.134   4.186  0.00  0.00     0.088 A 
ATOM     18  HN  UNK N   1      26.696  20.901   3.348  1.00  0.00     0.164 HD
HETATM   19  C   UNK N   1      27.737  18.484   5.364  0.00  0.00     0.024 A 
ENDBRANCH  12  13
ENDBRANCH  11  12
ENDBRANCH   1  11
TORSDOF 3
ENDMDL
MODEL 8
REMARK VINA RESULT:      -5.9     11.257     14.378
REMARK  3 active torsions:
REMARK  status: ('A' for Active; 'I' for Inactive)
REMARK    1  A    between atoms: C_1  and  C_2 
REMARK    2  A    between atoms: C_2  and  C_3 
REMARK    3  A    between atoms: C_3  and  C_4 
ROOT
HETATM    1  C   UNK N   1      29.644  23.258  -3.566  0.00  0.00    -0.030 A 
HETATM    2  C   UNK N   1      30.437  22.741  -2.542  0.00  0.00     0.096 A 
HETATM    3  C   UNK N   1      29.203  22.444  -5.896  0.00  0.00     0.014 A 
HETATM    4  C   UNK N   1      29.774  22.405  -4.624  0.00  0.00    -0.002 A 
HETATM    5  C   UNK N   1      30.620  21.411  -4.239  0.00  0.00     0.042 A 
HETATM    6  C   UNK N   1      30.964  20.370  -5.097  0.00  0.00     0.030 A 
HETATM    7  C   UNK N   1      30.406  20.375  -6.391  0.00  0.00     0.002 A 
HETATM    8  N   UNK N   1      31.035  21.598  -2.970  0.00  0.00    -0.365 N 
HETATM    9  C   UNK N   1      29.528  21.410  -6.789  0.00  0.00     0.001 A 
HETATM   10  H   UNK N   1      31.648  21.023  -2.457  0.00  0.00     0.165 HD
ENDROOT
BRANCH   1  11
HETATM   11  C   UNK N   1      28.796  24.483  -3.589  0.00  0.00     0.045 C 
BRANCH  11  12
HETATM   12  C   UNK N   1      27.310  24.285  -3.326  0.00  0.00     0.043 C 
BRANCH  12  13
HETATM   13  C   UNK N   1      26.505  25.405  -3.935  0.00  0.00    -0.055 A 
HETATM   14  C   UNK N   1      26.383  26.653  -3.300  0.00  0.00     0.024 A 
HETATM   15  C   UNK N   1      25.630  27.665  -3.894  0.00  0.00     0.088 A 
HETATM   16  N   UNK N   1      25.015  27.443  -5.084  0.00  0.00    -0.375 N 
HETATM   17  C   UNK N   1      25.115  26.245  -5.722  0.00  0.00     0.088 A 
ATOM     18  HN  UNK N   1      24.466  28.191  -5.510  1.00  0.00     0.164 HD
HETATM   19  C   UNK N   1      25.862  25.204  -5.158  0.00  0.00     0.024 A 
ENDBRANCH  12  13
ENDBRANCH  11  12
ENDBRANCH   1  11
TORSDOF 3
ENDMDL
MODEL 9
REMARK VINA RESULT:      -5.8     11.092     13.393
REMARK  3 active torsions:
REMARK  status: ('A' for Active; 'I' for Inactive)
REMARK    1  A    between atoms: C_1  and  C_2 
REMARK    2  A    between atoms: C_2  and  C_3 
REMARK    3  A    between atoms: C_3  and  C_4 
ROOT
HETATM    1  C   UNK N   1      35.293  13.151  17.144  0.00  0.00    -0.030 A 
HETATM    2  C   UNK N   1      35.287  14.140  18.126  0.00  0.00     0.096 A 
HETATM    3  C   UNK N   1      35.223  10.650  17.306  0.00  0.00     0.014 A 
HETATM    4  C   UNK N   1      35.240  11.955  17.799  0.00  0.00    -0.002 A 
HETATM    5  C   UNK N   1      35.203  12.227  19.132  0.00  0.00     0.042 A 
HETATM    6  C   UNK N   1      35.145  11.213  20.085  0.00  0.00     0.030 A 
HETATM    7  C   UNK N   1      35.125   9.881  19.624  0.00  0.00     0.002 A 
HETATM    8  N   UNK N   1      35.230  13.558  19.352  0.00  0.00    -0.365 N 
HETATM    9  C   UNK N   1      35.164   9.602  18.238  0.00  0.00     0.001 A 
HETATM   10  H   UNK N   1      35.213  14.014  20.224  0.00  0.00     0.165 HD
ENDROOT
BRANCH   1  11
HETATM   11  C   UNK N   1      35.346  13.281  15.660  0.00  0.00     0.045 C 
BRANCH  11  12
HETATM   12  C   UNK N   1      36.718  13.535  15.049  0.00  0.00     0.043 C 
BRANCH  12  13
HETATM   13  C   UNK N   1      37.075  12.448  14.066  0.00  0.00    -0.055 A 
HETATM   14  C   UNK N   1      36.921  12.629  12.682  0.00  0.00     0.024 A 
HETATM   15  C   UNK N   1      37.262  11.602  11.804  0.00  0.00     0.088 A 
HETATM   16  N   UNK N   1      37.743  10.427  12.288  0.00  0.00    -0.375 N 
HETATM   17  C   UNK N   1      37.903  10.223  13.624  0.00  0.00     0.088 A 
ATOM     18  HN  UNK N   1      37.989   9.682  11.636  1.00  0.00     0.164 HD
HETATM   19  C   UNK N   1      37.572  11.231  14.537  0.00  0.00     0.024 A 
ENDBRANCH  12  13
ENDBRANCH  11  12
ENDBRANCH   1  11
TORSDOF 3
ENDMDL
