MODEL 1
REMARK VINA RESULT:      -4.8      0.000      0.000
REMARK  14 active torsions:
REMARK  status: ('A' for Active; 'I' for Inactive)
REMARK    1  A    between atoms: N_1  and  C_3 
REMARK    2  A    between atoms: C_3  and  C_14 
REMARK    3  A    between atoms: C_4  and  C_14 
REMARK    4  A    between atoms: C_4  and  N_16 
REMARK    5  A    between atoms: C_5  and  C_6 
REMARK       I    between atoms: C_5  and  N_16 
REMARK    6  A    between atoms: C_6  and  C_20 
REMARK    7  A    between atoms: C_7  and  C_8 
REMARK    8  A    between atoms: C_7  and  C_20 
REMARK    9  A    between atoms: C_8  and  C_15 
REMARK   10  A    between atoms: C_9  and  C_10 
REMARK   11  A    between atoms: C_9  and  C_15 
REMARK   12  A    between atoms: C_10  and  C_11 
REMARK   13  A    between atoms: C_11  and  C_21 
REMARK   14  A    between atoms: C_17  and  C_21 
ROOT
HETATM    1  C   UNK N   1      33.956  17.898   8.530  0.00  0.00     0.217 C 
HETATM    2  N   UNK N   1      34.087  17.087   9.607  0.00  0.00    -0.361 N 
HETATM    3  O   UNK N   1      34.893  18.597   8.162  0.00  0.00    -0.274 OA
HETATM    4  H   UNK N   1      33.319  16.533   9.878  0.00  0.00     0.162 HD
ENDROOT
BRANCH   1   5
HETATM    5  C   UNK N   1      32.645  17.928   7.794  0.00  0.00     0.103 C 
BRANCH   5   6
HETATM    6  C   UNK N   1      32.736  17.392   6.369  0.00  0.00     0.009 C 
BRANCH   6   7
HETATM    7  C   UNK N   1      32.641  15.872   6.343  0.00  0.00     0.000 C 
BRANCH   7   8
HETATM    8  C   UNK N   1      31.229  15.412   6.674  0.00  0.00     0.000 C 
BRANCH   8   9
HETATM    9  C   UNK N   1      30.284  15.707   5.530  0.00  0.00     0.000 C 
BRANCH   9  10
HETATM   10  C   UNK N   1      28.954  16.210   6.070  0.00  0.00     0.000 C 
BRANCH  10  11
HETATM   11  C   UNK N   1      28.878  17.722   5.962  0.00  0.00     0.000 C 
BRANCH  11  12
HETATM   12  C   UNK N   1      28.882  18.336   7.352  0.00  0.00     0.000 C 
BRANCH  12  13
HETATM   13  C   UNK N   1      28.177  17.430   8.342  0.00  0.00    -0.000 C 
BRANCH  13  14
HETATM   14  C   UNK N   1      28.953  17.374   9.642  0.00  0.00    -0.005 C 
HETATM   15  C   UNK N   1      29.691  18.680   9.839  0.00  0.00     0.005 C 
ENDBRANCH  13  14
ENDBRANCH  12  13
ENDBRANCH  11  12
ENDBRANCH  10  11
ENDBRANCH   9  10
ENDBRANCH   8   9
ENDBRANCH   7   8
ENDBRANCH   6   7
ENDBRANCH   5   6
ENDBRANCH   1   5
BRANCH   2  16
HETATM   16  C   UNK N   1      35.309  16.999  10.376  0.00  0.00     0.125 C 
BRANCH  16  17
HETATM   17  C   UNK N   1      35.722  15.544  10.545  0.00  0.00     0.056 C 
BRANCH  17  18
HETATM   18  C   UNK N   1      34.827  14.761  11.514  0.00  0.00     0.312 C 
BRANCH  18  19
HETATM   19  N   UNK N   1      35.533  13.914  12.484  0.00  0.00     0.005 N 
HETATM   20  O   UNK N   1      34.638  13.126  13.126  0.00  0.00    -0.065 OA
HETATM   21  C   UNK N   1      36.447  13.055  11.755  0.00  0.00     0.355 C 
HETATM   22  C   UNK N   1      36.305  14.662  13.467  0.00  0.00     0.355 C 
ENDBRANCH  18  19
ENDBRANCH  17  18
ENDBRANCH  16  17
ENDBRANCH   2  16
TORSDOF 14
ENDMDL
MODEL 2
REMARK VINA RESULT:      -4.8      5.655      8.807
REMARK  14 active torsions:
REMARK  status: ('A' for Active; 'I' for Inactive)
REMARK    1  A    between atoms: N_1  and  C_3 
REMARK    2  A    between atoms: C_3  and  C_14 
REMARK    3  A    between atoms: C_4  and  C_14 
REMARK    4  A    between atoms: C_4  and  N_16 
REMARK    5  A    between atoms: C_5  and  C_6 
REMARK       I    between atoms: C_5  and  N_16 
REMARK    6  A    between atoms: C_6  and  C_20 
REMARK    7  A    between atoms: C_7  and  C_8 
REMARK    8  A    between atoms: C_7  and  C_20 
REMARK    9  A    between atoms: C_8  and  C_15 
REMARK   10  A    between atoms: C_9  and  C_10 
REMARK   11  A    between atoms: C_9  and  C_15 
REMARK   12  A    between atoms: C_10  and  C_11 
REMARK   13  A    between atoms: C_11  and  C_21 
REMARK   14  A    between atoms: C_17  and  C_21 
ROOT
HETATM    1  C   UNK N   1      35.745  14.151  13.012  0.00  0.00     0.217 C 
HETATM    2  N   UNK N   1      36.539  14.983  12.295  0.00  0.00    -0.361 N 
HETATM    3  O   UNK N   1      34.585  13.953  12.670  0.00  0.00    -0.274 OA
HETATM    4  H   UNK N   1      37.468  15.121  12.590  0.00  0.00     0.162 HD
ENDROOT
BRANCH   1   5
HETATM    5  C   UNK N   1      36.308  13.478  14.233  0.00  0.00     0.103 C 
BRANCH   5   6
HETATM    6  C   UNK N   1      36.869  14.454  15.262  0.00  0.00     0.009 C 
BRANCH   6   7
HETATM    7  C   UNK N   1      36.297  14.184  16.648  0.00  0.00     0.000 C 
BRANCH   7   8
HETATM    8  C   UNK N   1      35.123  13.221  16.572  0.00  0.00     0.000 C 
BRANCH   8   9
HETATM    9  C   UNK N   1      35.231  12.155  17.641  0.00  0.00     0.000 C 
BRANCH   9  10
HETATM   10  C   UNK N   1      35.699  10.846  17.025  0.00  0.00     0.000 C 
BRANCH  10  11
HETATM   11  C   UNK N   1      34.561  10.179  16.273  0.00  0.00     0.000 C 
BRANCH  11  12
HETATM   12  C   UNK N   1      34.972   9.936  14.831  0.00  0.00     0.000 C 
BRANCH  12  13
HETATM   13  C   UNK N   1      33.966  10.544  13.875  0.00  0.00    -0.000 C 
BRANCH  13  14
HETATM   14  C   UNK N   1      34.508  10.518  12.461  0.00  0.00    -0.005 C 
HETATM   15  C   UNK N   1      33.505   9.838  11.554  0.00  0.00     0.005 C 
ENDBRANCH  13  14
ENDBRANCH  12  13
ENDBRANCH  11  12
ENDBRANCH  10  11
ENDBRANCH   9  10
ENDBRANCH   8   9
ENDBRANCH   7   8
ENDBRANCH   6   7
ENDBRANCH   5   6
ENDBRANCH   1   5
BRANCH   2  16
HETATM   16  C   UNK N   1      36.078  15.676  11.112  0.00  0.00     0.125 C 
BRANCH  16  17
HETATM   17  C   UNK N   1      36.331  14.829   9.873  0.00  0.00     0.056 C 
BRANCH  17  18
HETATM   18  C   UNK N   1      37.749  14.248   9.806  0.00  0.00     0.312 C 
BRANCH  18  19
HETATM   19  N   UNK N   1      37.844  12.792   9.972  0.00  0.00     0.005 N 
HETATM   20  O   UNK N   1      38.167  12.508  11.257  0.00  0.00    -0.065 OA
HETATM   21  C   UNK N   1      36.540  12.218   9.699  0.00  0.00     0.355 C 
HETATM   22  C   UNK N   1      38.810  12.160   9.084  0.00  0.00     0.355 C 
ENDBRANCH  18  19
ENDBRANCH  17  18
ENDBRANCH  16  17
ENDBRANCH   2  16
TORSDOF 14
ENDMDL
MODEL 3
REMARK VINA RESULT:      -4.6      1.901      3.135
REMARK  14 active torsions:
REMARK  status: ('A' for Active; 'I' for Inactive)
REMARK    1  A    between atoms: N_1  and  C_3 
REMARK    2  A    between atoms: C_3  and  C_14 
REMARK    3  A    between atoms: C_4  and  C_14 
REMARK    4  A    between atoms: C_4  and  N_16 
REMARK    5  A    between atoms: C_5  and  C_6 
REMARK       I    between atoms: C_5  and  N_16 
REMARK    6  A    between atoms: C_6  and  C_20 
REMARK    7  A    between atoms: C_7  and  C_8 
REMARK    8  A    between atoms: C_7  and  C_20 
REMARK    9  A    between atoms: C_8  and  C_15 
REMARK   10  A    between atoms: C_9  and  C_10 
REMARK   11  A    between atoms: C_9  and  C_15 
REMARK   12  A    between atoms: C_10  and  C_11 
REMARK   13  A    between atoms: C_11  and  C_21 
REMARK   14  A    between atoms: C_17  and  C_21 
ROOT
HETATM    1  C   UNK N   1      34.358  18.072   8.495  0.00  0.00     0.217 C 
HETATM    2  N   UNK N   1      34.386  17.142   9.480  0.00  0.00    -0.361 N 
HETATM    3  O   UNK N   1      35.201  18.961   8.458  0.00  0.00    -0.274 OA
HETATM    4  H   UNK N   1      33.699  16.436   9.483  0.00  0.00     0.162 HD
ENDROOT
BRANCH   1   5
HETATM    5  C   UNK N   1      33.279  17.996   7.450  0.00  0.00     0.103 C 
BRANCH   5   6
HETATM    6  C   UNK N   1      32.259  16.893   7.709  0.00  0.00     0.009 C 
BRANCH   6   7
HETATM    7  C   UNK N   1      30.841  17.377   7.438  0.00  0.00     0.000 C 
BRANCH   7   8
HETATM    8  C   UNK N   1      30.243  18.026   8.677  0.00  0.00     0.000 C 
BRANCH   8   9
HETATM    9  C   UNK N   1      28.954  18.745   8.340  0.00  0.00     0.000 C 
BRANCH   9  10
HETATM   10  C   UNK N   1      28.548  18.441   6.906  0.00  0.00     0.000 C 
BRANCH  10  11
HETATM   11  C   UNK N   1      27.452  19.389   6.456  0.00  0.00     0.000 C 
BRANCH  11  12
HETATM   12  C   UNK N   1      27.961  20.258   5.319  0.00  0.00     0.000 C 
BRANCH  12  13
HETATM   13  C   UNK N   1      27.244  19.926   4.026  0.00  0.00    -0.000 C 
BRANCH  13  14
HETATM   14  C   UNK N   1      25.847  19.418   4.319  0.00  0.00    -0.005 C 
HETATM   15  C   UNK N   1      25.570  18.200   3.466  0.00  0.00     0.005 C 
ENDBRANCH  13  14
ENDBRANCH  12  13
ENDBRANCH  11  12
ENDBRANCH  10  11
ENDBRANCH   9  10
ENDBRANCH   8   9
ENDBRANCH   7   8
ENDBRANCH   6   7
ENDBRANCH   5   6
ENDBRANCH   1   5
BRANCH   2  16
HETATM   16  C   UNK N   1      35.383  17.141  10.527  0.00  0.00     0.125 C 
BRANCH  16  17
HETATM   17  C   UNK N   1      35.936  15.738  10.728  0.00  0.00     0.056 C 
BRANCH  17  18
HETATM   18  C   UNK N   1      35.145  14.906  11.745  0.00  0.00     0.312 C 
BRANCH  18  19
HETATM   19  N   UNK N   1      35.895  13.829  12.402  0.00  0.00     0.005 N 
HETATM   20  O   UNK N   1      37.021  13.570  11.695  0.00  0.00    -0.065 OA
HETATM   21  C   UNK N   1      36.289  14.290  13.721  0.00  0.00     0.355 C 
HETATM   22  C   UNK N   1      35.136  12.596  12.564  0.00  0.00     0.355 C 
ENDBRANCH  18  19
ENDBRANCH  17  18
ENDBRANCH  16  17
ENDBRANCH   2  16
TORSDOF 14
ENDMDL
MODEL 4
REMARK VINA RESULT:      -4.5     14.974     18.250
REMARK  14 active torsions:
REMARK  status: ('A' for Active; 'I' for Inactive)
REMARK    1  A    between atoms: N_1  and  C_3 
REMARK    2  A    between atoms: C_3  and  C_14 
REMARK    3  A    between atoms: C_4  and  C_14 
REMARK    4  A    between atoms: C_4  and  N_16 
REMARK    5  A    between atoms: C_5  and  C_6 
REMARK       I    between atoms: C_5  and  N_16 
REMARK    6  A    between atoms: C_6  and  C_20 
REMARK    7  A    between atoms: C_7  and  C_8 
REMARK    8  A    between atoms: C_7  and  C_20 
REMARK    9  A    between atoms: C_8  and  C_15 
REMARK   10  A    between atoms: C_9  and  C_10 
REMARK   11  A    between atoms: C_9  and  C_15 
REMARK   12  A    between atoms: C_10  and  C_11 
REMARK   13  A    between atoms: C_11  and  C_21 
REMARK   14  A    between atoms: C_17  and  C_21 
ROOT
HETATM    1  C   UNK N   1      25.763  25.314  -5.537  0.00  0.00     0.217 C 
HETATM    2  N   UNK N   1      27.106  25.334  -5.714  0.00  0.00    -0.361 N 
HETATM    3  O   UNK N   1      25.207  24.307  -5.115  0.00  0.00    -0.274 OA
HETATM    4  H   UNK N   1      27.527  26.158  -6.050  0.00  0.00     0.162 HD
ENDROOT
BRANCH   1   5
HETATM    5  C   UNK N   1      24.966  26.546  -5.867  0.00  0.00     0.103 C 
BRANCH   5   6
HETATM    6  C   UNK N   1      25.583  27.832  -5.327  0.00  0.00     0.009 C 
BRANCH   6   7
HETATM    7  C   UNK N   1      25.584  27.847  -3.804  0.00  0.00     0.000 C 
BRANCH   7   8
HETATM    8  C   UNK N   1      26.681  28.755  -3.270  0.00  0.00     0.000 C 
BRANCH   8   9
HETATM    9  C   UNK N   1      26.548  30.152  -3.837  0.00  0.00     0.000 C 
BRANCH   9  10
HETATM   10  C   UNK N   1      27.728  30.459  -4.746  0.00  0.00     0.000 C 
BRANCH  10  11
HETATM   11  C   UNK N   1      28.892  29.537  -4.430  0.00  0.00     0.000 C 
BRANCH  11  12
HETATM   12  C   UNK N   1      29.404  28.900  -5.711  0.00  0.00     0.000 C 
BRANCH  12  13
HETATM   13  C   UNK N   1      28.555  29.317  -6.895  0.00  0.00    -0.000 C 
BRANCH  13  14
HETATM   14  C   UNK N   1      28.156  28.100  -7.705  0.00  0.00    -0.005 C 
HETATM   15  C   UNK N   1      29.403  27.361  -8.141  0.00  0.00     0.005 C 
ENDBRANCH  13  14
ENDBRANCH  12  13
ENDBRANCH  11  12
ENDBRANCH  10  11
ENDBRANCH   9  10
ENDBRANCH   8   9
ENDBRANCH   7   8
ENDBRANCH   6   7
ENDBRANCH   5   6
ENDBRANCH   1   5
BRANCH   2  16
HETATM   16  C   UNK N   1      27.949  24.193  -5.428  0.00  0.00     0.125 C 
BRANCH  16  17
HETATM   17  C   UNK N   1      29.034  24.577  -4.432  0.00  0.00     0.056 C 
BRANCH  17  18
HETATM   18  C   UNK N   1      29.123  23.631  -3.228  0.00  0.00     0.312 C 
BRANCH  18  19
HETATM   19  N   UNK N   1      30.424  22.980  -3.029  0.00  0.00     0.005 N 
HETATM   20  O   UNK N   1      30.752  23.025  -1.715  0.00  0.00    -0.065 OA
HETATM   21  C   UNK N   1      30.298  21.587  -3.413  0.00  0.00     0.355 C 
HETATM   22  C   UNK N   1      31.503  23.568  -3.812  0.00  0.00     0.355 C 
ENDBRANCH  18  19
ENDBRANCH  17  18
ENDBRANCH  16  17
ENDBRANCH   2  16
TORSDOF 14
ENDMDL
MODEL 5
REMARK VINA RESULT:      -4.5     13.885     16.805
REMARK  14 active torsions:
REMARK  status: ('A' for Active; 'I' for Inactive)
REMARK    1  A    between atoms: N_1  and  C_3 
REMARK    2  A    between atoms: C_3  and  C_14 
REMARK    3  A    between atoms: C_4  and  C_14 
REMARK    4  A    between atoms: C_4  and  N_16 
REMARK    5  A    between atoms: C_5  and  C_6 
REMARK       I    between atoms: C_5  and  N_16 
REMARK    6  A    between atoms: C_6  and  C_20 
REMARK    7  A    between atoms: C_7  and  C_8 
REMARK    8  A    between atoms: C_7  and  C_20 
REMARK    9  A    between atoms: C_8  and  C_15 
REMARK   10  A    between atoms: C_9  and  C_10 
REMARK   11  A    between atoms: C_9  and  C_15 
REMARK   12  A    between atoms: C_10  and  C_11 
REMARK   13  A    between atoms: C_11  and  C_21 
REMARK   14  A    between atoms: C_17  and  C_21 
ROOT
HETATM    1  C   UNK N   1      29.717  22.693  -2.325  0.00  0.00     0.217 C 
HETATM    2  N   UNK N   1      29.760  21.786  -3.331  0.00  0.00    -0.361 N 
HETATM    3  O   UNK N   1      30.730  22.961  -1.689  0.00  0.00    -0.274 OA
HETATM    4  H   UNK N   1      28.932  21.593  -3.829  0.00  0.00     0.162 HD
ENDROOT
BRANCH   1   5
HETATM    5  C   UNK N   1      28.411  23.364  -2.002  0.00  0.00     0.103 C 
BRANCH   5   6
HETATM    6  C   UNK N   1      27.646  23.830  -3.236  0.00  0.00     0.009 C 
BRANCH   6   7
HETATM    7  C   UNK N   1      28.331  25.020  -3.894  0.00  0.00     0.000 C 
BRANCH   7   8
HETATM    8  C   UNK N   1      28.259  24.919  -5.410  0.00  0.00     0.000 C 
BRANCH   8   9
HETATM    9  C   UNK N   1      26.863  24.544  -5.859  0.00  0.00     0.000 C 
BRANCH   9  10
HETATM   10  C   UNK N   1      26.171  25.752  -6.471  0.00  0.00     0.000 C 
BRANCH  10  11
HETATM   11  C   UNK N   1      25.028  26.212  -5.584  0.00  0.00     0.000 C 
BRANCH  11  12
HETATM   12  C   UNK N   1      25.288  27.632  -5.109  0.00  0.00     0.000 C 
BRANCH  12  13
HETATM   13  C   UNK N   1      25.737  27.641  -3.662  0.00  0.00    -0.000 C 
BRANCH  13  14
HETATM   14  C   UNK N   1      26.624  28.841  -3.399  0.00  0.00    -0.005 C 
HETATM   15  C   UNK N   1      27.809  28.801  -4.340  0.00  0.00     0.005 C 
ENDBRANCH  13  14
ENDBRANCH  12  13
ENDBRANCH  11  12
ENDBRANCH  10  11
ENDBRANCH   9  10
ENDBRANCH   8   9
ENDBRANCH   7   8
ENDBRANCH   6   7
ENDBRANCH   5   6
ENDBRANCH   1   5
BRANCH   2  16
HETATM   16  C   UNK N   1      30.970  21.090  -3.706  0.00  0.00     0.125 C 
BRANCH  16  17
HETATM   17  C   UNK N   1      31.434  21.542  -5.083  0.00  0.00     0.056 C 
BRANCH  17  18
HETATM   18  C   UNK N   1      31.179  20.507  -6.186  0.00  0.00     0.312 C 
BRANCH  18  19
HETATM   19  N   UNK N   1      30.041  20.792  -7.071  0.00  0.00     0.005 N 
HETATM   20  O   UNK N   1      29.156  21.585  -6.421  0.00  0.00    -0.065 OA
HETATM   21  C   UNK N   1      30.535  21.520  -8.225  0.00  0.00     0.355 C 
HETATM   22  C   UNK N   1      29.355  19.599  -7.550  0.00  0.00     0.355 C 
ENDBRANCH  18  19
ENDBRANCH  17  18
ENDBRANCH  16  17
ENDBRANCH   2  16
TORSDOF 14
ENDMDL
MODEL 6
REMARK VINA RESULT:      -4.4      3.001      8.840
REMARK  14 active torsions:
REMARK  status: ('A' for Active; 'I' for Inactive)
REMARK    1  A    between atoms: N_1  and  C_3 
REMARK    2  A    between atoms: C_3  and  C_14 
REMARK    3  A    between atoms: C_4  and  C_14 
REMARK    4  A    between atoms: C_4  and  N_16 
REMARK    5  A    between atoms: C_5  and  C_6 
REMARK       I    between atoms: C_5  and  N_16 
REMARK    6  A    between atoms: C_6  and  C_20 
REMARK    7  A    between atoms: C_7  and  C_8 
REMARK    8  A    between atoms: C_7  and  C_20 
REMARK    9  A    between atoms: C_8  and  C_15 
REMARK   10  A    between atoms: C_9  and  C_10 
REMARK   11  A    between atoms: C_9  and  C_15 
REMARK   12  A    between atoms: C_10  and  C_11 
REMARK   13  A    between atoms: C_11  and  C_21 
REMARK   14  A    between atoms: C_17  and  C_21 
ROOT
HETATM    1  C   UNK N   1      35.656  13.825  12.155  0.00  0.00     0.217 C 
HETATM    2  N   UNK N   1      35.930  15.087  11.745  0.00  0.00    -0.361 N 
HETATM    3  O   UNK N   1      35.684  12.894  11.358  0.00  0.00    -0.274 OA
HETATM    4  H   UNK N   1      35.905  15.815  12.408  0.00  0.00     0.162 HD
ENDROOT
BRANCH   1   5
HETATM    5  C   UNK N   1      35.318  13.584  13.600  0.00  0.00     0.103 C 
BRANCH   5   6
HETATM    6  C   UNK N   1      36.447  13.953  14.558  0.00  0.00     0.009 C 
BRANCH   6   7
HETATM    7  C   UNK N   1      36.621  12.896  15.640  0.00  0.00     0.000 C 
BRANCH   7   8
HETATM    8  C   UNK N   1      35.350  12.746  16.462  0.00  0.00     0.000 C 
BRANCH   8   9
HETATM    9  C   UNK N   1      35.173  11.316  16.927  0.00  0.00     0.000 C 
BRANCH   9  10
HETATM   10  C   UNK N   1      34.936  10.407  15.731  0.00  0.00     0.000 C 
BRANCH  10  11
HETATM   11  C   UNK N   1      33.737  10.885  14.933  0.00  0.00     0.000 C 
BRANCH  11  12
HETATM   12  C   UNK N   1      33.866  10.428  13.490  0.00  0.00     0.000 C 
BRANCH  12  13
HETATM   13  C   UNK N   1      35.130   9.616  13.295  0.00  0.00    -0.000 C 
BRANCH  13  14
HETATM   14  C   UNK N   1      35.027   8.787  12.030  0.00  0.00    -0.005 C 
HETATM   15  C   UNK N   1      33.828   9.245  11.230  0.00  0.00     0.005 C 
ENDBRANCH  13  14
ENDBRANCH  12  13
ENDBRANCH  11  12
ENDBRANCH  10  11
ENDBRANCH   9  10
ENDBRANCH   8   9
ENDBRANCH   7   8
ENDBRANCH   6   7
ENDBRANCH   5   6
ENDBRANCH   1   5
BRANCH   2  16
HETATM   16  C   UNK N   1      36.259  15.410  10.375  0.00  0.00     0.125 C 
BRANCH  16  17
HETATM   17  C   UNK N   1      34.991  15.696   9.582  0.00  0.00     0.056 C 
BRANCH  17  18
HETATM   18  C   UNK N   1      34.705  17.192   9.402  0.00  0.00     0.312 C 
BRANCH  18  19
HETATM   19  N   UNK N   1      34.157  17.578   8.095  0.00  0.00     0.005 N 
HETATM   20  O   UNK N   1      34.913  18.571   7.569  0.00  0.00    -0.065 OA
HETATM   21  C   UNK N   1      34.243  16.431   7.211  0.00  0.00     0.355 C 
HETATM   22  C   UNK N   1      32.766  18.008   8.143  0.00  0.00     0.355 C 
ENDBRANCH  18  19
ENDBRANCH  17  18
ENDBRANCH  16  17
ENDBRANCH   2  16
TORSDOF 14
ENDMDL
MODEL 7
REMARK VINA RESULT:      -4.4      4.520     10.214
REMARK  14 active torsions:
REMARK  status: ('A' for Active; 'I' for Inactive)
REMARK    1  A    between atoms: N_1  and  C_3 
REMARK    2  A    between atoms: C_3  and  C_14 
REMARK    3  A    between atoms: C_4  and  C_14 
REMARK    4  A    between atoms: C_4  and  N_16 
REMARK    5  A    between atoms: C_5  and  C_6 
REMARK       I    between atoms: C_5  and  N_16 
REMARK    6  A    between atoms: C_6  and  C_20 
REMARK    7  A    between atoms: C_7  and  C_8 
REMARK    8  A    between atoms: C_7  and  C_20 
REMARK    9  A    between atoms: C_8  and  C_15 
REMARK   10  A    between atoms: C_9  and  C_10 
REMARK   11  A    between atoms: C_9  and  C_15 
REMARK   12  A    between atoms: C_10  and  C_11 
REMARK   13  A    between atoms: C_11  and  C_21 
REMARK   14  A    between atoms: C_17  and  C_21 
ROOT
HETATM    1  C   UNK N   1      36.178  13.410  14.395  0.00  0.00     0.217 C 
HETATM    2  N   UNK N   1      35.704  13.582  13.138  0.00  0.00    -0.361 N 
HETATM    3  O   UNK N   1      36.879  14.269  14.917  0.00  0.00    -0.274 OA
HETATM    4  H   UNK N   1      35.140  12.877  12.744  0.00  0.00     0.162 HD
ENDROOT
BRANCH   1   5
HETATM    5  C   UNK N   1      35.831  12.151  15.140  0.00  0.00     0.103 C 
BRANCH   5   6
HETATM    6  C   UNK N   1      34.356  11.773  15.040  0.00  0.00     0.009 C 
BRANCH   6   7
HETATM    7  C   UNK N   1      34.129  10.323  15.448  0.00  0.00     0.000 C 
BRANCH   7   8
HETATM    8  C   UNK N   1      35.220   9.848  16.395  0.00  0.00     0.000 C 
BRANCH   8   9
HETATM    9  C   UNK N   1      34.622   9.289  17.668  0.00  0.00     0.000 C 
BRANCH   9  10
HETATM   10  C   UNK N   1      35.716   9.063  18.701  0.00  0.00     0.000 C 
BRANCH  10  11
HETATM   11  C   UNK N   1      36.233  10.392  19.222  0.00  0.00     0.000 C 
BRANCH  11  12
HETATM   12  C   UNK N   1      35.122  11.120  19.959  0.00  0.00     0.000 C 
BRANCH  12  13
HETATM   13  C   UNK N   1      35.265  12.621  19.800  0.00  0.00    -0.000 C 
BRANCH  13  14
HETATM   14  C   UNK N   1      35.171  13.001  18.337  0.00  0.00    -0.005 C 
HETATM   15  C   UNK N   1      35.368  14.495  18.196  0.00  0.00     0.005 C 
ENDBRANCH  13  14
ENDBRANCH  12  13
ENDBRANCH  11  12
ENDBRANCH  10  11
ENDBRANCH   9  10
ENDBRANCH   8   9
ENDBRANCH   7   8
ENDBRANCH   6   7
ENDBRANCH   5   6
ENDBRANCH   1   5
BRANCH   2  16
HETATM   16  C   UNK N   1      35.993  14.758  12.347  0.00  0.00     0.125 C 
BRANCH  16  17
HETATM   17  C   UNK N   1      34.756  15.187  11.571  0.00  0.00     0.056 C 
BRANCH  17  18
HETATM   18  C   UNK N   1      35.056  16.179  10.439  0.00  0.00     0.312 C 
BRANCH  18  19
HETATM   19  N   UNK N   1      34.148  16.117   9.287  0.00  0.00     0.005 N 
HETATM   20  O   UNK N   1      33.759  17.371   8.955  0.00  0.00    -0.065 OA
HETATM   21  C   UNK N   1      34.879  15.561   8.163  0.00  0.00     0.355 C 
HETATM   22  C   UNK N   1      32.969  15.292   9.509  0.00  0.00     0.355 C 
ENDBRANCH  18  19
ENDBRANCH  17  18
ENDBRANCH  16  17
ENDBRANCH   2  16
TORSDOF 14
ENDMDL
MODEL 8
REMARK VINA RESULT:      -4.4     14.285     17.304
REMARK  14 active torsions:
REMARK  status: ('A' for Active; 'I' for Inactive)
REMARK    1  A    between atoms: N_1  and  C_3 
REMARK    2  A    between atoms: C_3  and  C_14 
REMARK    3  A    between atoms: C_4  and  C_14 
REMARK    4  A    between atoms: C_4  and  N_16 
REMARK    5  A    between atoms: C_5  and  C_6 
REMARK       I    between atoms: C_5  and  N_16 
REMARK    6  A    between atoms: C_6  and  C_20 
REMARK    7  A    between atoms: C_7  and  C_8 
REMARK    8  A    between atoms: C_7  and  C_20 
REMARK    9  A    between atoms: C_8  and  C_15 
REMARK   10  A    between atoms: C_9  and  C_10 
REMARK   11  A    between atoms: C_9  and  C_15 
REMARK   12  A    between atoms: C_10  and  C_11 
REMARK   13  A    between atoms: C_11  and  C_21 
REMARK   14  A    between atoms: C_17  and  C_21 
ROOT
HETATM    1  C   UNK N   1      29.941  24.935  -3.784  0.00  0.00     0.217 C 
HETATM    2  N   UNK N   1      29.498  23.679  -3.535  0.00  0.00    -0.361 N 
HETATM    3  O   UNK N   1      30.868  25.406  -3.136  0.00  0.00    -0.274 OA
HETATM    4  H   UNK N   1      28.754  23.324  -4.074  0.00  0.00     0.162 HD
ENDROOT
BRANCH   1   5
HETATM    5  C   UNK N   1      29.278  25.741  -4.867  0.00  0.00     0.103 C 
BRANCH   5   6
HETATM    6  C   UNK N   1      29.434  27.247  -4.684  0.00  0.00     0.009 C 
BRANCH   6   7
HETATM    7  C   UNK N   1      28.241  27.840  -3.945  0.00  0.00     0.000 C 
BRANCH   7   8
HETATM    8  C   UNK N   1      27.638  28.996  -4.728  0.00  0.00     0.000 C 
BRANCH   8   9
HETATM    9  C   UNK N   1      26.167  29.153  -4.409  0.00  0.00     0.000 C 
BRANCH   9  10
HETATM   10  C   UNK N   1      25.554  27.796  -4.101  0.00  0.00     0.000 C 
BRANCH  10  11
HETATM   11  C   UNK N   1      24.976  27.179  -5.362  0.00  0.00     0.000 C 
BRANCH  11  12
HETATM   12  C   UNK N   1      25.382  25.717  -5.450  0.00  0.00     0.000 C 
BRANCH  12  13
HETATM   13  C   UNK N   1      26.074  25.430  -6.767  0.00  0.00    -0.000 C 
BRANCH  13  14
HETATM   14  C   UNK N   1      26.168  26.696  -7.594  0.00  0.00    -0.005 C 
HETATM   15  C   UNK N   1      27.613  26.936  -7.975  0.00  0.00     0.005 C 
ENDBRANCH  13  14
ENDBRANCH  12  13
ENDBRANCH  11  12
ENDBRANCH  10  11
ENDBRANCH   9  10
ENDBRANCH   8   9
ENDBRANCH   7   8
ENDBRANCH   6   7
ENDBRANCH   5   6
ENDBRANCH   1   5
BRANCH   2  16
HETATM   16  C   UNK N   1      30.073  22.836  -2.510  0.00  0.00     0.125 C 
BRANCH  16  17
HETATM   17  C   UNK N   1      30.479  21.493  -3.099  0.00  0.00     0.056 C 
BRANCH  17  18
HETATM   18  C   UNK N   1      31.582  21.597  -4.160  0.00  0.00     0.312 C 
BRANCH  18  19
HETATM   19  N   UNK N   1      31.149  21.373  -5.546  0.00  0.00     0.005 N 
HETATM   20  O   UNK N   1      29.798  21.285  -5.585  0.00  0.00    -0.065 OA
HETATM   21  C   UNK N   1      31.548  22.522  -6.336  0.00  0.00     0.355 C 
HETATM   22  C   UNK N   1      31.725  20.183  -6.158  0.00  0.00     0.355 C 
ENDBRANCH  18  19
ENDBRANCH  17  18
ENDBRANCH  16  17
ENDBRANCH   2  16
TORSDOF 14
ENDMDL
MODEL 9
REMARK VINA RESULT:      -4.4     14.766     17.874
REMARK  14 active torsions:
REMARK  status: ('A' for Active; 'I' for Inactive)
REMARK    1  A    between atoms: N_1  and  C_3 
REMARK    2  A    between atoms: C_3  and  C_14 
REMARK    3  A    between atoms: C_4  and  C_14 
REMARK    4  A    between atoms: C_4  and  N_16 
REMARK    5  A    between atoms: C_5  and  C_6 
REMARK       I    between atoms: C_5  and  N_16 
REMARK    6  A    between atoms: C_6  and  C_20 
REMARK    7  A    between atoms: C_7  and  C_8 
REMARK    8  A    between atoms: C_7  and  C_20 
REMARK    9  A    between atoms: C_8  and  C_15 
REMARK   10  A    between atoms: C_9  and  C_10 
REMARK   11  A    between atoms: C_9  and  C_15 
REMARK   12  A    between atoms: C_10  and  C_11 
REMARK   13  A    between atoms: C_11  and  C_21 
REMARK   14  A    between atoms: C_17  and  C_21 
ROOT
HETATM    1  C   UNK N   1      27.319  24.326  -3.859  0.00  0.00     0.217 C 
HETATM    2  N   UNK N   1      26.821  24.940  -4.960  0.00  0.00    -0.361 N 
HETATM    3  O   UNK N   1      26.581  24.036  -2.924  0.00  0.00    -0.274 OA
HETATM    4  H   UNK N   1      27.436  25.158  -5.698  0.00  0.00     0.162 HD
ENDROOT
BRANCH   1   5
HETATM    5  C   UNK N   1      28.787  24.005  -3.803  0.00  0.00     0.103 C 
BRANCH   5   6
HETATM    6  C   UNK N   1      29.204  23.290  -2.522  0.00  0.00     0.009 C 
BRANCH   6   7
HETATM    7  C   UNK N   1      30.450  22.443  -2.742  0.00  0.00     0.000 C 
BRANCH   7   8
HETATM    8  C   UNK N   1      30.193  21.359  -3.777  0.00  0.00     0.000 C 
BRANCH   8   9
HETATM    9  C   UNK N   1      31.443  20.541  -4.022  0.00  0.00     0.000 C 
BRANCH   9  10
HETATM   10  C   UNK N   1      31.593  20.254  -5.508  0.00  0.00     0.000 C 
BRANCH  10  11
HETATM   11  C   UNK N   1      30.704  21.181  -6.318  0.00  0.00     0.000 C 
BRANCH  11  12
HETATM   12  C   UNK N   1      30.097  20.420  -7.484  0.00  0.00     0.000 C 
BRANCH  12  13
HETATM   13  C   UNK N   1      28.608  20.684  -7.583  0.00  0.00    -0.000 C 
BRANCH  13  14
HETATM   14  C   UNK N   1      28.284  22.055  -7.025  0.00  0.00    -0.005 C 
HETATM   15  C   UNK N   1      26.946  22.509  -7.564  0.00  0.00     0.005 C 
ENDBRANCH  13  14
ENDBRANCH  12  13
ENDBRANCH  11  12
ENDBRANCH  10  11
ENDBRANCH   9  10
ENDBRANCH   8   9
ENDBRANCH   7   8
ENDBRANCH   6   7
ENDBRANCH   5   6
ENDBRANCH   1   5
BRANCH   2  16
HETATM   16  C   UNK N   1      25.425  25.290  -5.096  0.00  0.00     0.125 C 
BRANCH  16  17
HETATM   17  C   UNK N   1      25.286  26.746  -5.517  0.00  0.00     0.056 C 
BRANCH  17  18
HETATM   18  C   UNK N   1      25.610  27.742  -4.397  0.00  0.00     0.312 C 
BRANCH  18  19
HETATM   19  N   UNK N   1      26.924  28.391  -4.487  0.00  0.00     0.005 N 
HETATM   20  O   UNK N   1      27.490  28.094  -5.682  0.00  0.00    -0.065 OA
HETATM   21  C   UNK N   1      26.726  29.827  -4.428  0.00  0.00     0.355 C 
HETATM   22  C   UNK N   1      27.840  28.018  -3.418  0.00  0.00     0.355 C 
ENDBRANCH  18  19
ENDBRANCH  17  18
ENDBRANCH  16  17
ENDBRANCH   2  16
TORSDOF 14
ENDMDL
