REMARK  14 active torsions:
REMARK  status: ('A' for Active; 'I' for Inactive)
REMARK    1  A    between atoms: N_1  and  C_3 
REMARK    2  A    between atoms: C_3  and  C_14 
REMARK    3  A    between atoms: C_4  and  C_14 
REMARK    4  A    between atoms: C_4  and  N_16 
REMARK    5  A    between atoms: C_5  and  C_6 
REMARK       I    between atoms: C_5  and  N_16 
REMARK    6  A    between atoms: C_6  and  C_20 
REMARK    7  A    between atoms: C_7  and  C_8 
REMARK    8  A    between atoms: C_7  and  C_20 
REMARK    9  A    between atoms: C_8  and  C_15 
REMARK   10  A    between atoms: C_9  and  C_10 
REMARK   11  A    between atoms: C_9  and  C_15 
REMARK   12  A    between atoms: C_10  and  C_11 
REMARK   13  A    between atoms: C_11  and  C_21 
REMARK   14  A    between atoms: C_17  and  C_21 
ROOT
HETATM    1  C   UNK N   1      -1.609   0.137   0.166  0.00  0.00     0.217 C 
HETATM    2  N   UNK N   1      -2.719   0.431  -0.553  0.00  0.00    -0.361 N 
HETATM    3  O   UNK N   1      -1.178  -1.010   0.200  0.00  0.00    -0.274 OA
HETATM    4  H   UNK N   1      -3.041   1.362  -0.566  0.00  0.00     0.162 HD
ENDROOT
BRANCH   1   5
HETATM    5  C   UNK N   1      -0.915   1.237   0.920  0.00  0.00     0.103 C 
BRANCH   5   6
HETATM    6  C   UNK N   1       0.395   0.798   1.566  0.00  0.00     0.009 C 
BRANCH   6   7
HETATM    7  C   UNK N   1       1.573   1.006   0.623  0.00  0.00     0.000 C 
BRANCH   7   8
HETATM    8  C   UNK N   1       1.500   0.048  -0.556  0.00  0.00     0.000 C 
BRANCH   8   9
HETATM    9  C   UNK N   1       2.878  -0.211  -1.126  0.00  0.00     0.000 C 
BRANCH   9  10
HETATM   10  C   UNK N   1       3.672  -1.102  -0.183  0.00  0.00     0.000 C 
BRANCH  10  11
HETATM   11  C   UNK N   1       4.895  -0.366   0.334  0.00  0.00     0.000 C 
BRANCH  11  12
HETATM   12  C   UNK N   1       5.884  -0.156  -0.800  0.00  0.00     0.000 C 
BRANCH  12  13
HETATM   13  C   UNK N   1       7.100   0.609  -0.318  0.00  0.00    -0.000 C 
BRANCH  13  14
HETATM   14  C   UNK N   1       8.063  -0.329   0.381  0.00  0.00    -0.005 C 
HETATM   15  C   UNK N   1       9.361   0.400   0.652  0.00  0.00     0.005 C 
ENDBRANCH  13  14
ENDBRANCH  12  13
ENDBRANCH  11  12
ENDBRANCH  10  11
ENDBRANCH   9  10
ENDBRANCH   8   9
ENDBRANCH   7   8
ENDBRANCH   6   7
ENDBRANCH   5   6
ENDBRANCH   1   5
BRANCH   2  16
HETATM   16  C   UNK N   1      -3.452  -0.565  -1.303  0.00  0.00     0.125 C 
BRANCH  16  17
HETATM   17  C   UNK N   1      -4.079  -1.580  -0.358  0.00  0.00     0.056 C 
BRANCH  17  18
HETATM   18  C   UNK N   1      -5.593  -1.404  -0.186  0.00  0.00     0.312 C 
BRANCH  18  19
HETATM   19  N   UNK N   1      -6.024  -0.098   0.329  0.00  0.00     0.005 N 
HETATM   20  O   UNK N   1      -6.104   0.784  -0.696  0.00  0.00    -0.065 OA
HETATM   21  C   UNK N   1      -7.351  -0.250   0.896  0.00  0.00     0.355 C 
HETATM   22  C   UNK N   1      -5.152   0.445   1.362  0.00  0.00     0.355 C 
ENDBRANCH  18  19
ENDBRANCH  17  18
ENDBRANCH  16  17
ENDBRANCH   2  16
TORSDOF 14
