MODEL 1
REMARK VINA RESULT:      -6.3      0.000      0.000
REMARK  6 active torsions:
REMARK  status: ('A' for Active; 'I' for Inactive)
REMARK    1  A    between atoms: C_2  and  N_1 
REMARK       I    between atoms: N_1  and  C_13 
REMARK    2  A    between atoms: C_2  and  C_3 
REMARK    3  A    between atoms: C_2  and  C_5 
REMARK    4  A    between atoms: C_3  and  O_12 
REMARK    5  A    between atoms: C_5  and  C_6 
REMARK       I    between atoms: C_13  and  N_15 
REMARK    6  A    between atoms: N_15  and  O_16 
ROOT
HETATM    1  C   UNK N   1      33.520  17.305   8.711  0.00  0.00     0.188 C 
ENDROOT
BRANCH   1   2
HETATM    2  N   UNK N   1      34.312  16.182   9.187  0.00  0.00    -0.327 N 
HETATM    3  C   UNK N   1      35.162  16.239  10.246  0.00  0.00     0.340 C 
HETATM    4  O   UNK N   1      35.295  17.275  10.883  0.00  0.00    -0.245 OA
HETATM    5  N   UNK N   1      35.873  15.140  10.583  0.00  0.00    -0.219 N 
HETATM    6  H   UNK N   1      35.755  14.309  10.068  0.00  0.00     0.199 HD
HETATM    7  H   UNK N   1      34.228  15.325   8.711  0.00  0.00     0.165 HD
BRANCH   5   8
HETATM    8  O   UNK N   1      36.736  15.167  11.608  0.00  0.00    -0.286 OA
HETATM    9  H   UNK N   1      36.726  15.828  12.319  0.00  0.00     0.244 HD
ENDBRANCH   5   8
ENDBRANCH   1   2
BRANCH   1  10
HETATM   10  C   UNK N   1      34.365  18.236   7.858  0.00  0.00     0.163 C 
HETATM   11  O   UNK N   1      34.393  18.113   6.643  0.00  0.00    -0.648 OA
BRANCH  10  12
HETATM   12  O   UNK N   1      35.112  19.195   8.433  0.00  0.00    -0.775 OA
HETATM   13  H   UNK N   1      34.778  20.057   8.593  0.00  0.00     0.167 HD
ENDBRANCH  10  12
ENDBRANCH   1  10
BRANCH   1  14
HETATM   14  C   UNK N   1      32.368  16.707   7.890  0.00  0.00     0.074 C 
BRANCH  14  15
HETATM   15  C   UNK N   1      31.026  17.381   7.950  0.00  0.00    -0.056 A 
HETATM   16  C   UNK N   1      30.685  18.107   9.098  0.00  0.00     0.007 A 
HETATM   17  C   UNK N   1      29.415  18.682   9.218  0.00  0.00     0.001 A 
HETATM   18  C   UNK N   1      28.477  18.528   8.194  0.00  0.00     0.000 A 
HETATM   19  C   UNK N   1      28.810  17.799   7.049  0.00  0.00     0.001 A 
HETATM   20  C   UNK N   1      30.077  17.219   6.933  0.00  0.00     0.007 A 
ENDBRANCH  14  15
ENDBRANCH   1  14
TORSDOF 6
ENDMDL
MODEL 2
REMARK VINA RESULT:      -6.0      5.365      8.718
REMARK  6 active torsions:
REMARK  status: ('A' for Active; 'I' for Inactive)
REMARK    1  A    between atoms: C_2  and  N_1 
REMARK       I    between atoms: N_1  and  C_13 
REMARK    2  A    between atoms: C_2  and  C_3 
REMARK    3  A    between atoms: C_2  and  C_5 
REMARK    4  A    between atoms: C_3  and  O_12 
REMARK    5  A    between atoms: C_5  and  C_6 
REMARK       I    between atoms: C_13  and  N_15 
REMARK    6  A    between atoms: N_15  and  O_16 
ROOT
HETATM    1  C   UNK N   1      36.035  13.788  13.199  0.00  0.00     0.188 C 
ENDROOT
BRANCH   1   2
HETATM    2  N   UNK N   1      36.058  15.089  12.549  0.00  0.00    -0.327 N 
HETATM    3  C   UNK N   1      35.123  15.516  11.659  0.00  0.00     0.340 C 
HETATM    4  O   UNK N   1      34.173  14.805  11.363  0.00  0.00    -0.245 OA
HETATM    5  N   UNK N   1      35.261  16.736  11.093  0.00  0.00    -0.219 N 
HETATM    6  H   UNK N   1      36.025  17.304  11.343  0.00  0.00     0.199 HD
HETATM    7  H   UNK N   1      36.799  15.699  12.768  0.00  0.00     0.165 HD
BRANCH   5   8
HETATM    8  O   UNK N   1      34.370  17.181  10.196  0.00  0.00    -0.286 OA
HETATM    9  H   UNK N   1      33.412  17.227  10.348  0.00  0.00     0.244 HD
ENDBRANCH   5   8
ENDBRANCH   1   2
BRANCH   1  10
HETATM   10  C   UNK N   1      36.818  12.768  12.389  0.00  0.00     0.163 C 
HETATM   11  O   UNK N   1      36.404  11.627  12.258  0.00  0.00    -0.648 OA
BRANCH  10  12
HETATM   12  O   UNK N   1      37.991  13.105  11.823  0.00  0.00    -0.775 OA
HETATM   13  H   UNK N   1      38.660  12.471  11.649  0.00  0.00     0.167 HD
ENDBRANCH  10  12
ENDBRANCH   1  10
BRANCH   1  14
HETATM   14  C   UNK N   1      36.664  13.983  14.587  0.00  0.00     0.074 C 
BRANCH  14  15
HETATM   15  C   UNK N   1      36.146  13.152  15.727  0.00  0.00    -0.056 A 
HETATM   16  C   UNK N   1      35.530  13.795  16.807  0.00  0.00     0.007 A 
HETATM   17  C   UNK N   1      35.107  13.059  17.919  0.00  0.00     0.001 A 
HETATM   18  C   UNK N   1      35.302  11.676  17.958  0.00  0.00     0.000 A 
HETATM   19  C   UNK N   1      35.922  11.030  16.885  0.00  0.00     0.001 A 
HETATM   20  C   UNK N   1      36.352  11.768  15.778  0.00  0.00     0.007 A 
ENDBRANCH  14  15
ENDBRANCH   1  14
TORSDOF 6
ENDMDL
MODEL 3
REMARK VINA RESULT:      -5.9     10.355     12.639
REMARK  6 active torsions:
REMARK  status: ('A' for Active; 'I' for Inactive)
REMARK    1  A    between atoms: C_2  and  N_1 
REMARK       I    between atoms: N_1  and  C_13 
REMARK    2  A    between atoms: C_2  and  C_3 
REMARK    3  A    between atoms: C_2  and  C_5 
REMARK    4  A    between atoms: C_3  and  O_12 
REMARK    5  A    between atoms: C_5  and  C_6 
REMARK       I    between atoms: C_13  and  N_15 
REMARK    6  A    between atoms: N_15  and  O_16 
ROOT
HETATM    1  C   UNK N   1      22.186  18.949   4.272  0.00  0.00     0.188 C 
ENDROOT
BRANCH   1   2
HETATM    2  N   UNK N   1      21.420  19.075   3.042  0.00  0.00    -0.327 N 
HETATM    3  C   UNK N   1      21.321  20.220   2.316  0.00  0.00     0.340 C 
HETATM    4  O   UNK N   1      21.907  21.235   2.669  0.00  0.00    -0.245 OA
HETATM    5  N   UNK N   1      20.556  20.232   1.202  0.00  0.00    -0.219 N 
HETATM    6  H   UNK N   1      20.094  19.409   0.923  0.00  0.00     0.199 HD
HETATM    7  H   UNK N   1      20.943  18.279   2.714  0.00  0.00     0.165 HD
BRANCH   5   8
HETATM    8  O   UNK N   1      20.418  21.349   0.475  0.00  0.00    -0.286 OA
HETATM    9  H   UNK N   1      19.658  21.950   0.527  0.00  0.00     0.244 HD
ENDBRANCH   5   8
ENDBRANCH   1   2
BRANCH   1  10
HETATM   10  C   UNK N   1      21.368  18.251   5.346  0.00  0.00     0.163 C 
HETATM   11  O   UNK N   1      20.586  17.360   5.052  0.00  0.00    -0.648 OA
BRANCH  10  12
HETATM   12  O   UNK N   1      21.480  18.622   6.634  0.00  0.00    -0.775 OA
HETATM   13  H   UNK N   1      20.737  18.668   7.205  0.00  0.00     0.167 HD
ENDBRANCH  10  12
ENDBRANCH   1  10
BRANCH   1  14
HETATM   14  C   UNK N   1      23.439  18.132   3.922  0.00  0.00     0.074 C 
BRANCH  14  15
HETATM   15  C   UNK N   1      24.781  18.800   4.040  0.00  0.00    -0.056 A 
HETATM   16  C   UNK N   1      25.071  19.885   3.203  0.00  0.00     0.007 A 
HETATM   17  C   UNK N   1      26.337  20.480   3.232  0.00  0.00     0.001 A 
HETATM   18  C   UNK N   1      27.321  19.989   4.096  0.00  0.00     0.000 A 
HETATM   19  C   UNK N   1      27.038  18.904   4.928  0.00  0.00     0.001 A 
HETATM   20  C   UNK N   1      25.774  18.305   4.892  0.00  0.00     0.007 A 
ENDBRANCH  14  15
ENDBRANCH   1  14
TORSDOF 6
ENDMDL
MODEL 4
REMARK VINA RESULT:      -5.8     12.829     14.594
REMARK  6 active torsions:
REMARK  status: ('A' for Active; 'I' for Inactive)
REMARK    1  A    between atoms: C_2  and  N_1 
REMARK       I    between atoms: N_1  and  C_13 
REMARK    2  A    between atoms: C_2  and  C_3 
REMARK    3  A    between atoms: C_2  and  C_5 
REMARK    4  A    between atoms: C_3  and  O_12 
REMARK    5  A    between atoms: C_5  and  C_6 
REMARK       I    between atoms: C_13  and  N_15 
REMARK    6  A    between atoms: N_15  and  O_16 
ROOT
HETATM    1  C   UNK N   1      20.756  18.828   1.842  0.00  0.00     0.188 C 
ENDROOT
BRANCH   1   2
HETATM    2  N   UNK N   1      19.555  18.193   1.324  0.00  0.00    -0.327 N 
HETATM    3  C   UNK N   1      19.555  17.090   0.529  0.00  0.00     0.340 C 
HETATM    4  O   UNK N   1      20.605  16.550   0.211  0.00  0.00    -0.245 OA
HETATM    5  N   UNK N   1      18.378  16.601   0.079  0.00  0.00    -0.219 N 
HETATM    6  H   UNK N   1      17.537  17.038   0.345  0.00  0.00     0.199 HD
HETATM    7  H   UNK N   1      18.686  18.587   1.564  0.00  0.00     0.165 HD
BRANCH   5   8
HETATM    8  O   UNK N   1      18.342  15.528  -0.724  0.00  0.00    -0.286 OA
HETATM    9  H   UNK N   1      19.122  15.120  -1.132  0.00  0.00     0.244 HD
ENDBRANCH   5   8
ENDBRANCH   1   2
BRANCH   1  10
HETATM   10  C   UNK N   1      20.932  20.214   1.246  0.00  0.00     0.163 C 
HETATM   11  O   UNK N   1      21.361  21.134   1.925  0.00  0.00    -0.648 OA
BRANCH  10  12
HETATM   12  O   UNK N   1      20.597  20.451  -0.035  0.00  0.00    -0.775 OA
HETATM   13  H   UNK N   1      20.510  19.761  -0.663  0.00  0.00     0.167 HD
ENDBRANCH  10  12
ENDBRANCH   1  10
BRANCH   1  14
HETATM   14  C   UNK N   1      20.583  18.907   3.367  0.00  0.00     0.074 C 
BRANCH  14  15
HETATM   15  C   UNK N   1      21.381  17.964   4.224  0.00  0.00    -0.056 A 
HETATM   16  C   UNK N   1      22.226  17.036   3.603  0.00  0.00     0.007 A 
HETATM   17  C   UNK N   1      22.923  16.094   4.367  0.00  0.00     0.001 A 
HETATM   18  C   UNK N   1      22.774  16.072   5.756  0.00  0.00     0.000 A 
HETATM   19  C   UNK N   1      21.927  16.992   6.381  0.00  0.00     0.001 A 
HETATM   20  C   UNK N   1      21.225  17.928   5.615  0.00  0.00     0.007 A 
ENDBRANCH  14  15
ENDBRANCH   1  14
TORSDOF 6
ENDMDL
MODEL 5
REMARK VINA RESULT:      -5.7     12.163     13.817
REMARK  6 active torsions:
REMARK  status: ('A' for Active; 'I' for Inactive)
REMARK    1  A    between atoms: C_2  and  N_1 
REMARK       I    between atoms: N_1  and  C_13 
REMARK    2  A    between atoms: C_2  and  C_3 
REMARK    3  A    between atoms: C_2  and  C_5 
REMARK    4  A    between atoms: C_3  and  O_12 
REMARK    5  A    between atoms: C_5  and  C_6 
REMARK       I    between atoms: C_13  and  N_15 
REMARK    6  A    between atoms: N_15  and  O_16 
ROOT
HETATM    1  C   UNK N   1      20.144  15.227   7.877  0.00  0.00     0.188 C 
ENDROOT
BRANCH   1   2
HETATM    2  N   UNK N   1      19.872  16.562   8.387  0.00  0.00    -0.327 N 
HETATM    3  C   UNK N   1      18.747  16.906   9.069  0.00  0.00     0.340 C 
HETATM    4  O   UNK N   1      17.884  16.073   9.308  0.00  0.00    -0.245 OA
HETATM    5  N   UNK N   1      18.585  18.186   9.471  0.00  0.00    -0.219 N 
HETATM    6  H   UNK N   1      19.288  18.848   9.279  0.00  0.00     0.199 HD
HETATM    7  H   UNK N   1      20.546  17.261   8.228  0.00  0.00     0.165 HD
BRANCH   5   8
HETATM    8  O   UNK N   1      17.479  18.565  10.127  0.00  0.00    -0.286 OA
HETATM    9  H   UNK N   1      17.439  18.744  11.080  0.00  0.00     0.244 HD
ENDBRANCH   5   8
ENDBRANCH   1   2
BRANCH   1  10
HETATM   10  C   UNK N   1      20.043  15.199   6.362  0.00  0.00     0.163 C 
HETATM   11  O   UNK N   1      18.978  15.416   5.805  0.00  0.00    -0.648 OA
BRANCH  10  12
HETATM   12  O   UNK N   1      21.123  14.913   5.613  0.00  0.00    -0.775 OA
HETATM   13  H   UNK N   1      21.050  14.602   4.732  0.00  0.00     0.167 HD
ENDBRANCH  10  12
ENDBRANCH   1  10
BRANCH   1  14
HETATM   14  C   UNK N   1      21.565  14.867   8.337  0.00  0.00     0.074 C 
BRANCH  14  15
HETATM   15  C   UNK N   1      21.722  13.879   9.459  0.00  0.00    -0.056 A 
HETATM   16  C   UNK N   1      22.994  13.360   9.729  0.00  0.00     0.007 A 
HETATM   17  C   UNK N   1      23.162  12.381  10.714  0.00  0.00     0.001 A 
HETATM   18  C   UNK N   1      22.057  11.913  11.431  0.00  0.00     0.000 A 
HETATM   19  C   UNK N   1      20.785  12.424  11.162  0.00  0.00     0.001 A 
HETATM   20  C   UNK N   1      20.618  13.397  10.171  0.00  0.00     0.007 A 
ENDBRANCH  14  15
ENDBRANCH   1  14
TORSDOF 6
ENDMDL
MODEL 6
REMARK VINA RESULT:      -5.6      5.010      8.433
REMARK  6 active torsions:
REMARK  status: ('A' for Active; 'I' for Inactive)
REMARK    1  A    between atoms: C_2  and  N_1 
REMARK       I    between atoms: N_1  and  C_13 
REMARK    2  A    between atoms: C_2  and  C_3 
REMARK    3  A    between atoms: C_2  and  C_5 
REMARK    4  A    between atoms: C_3  and  O_12 
REMARK    5  A    between atoms: C_5  and  C_6 
REMARK       I    between atoms: C_13  and  N_15 
REMARK    6  A    between atoms: N_15  and  O_16 
ROOT
HETATM    1  C   UNK N   1      35.462  13.299  13.099  0.00  0.00     0.188 C 
ENDROOT
BRANCH   1   2
HETATM    2  N   UNK N   1      35.846  14.548  12.459  0.00  0.00    -0.327 N 
HETATM    3  C   UNK N   1      35.030  15.276  11.651  0.00  0.00     0.340 C 
HETATM    4  O   UNK N   1      33.885  14.908  11.426  0.00  0.00    -0.245 OA
HETATM    5  N   UNK N   1      35.503  16.408  11.084  0.00  0.00    -0.219 N 
HETATM    6  H   UNK N   1      36.424  16.699  11.275  0.00  0.00     0.199 HD
HETATM    7  H   UNK N   1      36.755  14.887  12.622  0.00  0.00     0.165 HD
BRANCH   5   8
HETATM    8  O   UNK N   1      34.734  17.139  10.265  0.00  0.00    -0.286 OA
HETATM    9  H   UNK N   1      33.872  17.513  10.508  0.00  0.00     0.244 HD
ENDBRANCH   5   8
ENDBRANCH   1   2
BRANCH   1  10
HETATM   10  C   UNK N   1      35.459  12.159  12.094  0.00  0.00     0.163 C 
HETATM   11  O   UNK N   1      36.480  11.528  11.866  0.00  0.00    -0.648 OA
BRANCH  10  12
HETATM   12  O   UNK N   1      34.335  11.843  11.427  0.00  0.00    -0.775 OA
HETATM   13  H   UNK N   1      33.638  11.359  11.826  0.00  0.00     0.167 HD
ENDBRANCH  10  12
ENDBRANCH   1  10
BRANCH   1  14
HETATM   14  C   UNK N   1      36.491  13.046  14.210  0.00  0.00     0.074 C 
BRANCH  14  15
HETATM   15  C   UNK N   1      36.378  13.841  15.481  0.00  0.00    -0.056 A 
HETATM   16  C   UNK N   1      37.199  14.963  15.651  0.00  0.00     0.007 A 
HETATM   17  C   UNK N   1      37.174  15.679  16.853  0.00  0.00     0.001 A 
HETATM   18  C   UNK N   1      36.331  15.274  17.892  0.00  0.00     0.000 A 
HETATM   19  C   UNK N   1      35.515  14.152  17.729  0.00  0.00     0.001 A 
HETATM   20  C   UNK N   1      35.547  13.432  16.530  0.00  0.00     0.007 A 
ENDBRANCH  14  15
ENDBRANCH   1  14
TORSDOF 6
ENDMDL
MODEL 7
REMARK VINA RESULT:      -5.6      7.681     10.122
REMARK  6 active torsions:
REMARK  status: ('A' for Active; 'I' for Inactive)
REMARK    1  A    between atoms: C_2  and  N_1 
REMARK       I    between atoms: N_1  and  C_13 
REMARK    2  A    between atoms: C_2  and  C_3 
REMARK    3  A    between atoms: C_2  and  C_5 
REMARK    4  A    between atoms: C_3  and  O_12 
REMARK    5  A    between atoms: C_5  and  C_6 
REMARK       I    between atoms: C_13  and  N_15 
REMARK    6  A    between atoms: N_15  and  O_16 
ROOT
HETATM    1  C   UNK N   1      35.986  13.149  14.979  0.00  0.00     0.188 C 
ENDROOT
BRANCH   1   2
HETATM    2  N   UNK N   1      35.239  12.987  13.742  0.00  0.00    -0.327 N 
HETATM    3  C   UNK N   1      34.849  11.788  13.236  0.00  0.00     0.340 C 
HETATM    4  O   UNK N   1      35.105  10.748  13.827  0.00  0.00    -0.245 OA
HETATM    5  N   UNK N   1      34.183  11.752  12.060  0.00  0.00    -0.219 N 
HETATM    6  H   UNK N   1      33.976  12.595  11.594  0.00  0.00     0.199 HD
HETATM    7  H   UNK N   1      35.001  13.799  13.239  0.00  0.00     0.165 HD
BRANCH   5   8
HETATM    8  O   UNK N   1      33.802  10.586  11.520  0.00  0.00    -0.286 OA
HETATM    9  H   UNK N   1      33.935   9.719  11.935  0.00  0.00     0.244 HD
ENDBRANCH   5   8
ENDBRANCH   1   2
BRANCH   1  10
HETATM   10  C   UNK N   1      36.835  14.408  14.933  0.00  0.00     0.163 C 
HETATM   11  O   UNK N   1      37.517  14.734  15.893  0.00  0.00    -0.648 OA
BRANCH  10  12
HETATM   12  O   UNK N   1      36.831  15.194  13.841  0.00  0.00    -0.775 OA
HETATM   13  H   UNK N   1      36.327  15.983  13.798  0.00  0.00     0.167 HD
ENDBRANCH  10  12
ENDBRANCH   1  10
BRANCH   1  14
HETATM   14  C   UNK N   1      34.947  13.232  16.107  0.00  0.00     0.074 C 
BRANCH  14  15
HETATM   15  C   UNK N   1      35.198  12.449  17.366  0.00  0.00    -0.056 A 
HETATM   16  C   UNK N   1      35.137  13.112  18.598  0.00  0.00     0.007 A 
HETATM   17  C   UNK N   1      35.441  12.431  19.781  0.00  0.00     0.001 A 
HETATM   18  C   UNK N   1      35.813  11.084  19.738  0.00  0.00     0.000 A 
HETATM   19  C   UNK N   1      35.881  10.420  18.511  0.00  0.00     0.001 A 
HETATM   20  C   UNK N   1      35.584  11.104  17.328  0.00  0.00     0.007 A 
ENDBRANCH  14  15
ENDBRANCH   1  14
TORSDOF 6
ENDMDL
MODEL 8
REMARK VINA RESULT:      -5.6      2.186      2.632
REMARK  6 active torsions:
REMARK  status: ('A' for Active; 'I' for Inactive)
REMARK    1  A    between atoms: C_2  and  N_1 
REMARK       I    between atoms: N_1  and  C_13 
REMARK    2  A    between atoms: C_2  and  C_3 
REMARK    3  A    between atoms: C_2  and  C_5 
REMARK    4  A    between atoms: C_3  and  O_12 
REMARK    5  A    between atoms: C_5  and  C_6 
REMARK       I    between atoms: C_13  and  N_15 
REMARK    6  A    between atoms: N_15  and  O_16 
ROOT
HETATM    1  C   UNK N   1      33.147  17.060   8.633  0.00  0.00     0.188 C 
ENDROOT
BRANCH   1   2
HETATM    2  N   UNK N   1      33.333  15.642   8.371  0.00  0.00    -0.327 N 
HETATM    3  C   UNK N   1      32.646  14.651   9.000  0.00  0.00     0.340 C 
HETATM    4  O   UNK N   1      31.795  14.917   9.837  0.00  0.00    -0.245 OA
HETATM    5  N   UNK N   1      32.923  13.363   8.699  0.00  0.00    -0.219 N 
HETATM    6  H   UNK N   1      33.605  13.159   8.019  0.00  0.00     0.199 HD
HETATM    7  H   UNK N   1      34.000  15.382   7.696  0.00  0.00     0.165 HD
BRANCH   5   8
HETATM    8  O   UNK N   1      32.280  12.360   9.315  0.00  0.00    -0.286 OA
HETATM    9  H   UNK N   1      32.062  12.345  10.260  0.00  0.00     0.244 HD
ENDBRANCH   5   8
ENDBRANCH   1   2
BRANCH   1  10
HETATM   10  C   UNK N   1      34.463  17.808   8.508  0.00  0.00     0.163 C 
HETATM   11  O   UNK N   1      34.754  18.386   7.472  0.00  0.00    -0.648 OA
BRANCH  10  12
HETATM   12  O   UNK N   1      35.336  17.825   9.531  0.00  0.00    -0.775 OA
HETATM   13  H   UNK N   1      35.877  18.570   9.712  0.00  0.00     0.167 HD
ENDBRANCH  10  12
ENDBRANCH   1  10
BRANCH   1  14
HETATM   14  C   UNK N   1      32.131  17.564   7.596  0.00  0.00     0.074 C 
BRANCH  14  15
HETATM   15  C   UNK N   1      30.689  17.673   8.006  0.00  0.00    -0.056 A 
HETATM   16  C   UNK N   1      29.702  17.188   7.141  0.00  0.00     0.007 A 
HETATM   17  C   UNK N   1      28.348  17.344   7.456  0.00  0.00     0.001 A 
HETATM   18  C   UNK N   1      27.975  17.991   8.638  0.00  0.00     0.000 A 
HETATM   19  C   UNK N   1      28.956  18.483   9.502  0.00  0.00     0.001 A 
HETATM   20  C   UNK N   1      30.309  18.333   9.181  0.00  0.00     0.007 A 
ENDBRANCH  14  15
ENDBRANCH   1  14
TORSDOF 6
ENDMDL
MODEL 9
REMARK VINA RESULT:      -5.6      5.039      7.292
REMARK  6 active torsions:
REMARK  status: ('A' for Active; 'I' for Inactive)
REMARK    1  A    between atoms: C_2  and  N_1 
REMARK       I    between atoms: N_1  and  C_13 
REMARK    2  A    between atoms: C_2  and  C_3 
REMARK    3  A    between atoms: C_2  and  C_5 
REMARK    4  A    between atoms: C_3  and  O_12 
REMARK    5  A    between atoms: C_5  and  C_6 
REMARK       I    between atoms: C_13  and  N_15 
REMARK    6  A    between atoms: N_15  and  O_16 
ROOT
HETATM    1  C   UNK N   1      28.938  18.405   7.513  0.00  0.00     0.188 C 
ENDROOT
BRANCH   1   2
HETATM    2  N   UNK N   1      27.707  18.433   6.739  0.00  0.00    -0.327 N 
HETATM    3  C   UNK N   1      27.214  19.543   6.128  0.00  0.00     0.340 C 
HETATM    4  O   UNK N   1      27.813  20.608   6.190  0.00  0.00    -0.245 OA
HETATM    5  N   UNK N   1      26.042  19.462   5.458  0.00  0.00    -0.219 N 
HETATM    6  H   UNK N   1      25.571  18.599   5.408  0.00  0.00     0.199 HD
HETATM    7  H   UNK N   1      27.199  17.595   6.653  0.00  0.00     0.165 HD
BRANCH   5   8
HETATM    8  O   UNK N   1      25.516  20.540   4.862  0.00  0.00    -0.286 OA
HETATM    9  H   UNK N   1      24.912  20.509   4.102  0.00  0.00     0.244 HD
ENDBRANCH   5   8
ENDBRANCH   1   2
BRANCH   1  10
HETATM   10  C   UNK N   1      28.637  18.360   9.001  0.00  0.00     0.163 C 
HETATM   11  O   UNK N   1      29.484  18.687   9.818  0.00  0.00    -0.648 OA
BRANCH  10  12
HETATM   12  O   UNK N   1      27.437  17.938   9.441  0.00  0.00    -0.775 OA
HETATM   13  H   UNK N   1      26.680  17.927   8.888  0.00  0.00     0.167 HD
ENDBRANCH  10  12
ENDBRANCH   1  10
BRANCH   1  14
HETATM   14  C   UNK N   1      29.700  17.146   7.072  0.00  0.00     0.074 C 
BRANCH  14  15
HETATM   15  C   UNK N   1      31.135  17.293   6.650  0.00  0.00    -0.056 A 
HETATM   16  C   UNK N   1      31.461  17.139   5.297  0.00  0.00     0.007 A 
HETATM   17  C   UNK N   1      32.796  17.193   4.882  0.00  0.00     0.001 A 
HETATM   18  C   UNK N   1      33.812  17.396   5.820  0.00  0.00     0.000 A 
HETATM   19  C   UNK N   1      33.493  17.544   7.172  0.00  0.00     0.001 A 
HETATM   20  C   UNK N   1      32.159  17.482   7.586  0.00  0.00     0.007 A 
ENDBRANCH  14  15
ENDBRANCH   1  14
TORSDOF 6
ENDMDL
