MODEL 1
REMARK VINA RESULT:      -5.9      0.000      0.000
REMARK  2 active torsions:
REMARK  status: ('A' for Active; 'I' for Inactive)
REMARK    1  A    between atoms: C_4  and  O_11 
REMARK    2  A    between atoms: C_5  and  O_8 
ROOT
HETATM    1  C   UNK N   1      28.967  22.232  -5.995  0.00  0.00     0.031 A 
HETATM    2  C   UNK N   1      29.892  21.974  -4.968  0.00  0.00     0.050 A 
HETATM    3  C   UNK N   1      30.821  20.918  -5.135  0.00  0.00     0.027 A 
HETATM    4  C   UNK N   1      31.746  20.647  -4.126  0.00  0.00     0.117 A 
HETATM    5  C   UNK N   1      31.747  21.418  -2.967  0.00  0.00     0.169 A 
HETATM    6  O   UNK N   1      30.832  23.128  -1.798  0.00  0.00    -0.265 OA
HETATM    7  C   UNK N   1      30.822  22.459  -2.817  0.00  0.00     0.283 A 
HETATM    8  N   UNK N   1      29.906  22.725  -3.819  0.00  0.00    -0.316 N 
HETATM    9  C   UNK N   1      28.951  23.819  -3.635  0.00  0.00     0.160 C 
HETATM   10  C   UNK N   1      28.967  21.457  -7.159  0.00  0.00     0.002 A 
HETATM   11  C   UNK N   1      29.887  20.418  -7.312  0.00  0.00     0.001 A 
HETATM   12  C   UNK N   1      30.810  20.150  -6.304  0.00  0.00     0.017 A 
ENDROOT
BRANCH   4  13
HETATM   13  O   UNK N   1      32.636  19.647  -4.268  0.00  0.00    -0.357 OA
HETATM   14  H   UNK N   1      32.450  18.800  -3.912  0.00  0.00     0.217 HD
ENDBRANCH   4  13
BRANCH   5  15
HETATM   15  O   UNK N   1      32.639  21.158  -1.993  0.00  0.00    -0.354 OA
HETATM   16  H   UNK N   1      33.076  20.330  -1.968  0.00  0.00     0.218 HD
ENDBRANCH   5  15
TORSDOF 2
ENDMDL
MODEL 2
REMARK VINA RESULT:      -5.7      1.002      3.287
REMARK  2 active torsions:
REMARK  status: ('A' for Active; 'I' for Inactive)
REMARK    1  A    between atoms: C_4  and  O_11 
REMARK    2  A    between atoms: C_5  and  O_8 
ROOT
HETATM    1  C   UNK N   1      28.849  22.768  -5.864  0.00  0.00     0.031 A 
HETATM    2  C   UNK N   1      29.799  22.375  -4.904  0.00  0.00     0.050 A 
HETATM    3  C   UNK N   1      29.694  22.889  -3.589  0.00  0.00     0.027 A 
HETATM    4  C   UNK N   1      30.627  22.510  -2.624  0.00  0.00     0.117 A 
HETATM    5  C   UNK N   1      31.651  21.632  -2.963  0.00  0.00     0.169 A 
HETATM    6  O   UNK N   1      32.644  20.364  -4.555  0.00  0.00    -0.265 OA
HETATM    7  C   UNK N   1      31.742  21.132  -4.269  0.00  0.00     0.283 A 
HETATM    8  N   UNK N   1      30.815  21.510  -5.224  0.00  0.00    -0.316 N 
HETATM    9  C   UNK N   1      30.934  20.972  -6.580  0.00  0.00     0.160 C 
HETATM   10  C   UNK N   1      27.820  23.651  -5.521  0.00  0.00     0.002 A 
HETATM   11  C   UNK N   1      27.726  24.151  -4.221  0.00  0.00     0.001 A 
HETATM   12  C   UNK N   1      28.659  23.772  -3.259  0.00  0.00     0.017 A 
ENDROOT
BRANCH   4  13
HETATM   13  O   UNK N   1      30.542  22.989  -1.368  0.00  0.00    -0.357 OA
HETATM   14  H   UNK N   1      30.230  23.860  -1.218  0.00  0.00     0.217 HD
ENDBRANCH   4  13
BRANCH   5  15
HETATM   15  O   UNK N   1      32.553  21.265  -2.033  0.00  0.00    -0.354 OA
HETATM   16  H   UNK N   1      33.148  20.563  -2.210  0.00  0.00     0.218 HD
ENDBRANCH   5  15
TORSDOF 2
ENDMDL
MODEL 3
REMARK VINA RESULT:      -5.7     11.961     13.420
REMARK  2 active torsions:
REMARK  status: ('A' for Active; 'I' for Inactive)
REMARK    1  A    between atoms: C_4  and  O_11 
REMARK    2  A    between atoms: C_5  and  O_8 
ROOT
HETATM    1  C   UNK N   1      31.823  16.919   6.195  0.00  0.00     0.031 A 
HETATM    2  C   UNK N   1      30.693  17.175   6.992  0.00  0.00     0.050 A 
HETATM    3  C   UNK N   1      30.867  17.852   8.225  0.00  0.00     0.027 A 
HETATM    4  C   UNK N   1      29.757  18.115   9.029  0.00  0.00     0.117 A 
HETATM    5  C   UNK N   1      28.493  17.710   8.613  0.00  0.00     0.169 A 
HETATM    6  O   UNK N   1      27.226  16.691   7.036  0.00  0.00    -0.265 OA
HETATM    7  C   UNK N   1      28.338  17.041   7.391  0.00  0.00     0.283 A 
HETATM    8  N   UNK N   1      29.440  16.782   6.596  0.00  0.00    -0.316 N 
HETATM    9  C   UNK N   1      29.248  16.082   5.324  0.00  0.00     0.160 C 
HETATM   10  C   UNK N   1      33.093  17.327   6.615  0.00  0.00     0.002 A 
HETATM   11  C   UNK N   1      33.252  17.993   7.831  0.00  0.00     0.001 A 
HETATM   12  C   UNK N   1      32.143  18.255   8.633  0.00  0.00     0.017 A 
ENDROOT
BRANCH   4  13
HETATM   13  O   UNK N   1      29.903  18.757  10.203  0.00  0.00    -0.357 OA
HETATM   14  H   UNK N   1      30.597  19.377  10.315  0.00  0.00     0.217 HD
ENDBRANCH   4  13
BRANCH   5  15
HETATM   15  O   UNK N   1      27.422  17.962   9.387  0.00  0.00    -0.354 OA
HETATM   16  H   UNK N   1      27.279  17.462  10.166  0.00  0.00     0.218 HD
ENDBRANCH   5  15
TORSDOF 2
ENDMDL
MODEL 4
REMARK VINA RESULT:      -5.6     17.406     18.496
REMARK  2 active torsions:
REMARK  status: ('A' for Active; 'I' for Inactive)
REMARK    1  A    between atoms: C_4  and  O_11 
REMARK    2  A    between atoms: C_5  and  O_8 
ROOT
HETATM    1  C   UNK N   1      24.536  12.611  10.075  0.00  0.00     0.031 A 
HETATM    2  C   UNK N   1      23.382  13.143   9.473  0.00  0.00     0.050 A 
HETATM    3  C   UNK N   1      22.142  13.020  10.146  0.00  0.00     0.027 A 
HETATM    4  C   UNK N   1      20.986  13.541   9.564  0.00  0.00     0.117 A 
HETATM    5  C   UNK N   1      21.063  14.176   8.328  0.00  0.00     0.169 A 
HETATM    6  O   UNK N   1      22.353  14.847   6.592  0.00  0.00    -0.265 OA
HETATM    7  C   UNK N   1      22.297  14.289   7.674  0.00  0.00     0.283 A 
HETATM    8  N   UNK N   1      23.442  13.771   8.254  0.00  0.00    -0.316 N 
HETATM    9  C   UNK N   1      24.717  13.904   7.548  0.00  0.00     0.160 C 
HETATM   10  C   UNK N   1      24.457  11.974  11.317  0.00  0.00     0.002 A 
HETATM   11  C   UNK N   1      23.229  11.859  11.972  0.00  0.00     0.001 A 
HETATM   12  C   UNK N   1      22.076  12.380  11.389  0.00  0.00     0.017 A 
ENDROOT
BRANCH   4  13
HETATM   13  O   UNK N   1      19.799  13.434  10.190  0.00  0.00    -0.357 OA
HETATM   14  H   UNK N   1      19.495  14.128  10.741  0.00  0.00     0.217 HD
ENDBRANCH   4  13
BRANCH   5  15
HETATM   15  O   UNK N   1      19.949  14.680   7.765  0.00  0.00    -0.354 OA
HETATM   16  H   UNK N   1      19.260  14.105   7.496  0.00  0.00     0.218 HD
ENDBRANCH   5  15
TORSDOF 2
ENDMDL
MODEL 5
REMARK VINA RESULT:      -5.4     10.248     11.714
REMARK  2 active torsions:
REMARK  status: ('A' for Active; 'I' for Inactive)
REMARK    1  A    between atoms: C_4  and  O_11 
REMARK    2  A    between atoms: C_5  and  O_8 
ROOT
HETATM    1  C   UNK N   1      30.382  16.864   4.456  0.00  0.00     0.031 A 
HETATM    2  C   UNK N   1      31.088  17.118   5.646  0.00  0.00     0.050 A 
HETATM    3  C   UNK N   1      32.486  17.335   5.577  0.00  0.00     0.027 A 
HETATM    4  C   UNK N   1      33.203  17.588   6.747  0.00  0.00     0.117 A 
HETATM    5  C   UNK N   1      32.537  17.624   7.968  0.00  0.00     0.169 A 
HETATM    6  O   UNK N   1      30.582  17.441   9.095  0.00  0.00    -0.265 OA
HETATM    7  C   UNK N   1      31.154  17.407   8.020  0.00  0.00     0.283 A 
HETATM    8  N   UNK N   1      30.446  17.156   6.857  0.00  0.00    -0.316 N 
HETATM    9  C   UNK N   1      29.002  16.933   6.941  0.00  0.00     0.160 C 
HETATM   10  C   UNK N   1      31.053  16.828   3.229  0.00  0.00     0.002 A 
HETATM   11  C   UNK N   1      32.431  17.044   3.174  0.00  0.00     0.001 A 
HETATM   12  C   UNK N   1      33.145  17.296   4.343  0.00  0.00     0.017 A 
ENDROOT
BRANCH   4  13
HETATM   13  O   UNK N   1      34.532  17.797   6.700  0.00  0.00    -0.357 OA
HETATM   14  H   UNK N   1      35.122  17.069   6.715  0.00  0.00     0.217 HD
ENDBRANCH   4  13
BRANCH   5  15
HETATM   15  O   UNK N   1      33.227  17.869   9.098  0.00  0.00    -0.354 OA
HETATM   16  H   UNK N   1      34.132  17.632   9.154  0.00  0.00     0.218 HD
ENDBRANCH   5  15
TORSDOF 2
ENDMDL
MODEL 6
REMARK VINA RESULT:      -5.4     12.323     14.077
REMARK  2 active torsions:
REMARK  status: ('A' for Active; 'I' for Inactive)
REMARK    1  A    between atoms: C_4  and  O_11 
REMARK    2  A    between atoms: C_5  and  O_8 
ROOT
HETATM    1  C   UNK N   1      32.663  15.185   6.352  0.00  0.00     0.031 A 
HETATM    2  C   UNK N   1      33.370  15.767   7.420  0.00  0.00     0.050 A 
HETATM    3  C   UNK N   1      33.837  17.097   7.286  0.00  0.00     0.027 A 
HETATM    4  C   UNK N   1      34.540  17.691   8.335  0.00  0.00     0.117 A 
HETATM    5  C   UNK N   1      34.774  16.970   9.502  0.00  0.00     0.169 A 
HETATM    6  O   UNK N   1      34.516  15.033  10.646  0.00  0.00    -0.265 OA
HETATM    7  C   UNK N   1      34.305  15.655   9.620  0.00  0.00     0.283 A 
HETATM    8  N   UNK N   1      33.609  15.069   8.577  0.00  0.00    -0.316 N 
HETATM    9  C   UNK N   1      33.131  13.694   8.728  0.00  0.00     0.160 C 
HETATM   10  C   UNK N   1      32.429  15.911   5.180  0.00  0.00     0.002 A 
HETATM   11  C   UNK N   1      32.894  17.221   5.059  0.00  0.00     0.001 A 
HETATM   12  C   UNK N   1      33.595  17.812   6.107  0.00  0.00     0.017 A 
ENDROOT
BRANCH   4  13
HETATM   13  O   UNK N   1      34.991  18.954   8.225  0.00  0.00    -0.357 OA
HETATM   14  H   UNK N   1      35.698  19.248   8.765  0.00  0.00     0.217 HD
ENDBRANCH   4  13
BRANCH   5  15
HETATM   15  O   UNK N   1      35.451  17.541  10.515  0.00  0.00    -0.354 OA
HETATM   16  H   UNK N   1      35.053  17.619  11.359  0.00  0.00     0.218 HD
ENDBRANCH   5  15
TORSDOF 2
ENDMDL
MODEL 7
REMARK VINA RESULT:      -5.3     13.008     14.971
REMARK  2 active torsions:
REMARK  status: ('A' for Active; 'I' for Inactive)
REMARK    1  A    between atoms: C_4  and  O_11 
REMARK    2  A    between atoms: C_5  and  O_8 
ROOT
HETATM    1  C   UNK N   1      33.672  13.797   8.002  0.00  0.00     0.031 A 
HETATM    2  C   UNK N   1      34.038  15.152   8.094  0.00  0.00     0.050 A 
HETATM    3  C   UNK N   1      34.590  15.630   9.307  0.00  0.00     0.027 A 
HETATM    4  C   UNK N   1      34.959  16.971   9.416  0.00  0.00     0.117 A 
HETATM    5  C   UNK N   1      34.780  17.825   8.332  0.00  0.00     0.169 A 
HETATM    6  O   UNK N   1      34.080  18.094   6.196  0.00  0.00    -0.265 OA
HETATM    7  C   UNK N   1      34.232  17.337   7.139  0.00  0.00     0.283 A 
HETATM    8  N   UNK N   1      33.868  16.007   7.034  0.00  0.00    -0.316 N 
HETATM    9  C   UNK N   1      33.298  15.525   5.774  0.00  0.00     0.160 C 
HETATM   10  C   UNK N   1      33.853  12.940   9.092  0.00  0.00     0.002 A 
HETATM   11  C   UNK N   1      34.398  13.422  10.284  0.00  0.00     0.001 A 
HETATM   12  C   UNK N   1      34.766  14.761  10.391  0.00  0.00     0.017 A 
ENDROOT
BRANCH   4  13
HETATM   13  O   UNK N   1      35.486  17.442  10.562  0.00  0.00    -0.357 OA
HETATM   14  H   UNK N   1      36.191  18.059  10.535  0.00  0.00     0.217 HD
ENDBRANCH   4  13
BRANCH   5  15
HETATM   15  O   UNK N   1      35.135  19.119   8.436  0.00  0.00    -0.354 OA
HETATM   16  H   UNK N   1      36.008  19.384   8.220  0.00  0.00     0.218 HD
ENDBRANCH   5  15
TORSDOF 2
ENDMDL
MODEL 8
REMARK VINA RESULT:      -5.3     10.778     12.363
REMARK  2 active torsions:
REMARK  status: ('A' for Active; 'I' for Inactive)
REMARK    1  A    between atoms: C_4  and  O_11 
REMARK    2  A    between atoms: C_5  and  O_8 
ROOT
HETATM    1  C   UNK N   1      30.266  17.137   4.780  0.00  0.00     0.031 A 
HETATM    2  C   UNK N   1      31.119  17.284   5.889  0.00  0.00     0.050 A 
HETATM    3  C   UNK N   1      30.559  17.259   7.190  0.00  0.00     0.027 A 
HETATM    4  C   UNK N   1      31.389  17.403   8.301  0.00  0.00     0.117 A 
HETATM    5  C   UNK N   1      32.759  17.569   8.121  0.00  0.00     0.169 A 
HETATM    6  O   UNK N   1      34.499  17.738   6.682  0.00  0.00    -0.265 OA
HETATM    7  C   UNK N   1      33.298  17.591   6.828  0.00  0.00     0.283 A 
HETATM    8  N   UNK N   1      32.472  17.448   5.728  0.00  0.00    -0.316 N 
HETATM    9  C   UNK N   1      33.062  17.475   4.389  0.00  0.00     0.160 C 
HETATM   10  C   UNK N   1      28.890  16.970   4.964  0.00  0.00     0.002 A 
HETATM   11  C   UNK N   1      28.349  16.947   6.250  0.00  0.00     0.001 A 
HETATM   12  C   UNK N   1      29.180  17.091   7.359  0.00  0.00     0.017 A 
ENDROOT
BRANCH   4  13
HETATM   13  O   UNK N   1      30.874  17.382   9.545  0.00  0.00    -0.357 OA
HETATM   14  H   UNK N   1      29.956  17.517   9.674  0.00  0.00     0.217 HD
ENDBRANCH   4  13
BRANCH   5  15
HETATM   15  O   UNK N   1      33.562  17.708   9.192  0.00  0.00    -0.354 OA
HETATM   16  H   UNK N   1      34.409  17.308   9.197  0.00  0.00     0.218 HD
ENDBRANCH   5  15
TORSDOF 2
ENDMDL
MODEL 9
REMARK VINA RESULT:      -5.3     13.407     15.297
REMARK  2 active torsions:
REMARK  status: ('A' for Active; 'I' for Inactive)
REMARK    1  A    between atoms: C_4  and  O_11 
REMARK    2  A    between atoms: C_5  and  O_8 
ROOT
HETATM    1  C   UNK N   1      43.083  19.052   2.079  0.00  0.00     0.031 A 
HETATM    2  C   UNK N   1      43.314  20.391   2.443  0.00  0.00     0.050 A 
HETATM    3  C   UNK N   1      44.497  20.711   3.154  0.00  0.00     0.027 A 
HETATM    4  C   UNK N   1      44.742  22.033   3.523  0.00  0.00     0.117 A 
HETATM    5  C   UNK N   1      43.824  23.024   3.190  0.00  0.00     0.169 A 
HETATM    6  O   UNK N   1      41.861  23.567   2.199  0.00  0.00    -0.265 OA
HETATM    7  C   UNK N   1      42.659  22.691   2.486  0.00  0.00     0.283 A 
HETATM    8  N   UNK N   1      42.418  21.379   2.121  0.00  0.00    -0.316 N 
HETATM    9  C   UNK N   1      41.193  21.060   1.386  0.00  0.00     0.160 C 
HETATM   10  C   UNK N   1      44.007  18.057   2.415  0.00  0.00     0.002 A 
HETATM   11  C   UNK N   1      45.169  18.385   3.116  0.00  0.00     0.001 A 
HETATM   12  C   UNK N   1      45.413  19.706   3.484  0.00  0.00     0.017 A 
ENDROOT
BRANCH   4  13
HETATM   13  O   UNK N   1      45.861  22.356   4.199  0.00  0.00    -0.357 OA
HETATM   14  H   UNK N   1      46.659  22.515   3.736  0.00  0.00     0.217 HD
ENDBRANCH   4  13
BRANCH   5  15
HETATM   15  O   UNK N   1      44.059  24.301   3.545  0.00  0.00    -0.354 OA
HETATM   16  H   UNK N   1      43.779  25.000   2.989  0.00  0.00     0.218 HD
ENDBRANCH   5  15
TORSDOF 2
ENDMDL
