MODEL 1
REMARK VINA RESULT:      -7.6      0.000      0.000
REMARK  5 active torsions:
REMARK  status: ('A' for Active; 'I' for Inactive)
REMARK    1  A    between atoms: C_2  and  N_25 
REMARK       I    between atoms: C_3  and  N_26 
REMARK    2  A    between atoms: C_6  and  C_9 
REMARK    3  A    between atoms: C_10  and  C_16 
REMARK    4  A    between atoms: C_11  and  O_27 
REMARK    5  A    between atoms: C_14  and  O_28 
ROOT
HETATM    1  C   UNK N   1      28.145  18.558   6.353  0.00  0.00     0.059 A 
HETATM    2  C   UNK N   1      29.071  17.508   6.586  0.00  0.00     0.129 A 
HETATM    3  C   UNK N   1      29.204  18.107   8.876  0.00  0.00     0.679 A 
HETATM    4  C   UNK N   1      27.792  19.359   7.462  0.00  0.00     0.135 A 
HETATM    5  C   UNK N   1      27.554  18.858   5.086  0.00  0.00    -0.033 A 
HETATM    6  C   UNK N   1      26.641  19.936   4.984  0.00  0.00    -0.014 A 
HETATM    7  C   UNK N   1      26.354  20.666   6.127  0.00  0.00     0.101 A 
HETATM    8  C   UNK N   1      27.872  18.060   3.858  0.00  0.00     0.050 C 
HETATM    9  N   UNK N   1      29.569  17.317   7.836  0.00  0.00    -0.176 N 
ATOM     10  HN  UNK N   1      30.234  16.560   7.996  1.00  0.00     0.186 HD
HETATM   11  N   UNK N   1      28.324  19.117   8.685  0.00  0.00    -0.176 N 
ATOM     12  HN  UNK N   1      28.057  19.705   9.474  1.00  0.00     0.186 HD
HETATM   13  N   UNK N   1      26.917  20.377   7.319  0.00  0.00    -0.350 N 
ATOM     14  HN  UNK N   1      26.675  20.943   8.133  1.00  0.00     0.166 HD
HETATM   15  N   UNK N   1      29.740  17.880  10.157  0.00  0.00    -0.234 N 
HETATM   16  H   UNK N   1      29.475  18.455  10.911  0.00  0.00     0.174 HD
HETATM   17  H   UNK N   1      30.382  17.146  10.300  0.00  0.00     0.174 HD
ENDROOT
BRANCH   6  18
HETATM   18  C   UNK N   1      26.009  20.269   3.670  0.00  0.00     0.014 C 
HETATM   19  C   UNK N   1      24.767  20.063   3.155  0.00  0.00     0.015 C 
BRANCH  19  20
HETATM   20  C   UNK N   1      23.514  19.423   3.670  0.00  0.00    -0.000 A 
HETATM   21  C   UNK N   1      22.224  19.781   3.160  0.00  0.00     0.078 A 
HETATM   22  C   UNK N   1      21.087  19.145   3.683  0.00  0.00     0.040 A 
HETATM   23  C   UNK N   1      21.189  18.179   4.682  0.00  0.00     0.039 A 
HETATM   24  C   UNK N   1      22.436  17.825   5.183  0.00  0.00     0.069 A 
HETATM   25  C   UNK N   1      23.576  18.451   4.670  0.00  0.00     0.051 A 
BRANCH  21  26
HETATM   26  O   UNK N   1      22.008  20.708   2.188  0.00  0.00    -0.355 OA
HETATM   27  C   UNK N   1      20.962  20.739   1.296  0.00  0.00     0.210 C 
ENDBRANCH  21  26
BRANCH  24  28
HETATM   28  O   UNK N   1      22.520  16.885   6.154  0.00  0.00    -0.356 OA
HETATM   29  C   UNK N   1      21.450  16.506   6.935  0.00  0.00     0.210 C 
ENDBRANCH  24  28
ENDBRANCH  19  20
ENDBRANCH   6  18
BRANCH   2  30
HETATM   30  N   UNK N   1      29.495  16.647   5.553  0.00  0.00    -0.384 N 
HETATM   31  H   UNK N   1      29.770  17.019   4.684  0.00  0.00     0.157 HD
HETATM   32  H   UNK N   1      29.517  15.673   5.701  0.00  0.00     0.157 HD
ENDBRANCH   2  30
TORSDOF 5
ENDMDL
MODEL 2
REMARK VINA RESULT:      -7.2      5.962     10.254
REMARK  5 active torsions:
REMARK  status: ('A' for Active; 'I' for Inactive)
REMARK    1  A    between atoms: C_2  and  N_25 
REMARK       I    between atoms: C_3  and  N_26 
REMARK    2  A    between atoms: C_6  and  C_9 
REMARK    3  A    between atoms: C_10  and  C_16 
REMARK    4  A    between atoms: C_11  and  O_27 
REMARK    5  A    between atoms: C_14  and  O_28 
ROOT
HETATM    1  C   UNK N   1      29.326  17.166   7.476  0.00  0.00     0.059 A 
HETATM    2  C   UNK N   1      28.003  17.359   7.952  0.00  0.00     0.129 A 
HETATM    3  C   UNK N   1      27.166  15.911   6.272  0.00  0.00     0.679 A 
HETATM    4  C   UNK N   1      29.488  16.309   6.365  0.00  0.00     0.135 A 
HETATM    5  C   UNK N   1      30.491  17.773   8.038  0.00  0.00    -0.033 A 
HETATM    6  C   UNK N   1      31.759  17.500   7.470  0.00  0.00    -0.014 A 
HETATM    7  C   UNK N   1      31.821  16.646   6.379  0.00  0.00     0.101 A 
HETATM    8  C   UNK N   1      30.410  18.695   9.217  0.00  0.00     0.050 C 
HETATM    9  N   UNK N   1      26.968  16.727   7.336  0.00  0.00    -0.176 N 
ATOM     10  HN  UNK N   1      26.020  16.870   7.685  1.00  0.00     0.186 HD
HETATM   11  N   UNK N   1      28.415  15.708   5.795  0.00  0.00    -0.176 N 
ATOM     12  HN  UNK N   1      28.551  15.092   4.993  1.00  0.00     0.186 HD
HETATM   13  N   UNK N   1      30.716  16.076   5.855  0.00  0.00    -0.350 N 
ATOM     14  HN  UNK N   1      30.811  15.454   5.052  1.00  0.00     0.166 HD
HETATM   15  N   UNK N   1      26.071  15.273   5.659  0.00  0.00    -0.234 N 
HETATM   16  H   UNK N   1      26.216  14.681   4.885  0.00  0.00     0.174 HD
HETATM   17  H   UNK N   1      25.159  15.419   6.003  0.00  0.00     0.174 HD
ENDROOT
BRANCH   6  18
HETATM   18  C   UNK N   1      32.994  18.123   8.039  0.00  0.00     0.014 C 
HETATM   19  C   UNK N   1      34.091  17.615   8.662  0.00  0.00     0.015 C 
BRANCH  19  20
HETATM   20  C   UNK N   1      34.534  16.235   9.041  0.00  0.00    -0.000 A 
HETATM   21  C   UNK N   1      35.132  15.350   8.087  0.00  0.00     0.078 A 
HETATM   22  C   UNK N   1      35.526  14.068   8.503  0.00  0.00     0.040 A 
HETATM   23  C   UNK N   1      35.347  13.645   9.819  0.00  0.00     0.039 A 
HETATM   24  C   UNK N   1      34.767  14.496  10.751  0.00  0.00     0.069 A 
HETATM   25  C   UNK N   1      34.371  15.775  10.349  0.00  0.00     0.051 A 
BRANCH  21  26
HETATM   26  O   UNK N   1      35.354  15.658   6.780  0.00  0.00    -0.355 OA
HETATM   27  C   UNK N   1      35.126  14.849   5.692  0.00  0.00     0.210 C 
ENDBRANCH  21  26
BRANCH  24  28
HETATM   28  O   UNK N   1      34.599  14.070  12.027  0.00  0.00    -0.356 OA
HETATM   29  C   UNK N   1      35.626  13.999  12.942  0.00  0.00     0.210 C 
ENDBRANCH  24  28
ENDBRANCH  19  20
ENDBRANCH   6  18
BRANCH   2  30
HETATM   30  N   UNK N   1      27.722  18.192   9.055  0.00  0.00    -0.384 N 
HETATM   31  H   UNK N   1      26.789  18.373   9.311  0.00  0.00     0.157 HD
HETATM   32  H   UNK N   1      28.461  18.594   9.568  0.00  0.00     0.157 HD
ENDBRANCH   2  30
TORSDOF 5
ENDMDL
MODEL 3
REMARK VINA RESULT:      -7.1      5.853      8.008
REMARK  5 active torsions:
REMARK  status: ('A' for Active; 'I' for Inactive)
REMARK    1  A    between atoms: C_2  and  N_25 
REMARK       I    between atoms: C_3  and  N_26 
REMARK    2  A    between atoms: C_6  and  C_9 
REMARK    3  A    between atoms: C_10  and  C_16 
REMARK    4  A    between atoms: C_11  and  O_27 
REMARK    5  A    between atoms: C_14  and  O_28 
ROOT
HETATM    1  C   UNK N   1      34.943  15.600   8.685  0.00  0.00     0.059 A 
HETATM    2  C   UNK N   1      35.365  14.344   9.194  0.00  0.00     0.129 A 
HETATM    3  C   UNK N   1      35.901  15.346  11.274  0.00  0.00     0.679 A 
HETATM    4  C   UNK N   1      35.035  16.708   9.556  0.00  0.00     0.135 A 
HETATM    5  C   UNK N   1      34.438  15.817   7.365  0.00  0.00    -0.033 A 
HETATM    6  C   UNK N   1      34.049  17.121   6.976  0.00  0.00    -0.014 A 
HETATM    7  C   UNK N   1      34.174  18.149   7.900  0.00  0.00     0.101 A 
HETATM    8  C   UNK N   1      34.307  14.698   6.376  0.00  0.00     0.050 C 
HETATM    9  N   UNK N   1      35.829  14.258  10.469  0.00  0.00    -0.176 N 
ATOM     10  HN  UNK N   1      36.131  13.352  10.828  1.00  0.00     0.186 HD
HETATM   11  N   UNK N   1      35.507  16.557  10.818  0.00  0.00    -0.176 N 
ATOM     12  HN  UNK N   1      35.566  17.368  11.433  1.00  0.00     0.186 HD
HETATM   13  N   UNK N   1      34.652  17.936   9.144  0.00  0.00    -0.350 N 
ATOM     14  HN  UNK N   1      34.726  18.722   9.789  1.00  0.00     0.166 HD
HETATM   15  N   UNK N   1      36.388  15.219  12.590  0.00  0.00    -0.234 N 
HETATM   16  H   UNK N   1      36.440  16.010  13.174  0.00  0.00     0.174 HD
HETATM   17  H   UNK N   1      36.676  14.339  12.926  0.00  0.00     0.174 HD
ENDROOT
BRANCH   6  18
HETATM   18  C   UNK N   1      33.517  17.375   5.602  0.00  0.00     0.014 C 
HETATM   19  C   UNK N   1      32.261  17.411   5.080  0.00  0.00     0.015 C 
BRANCH  19  20
HETATM   20  C   UNK N   1      30.888  17.216   5.646  0.00  0.00    -0.000 A 
HETATM   21  C   UNK N   1      29.772  16.883   4.812  0.00  0.00     0.078 A 
HETATM   22  C   UNK N   1      28.510  16.713   5.401  0.00  0.00     0.040 A 
HETATM   23  C   UNK N   1      28.323  16.861   6.774  0.00  0.00     0.039 A 
HETATM   24  C   UNK N   1      29.399  17.183   7.592  0.00  0.00     0.069 A 
HETATM   25  C   UNK N   1      30.662  17.355   7.017  0.00  0.00     0.051 A 
BRANCH  21  26
HETATM   26  O   UNK N   1      29.840  16.715   3.463  0.00  0.00    -0.355 OA
HETATM   27  C   UNK N   1      29.405  15.626   2.745  0.00  0.00     0.210 C 
ENDBRANCH  21  26
BRANCH  24  28
HETATM   28  O   UNK N   1      29.202  17.324   8.925  0.00  0.00    -0.356 OA
HETATM   29  C   UNK N   1      29.584  18.442   9.633  0.00  0.00     0.210 C 
ENDBRANCH  24  28
ENDBRANCH  19  20
ENDBRANCH   6  18
BRANCH   2  30
HETATM   30  N   UNK N   1      35.318  13.170   8.413  0.00  0.00    -0.384 N 
HETATM   31  H   UNK N   1      36.110  12.888   7.901  0.00  0.00     0.157 HD
HETATM   32  H   UNK N   1      34.493  12.634   8.381  0.00  0.00     0.157 HD
ENDBRANCH   2  30
TORSDOF 5
ENDMDL
MODEL 4
REMARK VINA RESULT:      -6.9      5.253      7.986
REMARK  5 active torsions:
REMARK  status: ('A' for Active; 'I' for Inactive)
REMARK    1  A    between atoms: C_2  and  N_25 
REMARK       I    between atoms: C_3  and  N_26 
REMARK    2  A    between atoms: C_6  and  C_9 
REMARK    3  A    between atoms: C_10  and  C_16 
REMARK    4  A    between atoms: C_11  and  O_27 
REMARK    5  A    between atoms: C_14  and  O_28 
ROOT
HETATM    1  C   UNK N   1      20.992  17.353   2.846  0.00  0.00     0.059 A 
HETATM    2  C   UNK N   1      20.121  17.978   1.916  0.00  0.00     0.129 A 
HETATM    3  C   UNK N   1      20.963  20.107   2.528  0.00  0.00     0.679 A 
HETATM    4  C   UNK N   1      21.839  18.198   3.598  0.00  0.00     0.135 A 
HETATM    5  C   UNK N   1      21.070  15.943   3.071  0.00  0.00    -0.033 A 
HETATM    6  C   UNK N   1      21.983  15.442   4.029  0.00  0.00    -0.014 A 
HETATM    7  C   UNK N   1      22.775  16.347   4.720  0.00  0.00     0.101 A 
HETATM    8  C   UNK N   1      20.208  14.975   2.317  0.00  0.00     0.050 C 
HETATM    9  N   UNK N   1      20.134  19.331   1.788  0.00  0.00    -0.176 N 
ATOM     10  HN  UNK N   1      19.505  19.773   1.117  1.00  0.00     0.186 HD
HETATM   11  N   UNK N   1      21.805  19.541   3.423  0.00  0.00    -0.176 N 
ATOM     12  HN  UNK N   1      22.424  20.135   3.975  1.00  0.00     0.186 HD
HETATM   13  N   UNK N   1      22.696  17.677   4.502  0.00  0.00    -0.350 N 
ATOM     14  HN  UNK N   1      23.299  18.304   5.034  1.00  0.00     0.166 HD
HETATM   15  N   UNK N   1      20.950  21.506   2.369  0.00  0.00    -0.234 N 
HETATM   16  H   UNK N   1      21.552  22.069   2.908  0.00  0.00     0.174 HD
HETATM   17  H   UNK N   1      20.338  21.922   1.718  0.00  0.00     0.174 HD
ENDROOT
BRANCH   6  18
HETATM   18  C   UNK N   1      22.083  13.972   4.283  0.00  0.00     0.014 C 
HETATM   19  C   UNK N   1      22.016  13.214   5.411  0.00  0.00     0.015 C 
BRANCH  19  20
HETATM   20  C   UNK N   1      21.814  13.517   6.864  0.00  0.00    -0.000 A 
HETATM   21  C   UNK N   1      20.679  14.258   7.326  0.00  0.00     0.078 A 
HETATM   22  C   UNK N   1      20.545  14.511   8.700  0.00  0.00     0.040 A 
HETATM   23  C   UNK N   1      21.491  14.057   9.617  0.00  0.00     0.039 A 
HETATM   24  C   UNK N   1      22.596  13.337   9.179  0.00  0.00     0.069 A 
HETATM   25  C   UNK N   1      22.740  13.080   7.813  0.00  0.00     0.051 A 
BRANCH  21  26
HETATM   26  O   UNK N   1      19.697  14.748   6.521  0.00  0.00    -0.355 OA
HETATM   27  C   UNK N   1      19.301  16.060   6.408  0.00  0.00     0.210 C 
ENDBRANCH  21  26
BRANCH  24  28
HETATM   28  O   UNK N   1      23.507  12.902  10.083  0.00  0.00    -0.356 OA
HETATM   29  C   UNK N   1      24.866  13.069   9.928  0.00  0.00     0.210 C 
ENDBRANCH  24  28
ENDBRANCH  19  20
ENDBRANCH   6  18
BRANCH   2  30
HETATM   30  N   UNK N   1      19.232  17.233   1.113  0.00  0.00    -0.384 N 
HETATM   31  H   UNK N   1      18.291  17.511   1.033  0.00  0.00     0.157 HD
HETATM   32  H   UNK N   1      19.553  16.437   0.631  0.00  0.00     0.157 HD
ENDBRANCH   2  30
TORSDOF 5
ENDMDL
MODEL 5
REMARK VINA RESULT:      -6.8     11.154     13.331
REMARK  5 active torsions:
REMARK  status: ('A' for Active; 'I' for Inactive)
REMARK    1  A    between atoms: C_2  and  N_25 
REMARK       I    between atoms: C_3  and  N_26 
REMARK    2  A    between atoms: C_6  and  C_9 
REMARK    3  A    between atoms: C_10  and  C_16 
REMARK    4  A    between atoms: C_11  and  O_27 
REMARK    5  A    between atoms: C_14  and  O_28 
ROOT
HETATM    1  C   UNK N   1      28.896  22.923  -4.898  0.00  0.00     0.059 A 
HETATM    2  C   UNK N   1      29.863  22.148  -5.590  0.00  0.00     0.129 A 
HETATM    3  C   UNK N   1      31.008  21.725  -3.558  0.00  0.00     0.679 A 
HETATM    4  C   UNK N   1      29.061  23.053  -3.500  0.00  0.00     0.135 A 
HETATM    5  C   UNK N   1      27.780  23.572  -5.511  0.00  0.00    -0.033 A 
HETATM    6  C   UNK N   1      26.884  24.318  -4.708  0.00  0.00    -0.014 A 
HETATM    7  C   UNK N   1      27.126  24.390  -3.344  0.00  0.00     0.101 A 
HETATM    8  C   UNK N   1      27.529  23.486  -6.986  0.00  0.00     0.050 C 
HETATM    9  N   UNK N   1      30.885  21.576  -4.900  0.00  0.00    -0.176 N 
ATOM     10  HN  UNK N   1      31.576  21.020  -5.405  1.00  0.00     0.186 HD
HETATM   11  N   UNK N   1      30.102  22.457  -2.870  0.00  0.00    -0.176 N 
ATOM     12  HN  UNK N   1      30.206  22.562  -1.861  1.00  0.00     0.186 HD
HETATM   13  N   UNK N   1      28.182  23.774  -2.773  0.00  0.00    -0.350 N 
ATOM     14  HN  UNK N   1      28.319  23.856  -1.765  1.00  0.00     0.166 HD
HETATM   15  N   UNK N   1      32.080  21.117  -2.876  0.00  0.00    -0.234 N 
HETATM   16  H   UNK N   1      32.168  21.226  -1.902  0.00  0.00     0.174 HD
HETATM   17  H   UNK N   1      32.742  20.583  -3.374  0.00  0.00     0.174 HD
ENDROOT
BRANCH   6  18
HETATM   18  C   UNK N   1      25.708  25.007  -5.325  0.00  0.00     0.014 C 
HETATM   19  C   UNK N   1      25.455  26.302  -5.655  0.00  0.00     0.015 C 
BRANCH  19  20
HETATM   20  C   UNK N   1      26.229  27.579  -5.545  0.00  0.00    -0.000 A 
HETATM   21  C   UNK N   1      27.204  27.953  -6.526  0.00  0.00     0.078 A 
HETATM   22  C   UNK N   1      27.898  29.163  -6.369  0.00  0.00     0.040 A 
HETATM   23  C   UNK N   1      27.657  30.002  -5.283  0.00  0.00     0.039 A 
HETATM   24  C   UNK N   1      26.713  29.649  -4.326  0.00  0.00     0.069 A 
HETATM   25  C   UNK N   1      26.016  28.446  -4.472  0.00  0.00     0.051 A 
BRANCH  21  26
HETATM   26  O   UNK N   1      27.520  27.211  -7.623  0.00  0.00    -0.355 OA
HETATM   27  C   UNK N   1      28.774  26.802  -8.009  0.00  0.00     0.210 C 
ENDBRANCH  21  26
BRANCH  24  28
HETATM   28  O   UNK N   1      26.490  30.476  -3.276  0.00  0.00    -0.356 OA
HETATM   29  C   UNK N   1      27.482  30.895  -2.418  0.00  0.00     0.210 C 
ENDBRANCH  24  28
ENDBRANCH  19  20
ENDBRANCH   6  18
BRANCH   2  30
HETATM   30  N   UNK N   1      29.798  21.951  -6.985  0.00  0.00    -0.384 N 
HETATM   31  H   UNK N   1      29.219  22.524  -7.537  0.00  0.00     0.157 HD
HETATM   32  H   UNK N   1      30.332  21.239  -7.407  0.00  0.00     0.157 HD
ENDBRANCH   2  30
TORSDOF 5
ENDMDL
MODEL 6
REMARK VINA RESULT:      -6.7      4.020      7.366
REMARK  5 active torsions:
REMARK  status: ('A' for Active; 'I' for Inactive)
REMARK    1  A    between atoms: C_2  and  N_25 
REMARK       I    between atoms: C_3  and  N_26 
REMARK    2  A    between atoms: C_6  and  C_9 
REMARK    3  A    between atoms: C_10  and  C_16 
REMARK    4  A    between atoms: C_11  and  O_27 
REMARK    5  A    between atoms: C_14  and  O_28 
ROOT
HETATM    1  C   UNK N   1      22.517  18.876   3.618  0.00  0.00     0.059 A 
HETATM    2  C   UNK N   1      21.226  19.290   3.199  0.00  0.00     0.129 A 
HETATM    3  C   UNK N   1      20.292  17.266   4.005  0.00  0.00     0.679 A 
HETATM    4  C   UNK N   1      22.613  17.610   4.238  0.00  0.00     0.135 A 
HETATM    5  C   UNK N   1      23.712  19.643   3.457  0.00  0.00    -0.033 A 
HETATM    6  C   UNK N   1      24.942  19.117   3.919  0.00  0.00    -0.014 A 
HETATM    7  C   UNK N   1      24.941  17.865   4.516  0.00  0.00     0.101 A 
HETATM    8  C   UNK N   1      23.701  20.995   2.810  0.00  0.00     0.050 C 
HETATM    9  N   UNK N   1      20.158  18.474   3.405  0.00  0.00    -0.176 N 
ATOM     10  HN  UNK N   1      19.233  18.779   3.101  1.00  0.00     0.186 HD
HETATM   11  N   UNK N   1      21.510  16.843   4.415  0.00  0.00    -0.176 N 
ATOM     12  HN  UNK N   1      21.599  15.931   4.865  1.00  0.00     0.186 HD
HETATM   13  N   UNK N   1      23.808  17.147   4.664  0.00  0.00    -0.350 N 
ATOM     14  HN  UNK N   1      23.855  16.230   5.110  1.00  0.00     0.166 HD
HETATM   15  N   UNK N   1      19.164  16.446   4.202  0.00  0.00    -0.234 N 
HETATM   16  H   UNK N   1      19.263  15.569   4.638  0.00  0.00     0.174 HD
HETATM   17  H   UNK N   1      18.276  16.751   3.905  0.00  0.00     0.174 HD
ENDROOT
BRANCH   6  18
HETATM   18  C   UNK N   1      26.207  19.900   3.762  0.00  0.00     0.014 C 
HETATM   19  C   UNK N   1      27.443  19.794   4.319  0.00  0.00     0.015 C 
BRANCH  19  20
HETATM   20  C   UNK N   1      28.065  18.864   5.315  0.00  0.00    -0.000 A 
HETATM   21  C   UNK N   1      28.727  17.661   4.907  0.00  0.00     0.078 A 
HETATM   22  C   UNK N   1      29.291  16.829   5.887  0.00  0.00     0.040 A 
HETATM   23  C   UNK N   1      29.219  17.150   7.241  0.00  0.00     0.039 A 
HETATM   24  C   UNK N   1      28.580  18.315   7.647  0.00  0.00     0.069 A 
HETATM   25  C   UNK N   1      28.014  19.151   6.680  0.00  0.00     0.051 A 
BRANCH  21  26
HETATM   26  O   UNK N   1      28.856  17.250   3.616  0.00  0.00    -0.355 OA
HETATM   27  C   UNK N   1      29.292  16.020   3.182  0.00  0.00     0.210 C 
ENDBRANCH  21  26
BRANCH  24  28
HETATM   28  O   UNK N   1      28.518  18.614   8.967  0.00  0.00    -0.356 OA
HETATM   29  C   UNK N   1      29.618  18.608   9.796  0.00  0.00     0.210 C 
ENDBRANCH  24  28
ENDBRANCH  19  20
ENDBRANCH   6  18
BRANCH   2  30
HETATM   30  N   UNK N   1      21.011  20.534   2.569  0.00  0.00    -0.384 N 
HETATM   31  H   UNK N   1      20.133  20.973   2.634  0.00  0.00     0.157 HD
HETATM   32  H   UNK N   1      21.740  20.962   2.064  0.00  0.00     0.157 HD
ENDBRANCH   2  30
TORSDOF 5
ENDMDL
MODEL 7
REMARK VINA RESULT:      -6.7      6.058     10.443
REMARK  5 active torsions:
REMARK  status: ('A' for Active; 'I' for Inactive)
REMARK    1  A    between atoms: C_2  and  N_25 
REMARK       I    between atoms: C_3  and  N_26 
REMARK    2  A    between atoms: C_6  and  C_9 
REMARK    3  A    between atoms: C_10  and  C_16 
REMARK    4  A    between atoms: C_11  and  O_27 
REMARK    5  A    between atoms: C_14  and  O_28 
ROOT
HETATM    1  C   UNK N   1      30.857  17.131   5.826  0.00  0.00     0.059 A 
HETATM    2  C   UNK N   1      30.532  16.951   4.456  0.00  0.00     0.129 A 
HETATM    3  C   UNK N   1      28.268  16.541   5.027  0.00  0.00     0.679 A 
HETATM    4  C   UNK N   1      29.803  16.996   6.757  0.00  0.00     0.135 A 
HETATM    5  C   UNK N   1      32.163  17.437   6.321  0.00  0.00    -0.033 A 
HETATM    6  C   UNK N   1      32.358  17.593   7.714  0.00  0.00    -0.014 A 
HETATM    7  C   UNK N   1      31.264  17.441   8.553  0.00  0.00     0.101 A 
HETATM    8  C   UNK N   1      33.337  17.598   5.403  0.00  0.00     0.050 C 
HETATM    9  N   UNK N   1      29.251  16.663   4.102  0.00  0.00    -0.176 N 
ATOM     10  HN  UNK N   1      29.025  16.535   3.115  1.00  0.00     0.186 HD
HETATM   11  N   UNK N   1      28.547  16.707   6.340  0.00  0.00    -0.176 N 
ATOM     12  HN  UNK N   1      27.798  16.613   7.027  1.00  0.00     0.186 HD
HETATM   13  N   UNK N   1      30.034  17.153   8.078  0.00  0.00    -0.350 N 
ATOM     14  HN  UNK N   1      29.259  17.051   8.734  1.00  0.00     0.166 HD
HETATM   15  N   UNK N   1      26.953  16.241   4.623  0.00  0.00    -0.234 N 
HETATM   16  H   UNK N   1      26.239  16.153   5.296  0.00  0.00     0.174 HD
HETATM   17  H   UNK N   1      26.746  16.120   3.668  0.00  0.00     0.174 HD
ENDROOT
BRANCH   6  18
HETATM   18  C   UNK N   1      33.714  17.912   8.258  0.00  0.00     0.014 C 
HETATM   19  C   UNK N   1      34.643  17.183   8.932  0.00  0.00     0.015 C 
BRANCH  19  20
HETATM   20  C   UNK N   1      34.712  15.767   9.416  0.00  0.00    -0.000 A 
HETATM   21  C   UNK N   1      34.768  14.664   8.504  0.00  0.00     0.078 A 
HETATM   22  C   UNK N   1      34.831  13.360   9.018  0.00  0.00     0.040 A 
HETATM   23  C   UNK N   1      34.839  13.119  10.390  0.00  0.00     0.039 A 
HETATM   24  C   UNK N   1      34.784  14.182  11.283  0.00  0.00     0.069 A 
HETATM   25  C   UNK N   1      34.722  15.486  10.783  0.00  0.00     0.051 A 
BRANCH  21  26
HETATM   26  O   UNK N   1      34.766  14.782   7.148  0.00  0.00    -0.355 OA
HETATM   27  C   UNK N   1      35.852  14.688   6.310  0.00  0.00     0.210 C 
ENDBRANCH  21  26
BRANCH  24  28
HETATM   28  O   UNK N   1      34.793  13.933  12.615  0.00  0.00    -0.356 OA
HETATM   29  C   UNK N   1      35.912  14.077  13.405  0.00  0.00     0.210 C 
ENDBRANCH  24  28
ENDBRANCH  19  20
ENDBRANCH   6  18
BRANCH   2  30
HETATM   30  N   UNK N   1      31.503  17.063   3.439  0.00  0.00    -0.384 N 
HETATM   31  H   UNK N   1      31.486  16.446   2.673  0.00  0.00     0.157 HD
HETATM   32  H   UNK N   1      32.198  17.758   3.498  0.00  0.00     0.157 HD
ENDBRANCH   2  30
TORSDOF 5
ENDMDL
MODEL 8
REMARK VINA RESULT:      -6.7      5.208      7.351
REMARK  5 active torsions:
REMARK  status: ('A' for Active; 'I' for Inactive)
REMARK    1  A    between atoms: C_2  and  N_25 
REMARK       I    between atoms: C_3  and  N_26 
REMARK    2  A    between atoms: C_6  and  C_9 
REMARK    3  A    between atoms: C_10  and  C_16 
REMARK    4  A    between atoms: C_11  and  O_27 
REMARK    5  A    between atoms: C_14  and  O_28 
ROOT
HETATM    1  C   UNK N   1      33.843  15.664   8.958  0.00  0.00     0.059 A 
HETATM    2  C   UNK N   1      34.567  16.072  10.108  0.00  0.00     0.129 A 
HETATM    3  C   UNK N   1      34.387  13.891  11.019  0.00  0.00     0.679 A 
HETATM    4  C   UNK N   1      33.415  14.318   8.914  0.00  0.00     0.135 A 
HETATM    5  C   UNK N   1      33.521  16.512   7.853  0.00  0.00    -0.033 A 
HETATM    6  C   UNK N   1      32.791  15.984   6.761  0.00  0.00    -0.014 A 
HETATM    7  C   UNK N   1      32.413  14.650   6.806  0.00  0.00     0.101 A 
HETATM    8  C   UNK N   1      33.935  17.952   7.817  0.00  0.00     0.050 C 
HETATM    9  N   UNK N   1      34.815  15.174  11.099  0.00  0.00    -0.176 N 
ATOM     10  HN  UNK N   1      35.336  15.475  11.923  1.00  0.00     0.186 HD
HETATM   11  N   UNK N   1      33.694  13.472   9.936  0.00  0.00    -0.176 N 
ATOM     12  HN  UNK N   1      33.377  12.503   9.887  1.00  0.00     0.186 HD
HETATM   13  N   UNK N   1      32.721  13.855   7.853  0.00  0.00    -0.350 N 
ATOM     14  HN  UNK N   1      32.421  12.880   7.841  1.00  0.00     0.166 HD
HETATM   15  N   UNK N   1      34.662  12.989  12.065  0.00  0.00    -0.234 N 
HETATM   16  H   UNK N   1      34.350  12.056  12.006  0.00  0.00     0.174 HD
HETATM   17  H   UNK N   1      35.166  13.290  12.856  0.00  0.00     0.174 HD
ENDROOT
BRANCH   6  18
HETATM   18  C   UNK N   1      32.442  16.850   5.594  0.00  0.00     0.014 C 
HETATM   19  C   UNK N   1      31.262  17.306   5.092  0.00  0.00     0.015 C 
BRANCH  19  20
HETATM   20  C   UNK N   1      29.826  17.142   5.483  0.00  0.00    -0.000 A 
HETATM   21  C   UNK N   1      28.810  16.865   4.512  0.00  0.00     0.078 A 
HETATM   22  C   UNK N   1      27.481  16.722   4.940  0.00  0.00     0.040 A 
HETATM   23  C   UNK N   1      27.134  16.842   6.284  0.00  0.00     0.039 A 
HETATM   24  C   UNK N   1      28.112  17.110   7.234  0.00  0.00     0.069 A 
HETATM   25  C   UNK N   1      29.439  17.255   6.820  0.00  0.00     0.051 A 
BRANCH  21  26
HETATM   26  O   UNK N   1      29.035  16.728   3.176  0.00  0.00    -0.355 OA
HETATM   27  C   UNK N   1      29.272  15.557   2.497  0.00  0.00     0.210 C 
ENDBRANCH  21  26
BRANCH  24  28
HETATM   28  O   UNK N   1      27.759  17.224   8.537  0.00  0.00    -0.356 OA
HETATM   29  C   UNK N   1      28.475  17.964   9.453  0.00  0.00     0.210 C 
ENDBRANCH  24  28
ENDBRANCH  19  20
ENDBRANCH   6  18
BRANCH   2  30
HETATM   30  N   UNK N   1      35.043  17.391  10.259  0.00  0.00    -0.384 N 
HETATM   31  H   UNK N   1      35.510  17.834   9.514  0.00  0.00     0.157 HD
HETATM   32  H   UNK N   1      34.908  17.868  11.110  0.00  0.00     0.157 HD
ENDBRANCH   2  30
TORSDOF 5
ENDMDL
MODEL 9
REMARK VINA RESULT:      -6.6      2.071      3.499
REMARK  5 active torsions:
REMARK  status: ('A' for Active; 'I' for Inactive)
REMARK    1  A    between atoms: C_2  and  N_25 
REMARK       I    between atoms: C_3  and  N_26 
REMARK    2  A    between atoms: C_6  and  C_9 
REMARK    3  A    between atoms: C_10  and  C_16 
REMARK    4  A    between atoms: C_11  and  O_27 
REMARK    5  A    between atoms: C_14  and  O_28 
ROOT
HETATM    1  C   UNK N   1      29.370  17.912   7.268  0.00  0.00     0.059 A 
HETATM    2  C   UNK N   1      29.369  17.945   8.686  0.00  0.00     0.129 A 
HETATM    3  C   UNK N   1      31.115  16.343   8.746  0.00  0.00     0.679 A 
HETATM    4  C   UNK N   1      30.299  17.045   6.648  0.00  0.00     0.135 A 
HETATM    5  C   UNK N   1      28.506  18.686   6.433  0.00  0.00    -0.033 A 
HETATM    6  C   UNK N   1      28.606  18.563   5.026  0.00  0.00    -0.014 A 
HETATM    7  C   UNK N   1      29.548  17.686   4.507  0.00  0.00     0.101 A 
HETATM    8  C   UNK N   1      27.492  19.630   7.006  0.00  0.00     0.050 C 
HETATM    9  N   UNK N   1      30.239  17.162   9.378  0.00  0.00    -0.176 N 
ATOM     10  HN  UNK N   1      30.232  17.192  10.398  1.00  0.00     0.186 HD
HETATM   11  N   UNK N   1      31.140  16.289   7.394  0.00  0.00    -0.176 N 
ATOM     12  HN  UNK N   1      31.804  15.669   6.930  1.00  0.00     0.186 HD
HETATM   13  N   UNK N   1      30.360  16.958   5.302  0.00  0.00    -0.350 N 
ATOM     14  HN  UNK N   1      31.038  16.327   4.875  1.00  0.00     0.166 HD
HETATM   15  N   UNK N   1      32.002  15.546   9.494  0.00  0.00    -0.234 N 
HETATM   16  H   UNK N   1      32.638  14.952   9.034  0.00  0.00     0.174 HD
HETATM   17  H   UNK N   1      31.987  15.582  10.479  0.00  0.00     0.174 HD
ENDROOT
BRANCH   6  18
HETATM   18  C   UNK N   1      27.714  19.361   4.130  0.00  0.00     0.014 C 
HETATM   19  C   UNK N   1      26.414  19.229   3.752  0.00  0.00     0.015 C 
BRANCH  19  20
HETATM   20  C   UNK N   1      25.330  18.243   4.061  0.00  0.00    -0.000 A 
HETATM   21  C   UNK N   1      25.348  16.914   3.527  0.00  0.00     0.078 A 
HETATM   22  C   UNK N   1      24.304  16.036   3.853  0.00  0.00     0.040 A 
HETATM   23  C   UNK N   1      23.255  16.430   4.682  0.00  0.00     0.039 A 
HETATM   24  C   UNK N   1      23.228  17.717   5.205  0.00  0.00     0.069 A 
HETATM   25  C   UNK N   1      24.263  18.601   4.887  0.00  0.00     0.051 A 
BRANCH  21  26
HETATM   26  O   UNK N   1      26.320  16.424   2.710  0.00  0.00    -0.355 OA
HETATM   27  C   UNK N   1      26.261  15.276   1.955  0.00  0.00     0.210 C 
ENDBRANCH  21  26
BRANCH  24  28
HETATM   28  O   UNK N   1      22.202  18.086   6.010  0.00  0.00    -0.356 OA
HETATM   29  C   UNK N   1      21.177  17.237   6.367  0.00  0.00     0.210 C 
ENDBRANCH  24  28
ENDBRANCH  19  20
ENDBRANCH   6  18
BRANCH   2  30
HETATM   30  N   UNK N   1      28.485  18.773   9.411  0.00  0.00    -0.384 N 
HETATM   31  H   UNK N   1      27.632  19.052   9.008  0.00  0.00     0.157 HD
HETATM   32  H   UNK N   1      28.723  19.070  10.319  0.00  0.00     0.157 HD
ENDBRANCH   2  30
TORSDOF 5
ENDMDL
