REMARK  5 active torsions:
REMARK  status: ('A' for Active; 'I' for Inactive)
REMARK    1  A    between atoms: C_2  and  N_25 
REMARK       I    between atoms: C_3  and  N_26 
REMARK    2  A    between atoms: C_6  and  C_9 
REMARK    3  A    between atoms: C_10  and  C_16 
REMARK    4  A    between atoms: C_11  and  O_27 
REMARK    5  A    between atoms: C_14  and  O_28 
ROOT
HETATM    1  C   UNK N   1      -2.396  -1.710  -0.000  0.00  0.00     0.059 A 
HETATM    2  C   UNK N   1      -3.531  -2.562   0.000  0.00  0.00     0.129 A 
HETATM    3  C   UNK N   1      -4.970  -0.678  -0.000  0.00  0.00     0.679 A 
HETATM    4  C   UNK N   1      -2.640  -0.318  -0.000  0.00  0.00     0.135 A 
HETATM    5  C   UNK N   1      -1.039  -2.159   0.000  0.00  0.00    -0.033 A 
HETATM    6  C   UNK N   1       0.008  -1.206  -0.000  0.00  0.00    -0.014 A 
HETATM    7  C   UNK N   1      -0.327   0.140  -0.000  0.00  0.00     0.101 A 
HETATM    8  C   UNK N   1      -0.690  -3.617   0.000  0.00  0.00     0.050 C 
HETATM    9  N   UNK N   1      -4.778  -2.020   0.000  0.00  0.00    -0.176 N 
ATOM     10  HN  UNK N   1      -5.589  -2.639   0.000  1.00  0.00     0.186 HD
HETATM   11  N   UNK N   1      -3.908   0.160  -0.000  0.00  0.00    -0.176 N 
ATOM     12  HN  UNK N   1      -4.065   1.168  -0.000  1.00  0.00     0.186 HD
HETATM   13  N   UNK N   1      -1.611   0.556  -0.000  0.00  0.00    -0.350 N 
ATOM     14  HN  UNK N   1      -1.809   1.557  -0.000  1.00  0.00     0.166 HD
HETATM   15  N   UNK N   1      -6.276  -0.152  -0.000  0.00  0.00    -0.234 N 
HETATM   16  H   UNK N   1      -6.414   0.823  -0.000  0.00  0.00     0.174 HD
HETATM   17  H   UNK N   1      -7.052  -0.759  -0.000  0.00  0.00     0.174 HD
ENDROOT
BRANCH   6  18
HETATM   18  C   UNK N   1       1.436  -1.650  -0.000  0.00  0.00     0.014 C 
HETATM   19  C   UNK N   1       2.620  -0.980  -0.000  0.00  0.00     0.015 C 
BRANCH  19  20
HETATM   20  C   UNK N   1       3.002   0.468   0.000  0.00  0.00    -0.000 A 
HETATM   21  C   UNK N   1       4.373   0.883  -0.000  0.00  0.00     0.078 A 
HETATM   22  C   UNK N   1       4.668   2.255   0.000  0.00  0.00     0.040 A 
HETATM   23  C   UNK N   1       3.658   3.215   0.000  0.00  0.00     0.039 A 
HETATM   24  C   UNK N   1       2.325   2.823   0.000  0.00  0.00     0.069 A 
HETATM   25  C   UNK N   1       2.019   1.459   0.000  0.00  0.00     0.051 A 
BRANCH  21  26
HETATM   26  O   UNK N   1       5.437   0.034  -0.000  0.00  0.00    -0.355 OA
HETATM   27  C   UNK N   1       5.395  -1.340  -0.000  0.00  0.00     0.210 C 
ENDBRANCH  21  26
BRANCH  24  28
HETATM   28  O   UNK N   1       1.354   3.768   0.000  0.00  0.00    -0.356 OA
HETATM   29  C   UNK N   1       0.009   3.471   0.000  0.00  0.00     0.210 C 
ENDBRANCH  24  28
ENDBRANCH  19  20
ENDBRANCH   6  18
BRANCH   2  30
HETATM   30  N   UNK N   1      -3.407  -3.967   0.000  0.00  0.00    -0.384 N 
HETATM   31  H   UNK N   1      -4.213  -4.532   0.000  0.00  0.00     0.157 HD
HETATM   32  H   UNK N   1      -2.514  -4.382   0.000  0.00  0.00     0.157 HD
ENDBRANCH   2  30
TORSDOF 5
