REMARK  14 active torsions:
REMARK  status: ('A' for Active; 'I' for Inactive)
REMARK    1  A    between atoms: C_2  and  C_3 
REMARK    2  A    between atoms: C_3  and  O_4 
REMARK    3  A    between atoms: O_4  and  C_5 
REMARK    4  A    between atoms: C_5  and  C_6 
REMARK    5  A    between atoms: C_6  and  O_7 
REMARK    6  A    between atoms: O_7  and  C_8 
REMARK    7  A    between atoms: C_8  and  C_9 
REMARK    8  A    between atoms: C_9  and  O_10 
REMARK    9  A    between atoms: O_10  and  C_11 
REMARK   10  A    between atoms: C_11  and  C_12 
REMARK   11  A    between atoms: C_12  and  C_13 
REMARK   12  A    between atoms: C_13  and  N_14 
REMARK   13  A    between atoms: N_14  and  C_15 
REMARK   14  A    between atoms: C_18  and  N_21 
ROOT
HETATM    1  C   UNK N   1       2.787   1.463  -0.032  0.00  0.00     0.046 C 
ENDROOT
BRANCH   1   2
HETATM    2  C   UNK N   1       1.508   0.829   0.480  0.00  0.00     0.169 C 
BRANCH   2   3
HETATM    3  O   UNK N   1       0.398   1.395  -0.147  0.00  0.00    -0.389 OA
BRANCH   3   4
HETATM    4  C   UNK N   1      -0.423   0.311  -0.472  0.00  0.00     0.193 C 
BRANCH   4   5
HETATM    5  C   UNK N   1      -1.632   0.286   0.452  0.00  0.00     0.193 C 
BRANCH   5   6
HETATM    6  O   UNK N   1      -2.557  -0.665   0.011  0.00  0.00    -0.387 OA
BRANCH   6   7
HETATM    7  C   UNK N   1      -3.639   0.078  -0.469  0.00  0.00     0.193 C 
BRANCH   7   8
HETATM    8  C   UNK N   1      -4.875  -0.186   0.375  0.00  0.00     0.193 C 
BRANCH   8   9
HETATM    9  O   UNK N   1      -5.898   0.675  -0.027  0.00  0.00    -0.389 OA
BRANCH   9  10
HETATM   10  C   UNK N   1      -7.030  -0.129  -0.166  0.00  0.00     0.167 C 
BRANCH  10  11
HETATM   11  C   UNK N   1      -8.267   0.701   0.118  0.00  0.00     0.022 C 
HETATM   12  C   UNK N   1      -9.509  -0.152  -0.034  0.00  0.00     0.007 C 
ENDBRANCH  10  11
ENDBRANCH   9  10
ENDBRANCH   8   9
ENDBRANCH   7   8
ENDBRANCH   6   7
ENDBRANCH   5   6
ENDBRANCH   4   5
ENDBRANCH   3   4
ENDBRANCH   2   3
ENDBRANCH   1   2
BRANCH   1  13
HETATM   13  C   UNK N   1       3.868   0.409   0.025  0.00  0.00     0.122 C 
BRANCH  13  14
HETATM   14  N   UNK N   1       5.180   0.994  -0.048  0.00  0.00    -0.385 N 
HETATM   15  H   UNK N   1       5.285   1.971  -0.109  0.00  0.00     0.159 HD
BRANCH  14  16
HETATM   16  C   UNK N   1       6.320   0.153  -0.032  0.00  0.00     0.113 A 
HETATM   17  C   UNK N   1       7.774   0.353  -0.024  0.00  0.00     0.252 A 
HETATM   18  C   UNK N   1       7.917  -1.094  -0.001  0.00  0.00     0.252 A 
HETATM   19  O   UNK N   1       8.533   1.309  -0.021  0.00  0.00    -0.281 OA
HETATM   20  C   UNK N   1       6.457  -1.182  -0.011  0.00  0.00     0.111 A 
HETATM   21  O   UNK N   1       8.842  -1.890   0.026  0.00  0.00    -0.281 OA
BRANCH  20  22
HETATM   22  N   UNK N   1       5.518  -2.237  -0.002  0.00  0.00    -0.394 N 
HETATM   23  H   UNK N   1       4.554  -2.038   0.005  0.00  0.00     0.156 HD
HETATM   24  H   UNK N   1       5.828  -3.171  -0.002  0.00  0.00     0.156 HD
ENDBRANCH  20  22
ENDBRANCH  14  16
ENDBRANCH  13  14
ENDBRANCH   1  13
TORSDOF 14
