MODEL 1
REMARK VINA RESULT:      -5.2      0.000      0.000
REMARK  14 active torsions:
REMARK  status: ('A' for Active; 'I' for Inactive)
REMARK    1  A    between atoms: C_2  and  C_3 
REMARK    2  A    between atoms: C_3  and  O_4 
REMARK    3  A    between atoms: O_4  and  C_5 
REMARK    4  A    between atoms: C_5  and  C_6 
REMARK    5  A    between atoms: C_6  and  O_7 
REMARK    6  A    between atoms: O_7  and  C_8 
REMARK    7  A    between atoms: C_8  and  C_9 
REMARK    8  A    between atoms: C_9  and  O_10 
REMARK    9  A    between atoms: O_10  and  C_11 
REMARK   10  A    between atoms: C_11  and  C_12 
REMARK   11  A    between atoms: C_12  and  C_13 
REMARK   12  A    between atoms: C_13  and  N_14 
REMARK   13  A    between atoms: N_14  and  C_15 
REMARK   14  A    between atoms: C_18  and  N_21 
ROOT
HETATM    1  C   UNK N   1      34.595  12.995   8.463  0.00  0.00     0.046 C 
ENDROOT
BRANCH   1   2
HETATM    2  C   UNK N   1      36.068  13.086   8.813  0.00  0.00     0.169 C 
BRANCH   2   3
HETATM    3  O   UNK N   1      36.311  14.202   9.613  0.00  0.00    -0.389 OA
BRANCH   3   4
HETATM    4  C   UNK N   1      36.888  13.690  10.779  0.00  0.00     0.193 C 
BRANCH   4   5
HETATM    5  C   UNK N   1      35.874  13.723  11.913  0.00  0.00     0.193 C 
BRANCH   5   6
HETATM    6  O   UNK N   1      36.148  14.788  12.775  0.00  0.00    -0.387 OA
BRANCH   6   7
HETATM    7  C   UNK N   1      36.292  14.205  14.037  0.00  0.00     0.193 C 
BRANCH   7   8
HETATM    8  C   UNK N   1      35.360  13.012  14.175  0.00  0.00     0.193 C 
BRANCH   8   9
HETATM    9  O   UNK N   1      34.587  13.165  15.328  0.00  0.00    -0.389 OA
BRANCH   9  10
HETATM   10  C   UNK N   1      35.399  12.745  16.382  0.00  0.00     0.167 C 
BRANCH  10  11
HETATM   11  C   UNK N   1      35.257  13.718  17.536  0.00  0.00     0.022 C 
HETATM   12  C   UNK N   1      35.123  12.959  18.840  0.00  0.00     0.007 C 
ENDBRANCH  10  11
ENDBRANCH   9  10
ENDBRANCH   8   9
ENDBRANCH   7   8
ENDBRANCH   6   7
ENDBRANCH   5   6
ENDBRANCH   4   5
ENDBRANCH   3   4
ENDBRANCH   2   3
ENDBRANCH   1   2
BRANCH   1  13
HETATM   13  C   UNK N   1      34.287  14.123   7.506  0.00  0.00     0.122 C 
BRANCH  13  14
HETATM   14  N   UNK N   1      33.526  15.163   8.143  0.00  0.00    -0.385 N 
HETATM   15  H   UNK N   1      32.637  14.969   8.519  0.00  0.00     0.159 HD
BRANCH  14  16
HETATM   16  C   UNK N   1      34.065  16.471   8.226  0.00  0.00     0.113 A 
HETATM   17  C   UNK N   1      34.267  17.586   7.293  0.00  0.00     0.252 A 
HETATM   18  C   UNK N   1      34.840  18.335   8.400  0.00  0.00     0.252 A 
HETATM   19  O   UNK N   1      34.040  17.800   6.113  0.00  0.00    -0.281 OA
HETATM   20  C   UNK N   1      34.595  17.166   9.244  0.00  0.00     0.111 A 
HETATM   21  O   UNK N   1      35.309  19.450   8.562  0.00  0.00    -0.281 OA
BRANCH  20  22
HETATM   22  N   UNK N   1      34.814  16.850  10.603  0.00  0.00    -0.394 N 
HETATM   23  H   UNK N   1      35.004  15.921  10.868  0.00  0.00     0.156 HD
HETATM   24  H   UNK N   1      34.776  17.559  11.285  0.00  0.00     0.156 HD
ENDBRANCH  20  22
ENDBRANCH  14  16
ENDBRANCH  13  14
ENDBRANCH   1  13
TORSDOF 14
ENDMDL
MODEL 2
REMARK VINA RESULT:      -5.1     13.516     15.092
REMARK  14 active torsions:
REMARK  status: ('A' for Active; 'I' for Inactive)
REMARK    1  A    between atoms: C_2  and  C_3 
REMARK    2  A    between atoms: C_3  and  O_4 
REMARK    3  A    between atoms: O_4  and  C_5 
REMARK    4  A    between atoms: C_5  and  C_6 
REMARK    5  A    between atoms: C_6  and  O_7 
REMARK    6  A    between atoms: O_7  and  C_8 
REMARK    7  A    between atoms: C_8  and  C_9 
REMARK    8  A    between atoms: C_9  and  O_10 
REMARK    9  A    between atoms: O_10  and  C_11 
REMARK   10  A    between atoms: C_11  and  C_12 
REMARK   11  A    between atoms: C_12  and  C_13 
REMARK   12  A    between atoms: C_13  and  N_14 
REMARK   13  A    between atoms: N_14  and  C_15 
REMARK   14  A    between atoms: C_18  and  N_21 
ROOT
HETATM    1  C   UNK N   1      21.959  16.995   5.612  0.00  0.00     0.046 C 
ENDROOT
BRANCH   1   2
HETATM    2  C   UNK N   1      20.478  16.738   5.411  0.00  0.00     0.169 C 
BRANCH   2   3
HETATM    3  O   UNK N   1      19.966  15.985   6.467  0.00  0.00    -0.389 OA
BRANCH   3   4
HETATM    4  C   UNK N   1      19.920  16.869   7.550  0.00  0.00     0.193 C 
BRANCH   4   5
HETATM    5  C   UNK N   1      20.101  16.100   8.850  0.00  0.00     0.193 C 
BRANCH   5   6
HETATM    6  O   UNK N   1      19.877  14.736   8.639  0.00  0.00    -0.387 OA
BRANCH   6   7
HETATM    7  C   UNK N   1      20.797  14.086   9.468  0.00  0.00     0.193 C 
BRANCH   7   8
HETATM    8  C   UNK N   1      22.088  13.817   8.712  0.00  0.00     0.193 C 
BRANCH   8   9
HETATM    9  O   UNK N   1      22.852  12.892   9.425  0.00  0.00    -0.389 OA
BRANCH   9  10
HETATM   10  C   UNK N   1      22.124  12.618  10.584  0.00  0.00     0.167 C 
BRANCH  10  11
HETATM   11  C   UNK N   1      23.053  12.029  11.627  0.00  0.00     0.022 C 
HETATM   12  C   UNK N   1      24.482  12.061  11.126  0.00  0.00     0.007 C 
ENDBRANCH  10  11
ENDBRANCH   9  10
ENDBRANCH   8   9
ENDBRANCH   7   8
ENDBRANCH   6   7
ENDBRANCH   5   6
ENDBRANCH   4   5
ENDBRANCH   3   4
ENDBRANCH   2   3
ENDBRANCH   1   2
BRANCH   1  13
HETATM   13  C   UNK N   1      22.259  18.368   5.059  0.00  0.00     0.122 C 
BRANCH  13  14
HETATM   14  N   UNK N   1      21.073  19.002   4.547  0.00  0.00    -0.385 N 
HETATM   15  H   UNK N   1      20.262  19.059   5.103  0.00  0.00     0.159 HD
BRANCH  14  16
HETATM   16  C   UNK N   1      21.081  19.542   3.238  0.00  0.00     0.113 A 
HETATM   17  C   UNK N   1      21.861  20.561   2.525  0.00  0.00     0.252 A 
HETATM   18  C   UNK N   1      21.055  20.276   1.349  0.00  0.00     0.252 A 
HETATM   19  O   UNK N   1      22.788  21.308   2.793  0.00  0.00    -0.281 OA
HETATM   20  C   UNK N   1      20.340  19.282   2.149  0.00  0.00     0.111 A 
HETATM   21  O   UNK N   1      21.002  20.676   0.197  0.00  0.00    -0.281 OA
BRANCH  20  22
HETATM   22  N   UNK N   1      19.279  18.381   1.911  0.00  0.00    -0.394 N 
HETATM   23  H   UNK N   1      18.795  18.406   1.054  0.00  0.00     0.156 HD
HETATM   24  H   UNK N   1      19.023  17.729   2.602  0.00  0.00     0.156 HD
ENDBRANCH  20  22
ENDBRANCH  14  16
ENDBRANCH  13  14
ENDBRANCH   1  13
TORSDOF 14
ENDMDL
MODEL 3
REMARK VINA RESULT:      -5.0     12.882     15.765
REMARK  14 active torsions:
REMARK  status: ('A' for Active; 'I' for Inactive)
REMARK    1  A    between atoms: C_2  and  C_3 
REMARK    2  A    between atoms: C_3  and  O_4 
REMARK    3  A    between atoms: O_4  and  C_5 
REMARK    4  A    between atoms: C_5  and  C_6 
REMARK    5  A    between atoms: C_6  and  O_7 
REMARK    6  A    between atoms: O_7  and  C_8 
REMARK    7  A    between atoms: C_8  and  C_9 
REMARK    8  A    between atoms: C_9  and  O_10 
REMARK    9  A    between atoms: O_10  and  C_11 
REMARK   10  A    between atoms: C_11  and  C_12 
REMARK   11  A    between atoms: C_12  and  C_13 
REMARK   12  A    between atoms: C_13  and  N_14 
REMARK   13  A    between atoms: N_14  and  C_15 
REMARK   14  A    between atoms: C_18  and  N_21 
ROOT
HETATM    1  C   UNK N   1      20.633  15.826   1.009  0.00  0.00     0.046 C 
ENDROOT
BRANCH   1   2
HETATM    2  C   UNK N   1      19.871  15.363   2.236  0.00  0.00     0.169 C 
BRANCH   2   3
HETATM    3  O   UNK N   1      20.559  15.712   3.398  0.00  0.00    -0.389 OA
BRANCH   3   4
HETATM    4  C   UNK N   1      21.715  14.925   3.382  0.00  0.00     0.193 C 
BRANCH   4   5
HETATM    5  C   UNK N   1      22.651  15.362   4.499  0.00  0.00     0.193 C 
BRANCH   5   6
HETATM    6  O   UNK N   1      23.569  16.301   4.020  0.00  0.00    -0.387 OA
BRANCH   6   7
HETATM    7  C   UNK N   1      24.150  16.855   5.164  0.00  0.00     0.193 C 
BRANCH   7   8
HETATM    8  C   UNK N   1      25.155  17.927   4.778  0.00  0.00     0.193 C 
BRANCH   8   9
HETATM    9  O   UNK N   1      24.470  19.076   4.377  0.00  0.00    -0.389 OA
BRANCH   9  10
HETATM   10  C   UNK N   1      25.421  20.098   4.380  0.00  0.00     0.167 C 
BRANCH  10  11
HETATM   11  C   UNK N   1      26.298  19.957   5.609  0.00  0.00     0.022 C 
HETATM   12  C   UNK N   1      27.588  20.726   5.415  0.00  0.00     0.007 C 
ENDBRANCH  10  11
ENDBRANCH   9  10
ENDBRANCH   8   9
ENDBRANCH   7   8
ENDBRANCH   6   7
ENDBRANCH   5   6
ENDBRANCH   4   5
ENDBRANCH   3   4
ENDBRANCH   2   3
ENDBRANCH   1   2
BRANCH   1  13
HETATM   13  C   UNK N   1      19.922  17.045   0.469  0.00  0.00     0.122 C 
BRANCH  13  14
HETATM   14  N   UNK N   1      19.570  17.960   1.522  0.00  0.00    -0.385 N 
HETATM   15  H   UNK N   1      18.709  17.868   1.992  0.00  0.00     0.159 HD
BRANCH  14  16
HETATM   16  C   UNK N   1      20.470  18.995   1.876  0.00  0.00     0.113 A 
HETATM   17  C   UNK N   1      21.025  20.179   1.209  0.00  0.00     0.252 A 
HETATM   18  C   UNK N   1      21.757  20.456   2.435  0.00  0.00     0.252 A 
HETATM   19  O   UNK N   1      20.912  20.710   0.116  0.00  0.00    -0.281 OA
HETATM   20  C   UNK N   1      21.148  19.255   3.004  0.00  0.00     0.111 A 
HETATM   21  O   UNK N   1      22.531  21.316   2.826  0.00  0.00    -0.281 OA
BRANCH  20  22
HETATM   22  N   UNK N   1      21.217  18.592   4.249  0.00  0.00    -0.394 N 
HETATM   23  H   UNK N   1      22.027  18.088   4.494  0.00  0.00     0.156 HD
HETATM   24  H   UNK N   1      20.456  18.633   4.871  0.00  0.00     0.156 HD
ENDBRANCH  20  22
ENDBRANCH  14  16
ENDBRANCH  13  14
ENDBRANCH   1  13
TORSDOF 14
ENDMDL
MODEL 4
REMARK VINA RESULT:      -4.9      3.075      3.840
REMARK  14 active torsions:
REMARK  status: ('A' for Active; 'I' for Inactive)
REMARK    1  A    between atoms: C_2  and  C_3 
REMARK    2  A    between atoms: C_3  and  O_4 
REMARK    3  A    between atoms: O_4  and  C_5 
REMARK    4  A    between atoms: C_5  and  C_6 
REMARK    5  A    between atoms: C_6  and  O_7 
REMARK    6  A    between atoms: O_7  and  C_8 
REMARK    7  A    between atoms: C_8  and  C_9 
REMARK    8  A    between atoms: C_9  and  O_10 
REMARK    9  A    between atoms: O_10  and  C_11 
REMARK   10  A    between atoms: C_11  and  C_12 
REMARK   11  A    between atoms: C_12  and  C_13 
REMARK   12  A    between atoms: C_13  and  N_14 
REMARK   13  A    between atoms: N_14  and  C_15 
REMARK   14  A    between atoms: C_18  and  N_21 
ROOT
HETATM    1  C   UNK N   1      34.438  16.962   7.526  0.00  0.00     0.046 C 
ENDROOT
BRANCH   1   2
HETATM    2  C   UNK N   1      34.968  16.298   8.782  0.00  0.00     0.169 C 
BRANCH   2   3
HETATM    3  O   UNK N   1      35.287  17.257   9.743  0.00  0.00    -0.389 OA
BRANCH   3   4
HETATM    4  C   UNK N   1      35.363  16.549  10.946  0.00  0.00     0.193 C 
BRANCH   4   5
HETATM    5  C   UNK N   1      34.853  15.130  10.741  0.00  0.00     0.193 C 
BRANCH   5   6
HETATM    6  O   UNK N   1      34.484  14.568  11.967  0.00  0.00    -0.387 OA
BRANCH   6   7
HETATM    7  C   UNK N   1      35.671  14.483  12.699  0.00  0.00     0.193 C 
BRANCH   7   8
HETATM    8  C   UNK N   1      35.830  13.090  13.284  0.00  0.00     0.193 C 
BRANCH   8   9
HETATM    9  O   UNK N   1      34.644  12.721  13.921  0.00  0.00    -0.389 OA
BRANCH   9  10
HETATM   10  C   UNK N   1      34.386  11.414  13.504  0.00  0.00     0.167 C 
BRANCH  10  11
HETATM   11  C   UNK N   1      33.648  10.677  14.605  0.00  0.00     0.022 C 
HETATM   12  C   UNK N   1      34.542  10.530  15.818  0.00  0.00     0.007 C 
ENDBRANCH  10  11
ENDBRANCH   9  10
ENDBRANCH   8   9
ENDBRANCH   7   8
ENDBRANCH   6   7
ENDBRANCH   5   6
ENDBRANCH   4   5
ENDBRANCH   3   4
ENDBRANCH   2   3
ENDBRANCH   1   2
BRANCH   1  13
HETATM   13  C   UNK N   1      33.565  18.116   7.959  0.00  0.00     0.122 C 
BRANCH  13  14
HETATM   14  N   UNK N   1      32.514  17.682   8.840  0.00  0.00    -0.385 N 
HETATM   15  H   UNK N   1      32.724  17.389   9.756  0.00  0.00     0.159 HD
BRANCH  14  16
HETATM   16  C   UNK N   1      31.174  17.678   8.378  0.00  0.00     0.113 A 
HETATM   17  C   UNK N   1      30.486  17.258   7.152  0.00  0.00     0.252 A 
HETATM   18  C   UNK N   1      29.242  17.689   7.769  0.00  0.00     0.252 A 
HETATM   19  O   UNK N   1      30.808  16.753   6.088  0.00  0.00    -0.281 OA
HETATM   20  C   UNK N   1      30.023  18.075   8.944  0.00  0.00     0.111 A 
HETATM   21  O   UNK N   1      28.062  17.711   7.457  0.00  0.00    -0.281 OA
BRANCH  20  22
HETATM   22  N   UNK N   1      29.725  18.645  10.201  0.00  0.00    -0.394 N 
HETATM   23  H   UNK N   1      28.880  19.132  10.333  0.00  0.00     0.156 HD
HETATM   24  H   UNK N   1      30.363  18.555  10.945  0.00  0.00     0.156 HD
ENDBRANCH  20  22
ENDBRANCH  14  16
ENDBRANCH  13  14
ENDBRANCH   1  13
TORSDOF 14
ENDMDL
MODEL 5
REMARK VINA RESULT:      -4.9     14.270     16.186
REMARK  14 active torsions:
REMARK  status: ('A' for Active; 'I' for Inactive)
REMARK    1  A    between atoms: C_2  and  C_3 
REMARK    2  A    between atoms: C_3  and  O_4 
REMARK    3  A    between atoms: O_4  and  C_5 
REMARK    4  A    between atoms: C_5  and  C_6 
REMARK    5  A    between atoms: C_6  and  O_7 
REMARK    6  A    between atoms: O_7  and  C_8 
REMARK    7  A    between atoms: C_8  and  C_9 
REMARK    8  A    between atoms: C_9  and  O_10 
REMARK    9  A    between atoms: O_10  and  C_11 
REMARK   10  A    between atoms: C_11  and  C_12 
REMARK   11  A    between atoms: C_12  and  C_13 
REMARK   12  A    between atoms: C_13  and  N_14 
REMARK   13  A    between atoms: N_14  and  C_15 
REMARK   14  A    between atoms: C_18  and  N_21 
ROOT
HETATM    1  C   UNK N   1      20.770  15.957   1.144  0.00  0.00     0.046 C 
ENDROOT
BRANCH   1   2
HETATM    2  C   UNK N   1      19.863  15.035   1.937  0.00  0.00     0.169 C 
BRANCH   2   3
HETATM    3  O   UNK N   1      19.649  15.545   3.217  0.00  0.00    -0.389 OA
BRANCH   3   4
HETATM    4  C   UNK N   1      19.428  14.421   4.019  0.00  0.00     0.193 C 
BRANCH   4   5
HETATM    5  C   UNK N   1      19.769  14.747   5.466  0.00  0.00     0.193 C 
BRANCH   5   6
HETATM    6  O   UNK N   1      20.071  16.105   5.597  0.00  0.00    -0.387 OA
BRANCH   6   7
HETATM    7  C   UNK N   1      20.062  16.347   6.974  0.00  0.00     0.193 C 
BRANCH   7   8
HETATM    8  C   UNK N   1      20.436  15.085   7.733  0.00  0.00     0.193 C 
BRANCH   8   9
HETATM    9  O   UNK N   1      20.531  15.379   9.094  0.00  0.00    -0.389 OA
BRANCH   9  10
HETATM   10  C   UNK N   1      21.196  14.293   9.666  0.00  0.00     0.167 C 
BRANCH  10  11
HETATM   11  C   UNK N   1      21.383  13.216   8.615  0.00  0.00     0.022 C 
HETATM   12  C   UNK N   1      22.377  12.183   9.103  0.00  0.00     0.007 C 
ENDBRANCH  10  11
ENDBRANCH   9  10
ENDBRANCH   8   9
ENDBRANCH   7   8
ENDBRANCH   6   7
ENDBRANCH   5   6
ENDBRANCH   4   5
ENDBRANCH   3   4
ENDBRANCH   2   3
ENDBRANCH   1   2
BRANCH   1  13
HETATM   13  C   UNK N   1      19.914  17.075   0.599  0.00  0.00     0.122 C 
BRANCH  13  14
HETATM   14  N   UNK N   1      19.551  18.012   1.628  0.00  0.00    -0.385 N 
HETATM   15  H   UNK N   1      18.689  17.926   2.096  0.00  0.00     0.159 HD
BRANCH  14  16
HETATM   16  C   UNK N   1      20.444  19.060   1.963  0.00  0.00     0.113 A 
HETATM   17  C   UNK N   1      21.050  20.192   1.253  0.00  0.00     0.252 A 
HETATM   18  C   UNK N   1      21.718  20.543   2.497  0.00  0.00     0.252 A 
HETATM   19  O   UNK N   1      21.004  20.651   0.123  0.00  0.00    -0.281 OA
HETATM   20  C   UNK N   1      21.062  19.387   3.109  0.00  0.00     0.111 A 
HETATM   21  O   UNK N   1      22.480  21.418   2.874  0.00  0.00    -0.281 OA
BRANCH  20  22
HETATM   22  N   UNK N   1      21.054  18.807   4.396  0.00  0.00    -0.394 N 
HETATM   23  H   UNK N   1      20.488  19.189   5.105  0.00  0.00     0.156 HD
HETATM   24  H   UNK N   1      21.616  18.021   4.585  0.00  0.00     0.156 HD
ENDBRANCH  20  22
ENDBRANCH  14  16
ENDBRANCH  13  14
ENDBRANCH   1  13
TORSDOF 14
ENDMDL
MODEL 6
REMARK VINA RESULT:      -4.7      1.470      3.005
REMARK  14 active torsions:
REMARK  status: ('A' for Active; 'I' for Inactive)
REMARK    1  A    between atoms: C_2  and  C_3 
REMARK    2  A    between atoms: C_3  and  O_4 
REMARK    3  A    between atoms: O_4  and  C_5 
REMARK    4  A    between atoms: C_5  and  C_6 
REMARK    5  A    between atoms: C_6  and  O_7 
REMARK    6  A    between atoms: O_7  and  C_8 
REMARK    7  A    between atoms: C_8  and  C_9 
REMARK    8  A    between atoms: C_9  and  O_10 
REMARK    9  A    between atoms: O_10  and  C_11 
REMARK   10  A    between atoms: C_11  and  C_12 
REMARK   11  A    between atoms: C_12  and  C_13 
REMARK   12  A    between atoms: C_13  and  N_14 
REMARK   13  A    between atoms: N_14  and  C_15 
REMARK   14  A    between atoms: C_18  and  N_21 
ROOT
HETATM    1  C   UNK N   1      35.567  14.529  10.848  0.00  0.00     0.046 C 
ENDROOT
BRANCH   1   2
HETATM    2  C   UNK N   1      36.543  13.866  11.801  0.00  0.00     0.169 C 
BRANCH   2   3
HETATM    3  O   UNK N   1      36.056  12.626  12.213  0.00  0.00    -0.389 OA
BRANCH   3   4
HETATM    4  C   UNK N   1      35.122  12.919  13.211  0.00  0.00     0.193 C 
BRANCH   4   5
HETATM    5  C   UNK N   1      35.734  12.661  14.580  0.00  0.00     0.193 C 
BRANCH   5   6
HETATM    6  O   UNK N   1      35.310  13.634  15.490  0.00  0.00    -0.387 OA
BRANCH   6   7
HETATM    7  C   UNK N   1      35.378  13.015  16.740  0.00  0.00     0.193 C 
BRANCH   7   8
HETATM    8  C   UNK N   1      35.415  14.059  17.844  0.00  0.00     0.193 C 
BRANCH   8   9
HETATM    9  O   UNK N   1      35.199  13.434  19.074  0.00  0.00    -0.389 OA
BRANCH   9  10
HETATM   10  C   UNK N   1      35.215  12.065  18.806  0.00  0.00     0.167 C 
BRANCH  10  11
HETATM   11  C   UNK N   1      35.789  11.331  20.003  0.00  0.00     0.022 C 
HETATM   12  C   UNK N   1      34.761  10.369  20.562  0.00  0.00     0.007 C 
ENDBRANCH  10  11
ENDBRANCH   9  10
ENDBRANCH   8   9
ENDBRANCH   7   8
ENDBRANCH   6   7
ENDBRANCH   5   6
ENDBRANCH   4   5
ENDBRANCH   3   4
ENDBRANCH   2   3
ENDBRANCH   1   2
BRANCH   1  13
HETATM   13  C   UNK N   1      35.777  16.022  10.953  0.00  0.00     0.122 C 
BRANCH  13  14
HETATM   14  N   UNK N   1      34.607  16.750  10.541  0.00  0.00    -0.385 N 
HETATM   15  H   UNK N   1      33.915  16.990  11.199  0.00  0.00     0.159 HD
BRANCH  14  16
HETATM   16  C   UNK N   1      34.457  17.117   9.181  0.00  0.00     0.113 A 
HETATM   17  C   UNK N   1      34.788  18.293   8.368  0.00  0.00     0.252 A 
HETATM   18  C   UNK N   1      34.227  17.591   7.224  0.00  0.00     0.252 A 
HETATM   19  O   UNK N   1      35.316  19.377   8.558  0.00  0.00    -0.281 OA
HETATM   20  C   UNK N   1      33.940  16.474   8.123  0.00  0.00     0.111 A 
HETATM   21  O   UNK N   1      34.071  17.822   6.036  0.00  0.00    -0.281 OA
BRANCH  20  22
HETATM   22  N   UNK N   1      33.352  15.198   7.977  0.00  0.00    -0.394 N 
HETATM   23  H   UNK N   1      32.487  15.003   8.405  0.00  0.00     0.156 HD
HETATM   24  H   UNK N   1      33.808  14.504   7.449  0.00  0.00     0.156 HD
ENDBRANCH  20  22
ENDBRANCH  14  16
ENDBRANCH  13  14
ENDBRANCH   1  13
TORSDOF 14
ENDMDL
MODEL 7
REMARK VINA RESULT:      -4.6      2.937      4.141
REMARK  14 active torsions:
REMARK  status: ('A' for Active; 'I' for Inactive)
REMARK    1  A    between atoms: C_2  and  C_3 
REMARK    2  A    between atoms: C_3  and  O_4 
REMARK    3  A    between atoms: O_4  and  C_5 
REMARK    4  A    between atoms: C_5  and  C_6 
REMARK    5  A    between atoms: C_6  and  O_7 
REMARK    6  A    between atoms: O_7  and  C_8 
REMARK    7  A    between atoms: C_8  and  C_9 
REMARK    8  A    between atoms: C_9  and  O_10 
REMARK    9  A    between atoms: O_10  and  C_11 
REMARK   10  A    between atoms: C_11  and  C_12 
REMARK   11  A    between atoms: C_12  and  C_13 
REMARK   12  A    between atoms: C_13  and  N_14 
REMARK   13  A    between atoms: N_14  and  C_15 
REMARK   14  A    between atoms: C_18  and  N_21 
ROOT
HETATM    1  C   UNK N   1      33.448  17.507   5.207  0.00  0.00     0.046 C 
ENDROOT
BRANCH   1   2
HETATM    2  C   UNK N   1      34.140  16.205   5.565  0.00  0.00     0.169 C 
BRANCH   2   3
HETATM    3  O   UNK N   1      34.693  16.282   6.843  0.00  0.00    -0.389 OA
BRANCH   3   4
HETATM    4  C   UNK N   1      34.552  14.997   7.373  0.00  0.00     0.193 C 
BRANCH   4   5
HETATM    5  C   UNK N   1      35.556  14.792   8.499  0.00  0.00     0.193 C 
BRANCH   5   6
HETATM    6  O   UNK N   1      35.241  15.619   9.582  0.00  0.00    -0.387 OA
BRANCH   6   7
HETATM    7  C   UNK N   1      36.268  15.409  10.507  0.00  0.00     0.193 C 
BRANCH   7   8
HETATM    8  C   UNK N   1      35.721  15.476  11.924  0.00  0.00     0.193 C 
BRANCH   8   9
HETATM    9  O   UNK N   1      34.858  14.399  12.134  0.00  0.00    -0.389 OA
BRANCH   9  10
HETATM   10  C   UNK N   1      35.594  13.467  12.867  0.00  0.00     0.167 C 
BRANCH  10  11
HETATM   11  C   UNK N   1      36.267  14.170  14.031  0.00  0.00     0.022 C 
HETATM   12  C   UNK N   1      36.782  13.149  15.024  0.00  0.00     0.007 C 
ENDBRANCH  10  11
ENDBRANCH   9  10
ENDBRANCH   8   9
ENDBRANCH   7   8
ENDBRANCH   6   7
ENDBRANCH   5   6
ENDBRANCH   4   5
ENDBRANCH   3   4
ENDBRANCH   2   3
ENDBRANCH   1   2
BRANCH   1  13
HETATM   13  C   UNK N   1      31.969  17.216   5.095  0.00  0.00     0.122 C 
BRANCH  13  14
HETATM   14  N   UNK N   1      31.485  16.492   6.239  0.00  0.00    -0.385 N 
HETATM   15  H   UNK N   1      31.520  15.508   6.256  0.00  0.00     0.159 HD
BRANCH  14  16
HETATM   16  C   UNK N   1      30.957  17.206   7.343  0.00  0.00     0.113 A 
HETATM   17  C   UNK N   1      29.643  17.745   7.715  0.00  0.00     0.252 A 
HETATM   18  C   UNK N   1      30.249  18.220   8.949  0.00  0.00     0.252 A 
HETATM   19  O   UNK N   1      28.528  17.772   7.220  0.00  0.00    -0.281 OA
HETATM   20  C   UNK N   1      31.512  17.646   8.483  0.00  0.00     0.111 A 
HETATM   21  O   UNK N   1      29.875  18.821   9.943  0.00  0.00    -0.281 OA
BRANCH  20  22
HETATM   22  N   UNK N   1      32.824  17.564   8.999  0.00  0.00    -0.394 N 
HETATM   23  H   UNK N   1      32.992  17.753   9.950  0.00  0.00     0.156 HD
HETATM   24  H   UNK N   1      33.570  17.318   8.406  0.00  0.00     0.156 HD
ENDBRANCH  20  22
ENDBRANCH  14  16
ENDBRANCH  13  14
ENDBRANCH   1  13
TORSDOF 14
ENDMDL
MODEL 8
REMARK VINA RESULT:      -4.6      2.586      8.494
REMARK  14 active torsions:
REMARK  status: ('A' for Active; 'I' for Inactive)
REMARK    1  A    between atoms: C_2  and  C_3 
REMARK    2  A    between atoms: C_3  and  O_4 
REMARK    3  A    between atoms: O_4  and  C_5 
REMARK    4  A    between atoms: C_5  and  C_6 
REMARK    5  A    between atoms: C_6  and  O_7 
REMARK    6  A    between atoms: O_7  and  C_8 
REMARK    7  A    between atoms: C_8  and  C_9 
REMARK    8  A    between atoms: C_9  and  O_10 
REMARK    9  A    between atoms: O_10  and  C_11 
REMARK   10  A    between atoms: C_11  and  C_12 
REMARK   11  A    between atoms: C_12  and  C_13 
REMARK   12  A    between atoms: C_13  and  N_14 
REMARK   13  A    between atoms: N_14  and  C_15 
REMARK   14  A    between atoms: C_18  and  N_21 
ROOT
HETATM    1  C   UNK N   1      35.883  12.681  11.334  0.00  0.00     0.046 C 
ENDROOT
BRANCH   1   2
HETATM    2  C   UNK N   1      36.754  13.844  10.900  0.00  0.00     0.169 C 
BRANCH   2   3
HETATM    3  O   UNK N   1      36.431  14.992  11.623  0.00  0.00    -0.389 OA
BRANCH   3   4
HETATM    4  C   UNK N   1      35.142  15.332  11.202  0.00  0.00     0.193 C 
BRANCH   4   5
HETATM    5  C   UNK N   1      35.174  16.669  10.475  0.00  0.00     0.193 C 
BRANCH   5   6
HETATM    6  O   UNK N   1      34.669  16.525   9.179  0.00  0.00    -0.387 OA
BRANCH   6   7
HETATM    7  C   UNK N   1      34.651  17.820   8.652  0.00  0.00     0.193 C 
BRANCH   7   8
HETATM    8  C   UNK N   1      33.598  17.930   7.562  0.00  0.00     0.193 C 
BRANCH   8   9
HETATM    9  O   UNK N   1      34.228  17.966   6.317  0.00  0.00    -0.389 OA
BRANCH   9  10
HETATM   10  C   UNK N   1      33.627  16.956   5.565  0.00  0.00     0.167 C 
BRANCH  10  11
HETATM   11  C   UNK N   1      32.886  17.579   4.397  0.00  0.00     0.022 C 
HETATM   12  C   UNK N   1      32.938  16.655   3.199  0.00  0.00     0.007 C 
ENDBRANCH  10  11
ENDBRANCH   9  10
ENDBRANCH   8   9
ENDBRANCH   7   8
ENDBRANCH   6   7
ENDBRANCH   5   6
ENDBRANCH   4   5
ENDBRANCH   3   4
ENDBRANCH   2   3
ENDBRANCH   1   2
BRANCH   1  13
HETATM   13  C   UNK N   1      36.773  11.691  12.048  0.00  0.00     0.122 C 
BRANCH  13  14
HETATM   14  N   UNK N   1      37.498  12.313  13.124  0.00  0.00    -0.385 N 
HETATM   15  H   UNK N   1      38.460  12.498  13.032  0.00  0.00     0.159 HD
BRANCH  14  16
HETATM   16  C   UNK N   1      36.815  12.657  14.316  0.00  0.00     0.113 A 
HETATM   17  C   UNK N   1      36.031  11.934  15.325  0.00  0.00     0.252 A 
HETATM   18  C   UNK N   1      35.860  13.200  16.019  0.00  0.00     0.252 A 
HETATM   19  O   UNK N   1      35.686  10.778  15.512  0.00  0.00    -0.281 OA
HETATM   20  C   UNK N   1      36.654  13.823  14.961  0.00  0.00     0.111 A 
HETATM   21  O   UNK N   1      35.309  13.580  17.040  0.00  0.00    -0.281 OA
BRANCH  20  22
HETATM   22  N   UNK N   1      37.101  15.134  14.685  0.00  0.00    -0.394 N 
HETATM   23  H   UNK N   1      37.752  15.568  15.282  0.00  0.00     0.156 HD
HETATM   24  H   UNK N   1      36.760  15.614  13.897  0.00  0.00     0.156 HD
ENDBRANCH  20  22
ENDBRANCH  14  16
ENDBRANCH  13  14
ENDBRANCH   1  13
TORSDOF 14
ENDMDL
MODEL 9
REMARK VINA RESULT:      -4.4      3.333      7.504
REMARK  14 active torsions:
REMARK  status: ('A' for Active; 'I' for Inactive)
REMARK    1  A    between atoms: C_2  and  C_3 
REMARK    2  A    between atoms: C_3  and  O_4 
REMARK    3  A    between atoms: O_4  and  C_5 
REMARK    4  A    between atoms: C_5  and  C_6 
REMARK    5  A    between atoms: C_6  and  O_7 
REMARK    6  A    between atoms: O_7  and  C_8 
REMARK    7  A    between atoms: C_8  and  C_9 
REMARK    8  A    between atoms: C_9  and  O_10 
REMARK    9  A    between atoms: O_10  and  C_11 
REMARK   10  A    between atoms: C_11  and  C_12 
REMARK   11  A    between atoms: C_12  and  C_13 
REMARK   12  A    between atoms: C_13  and  N_14 
REMARK   13  A    between atoms: N_14  and  C_15 
REMARK   14  A    between atoms: C_18  and  N_21 
ROOT
HETATM    1  C   UNK N   1      34.538  15.616   6.110  0.00  0.00     0.046 C 
ENDROOT
BRANCH   1   2
HETATM    2  C   UNK N   1      33.684  16.811   6.487  0.00  0.00     0.169 C 
BRANCH   2   3
HETATM    3  O   UNK N   1      34.473  17.820   7.040  0.00  0.00    -0.389 OA
BRANCH   3   4
HETATM    4  C   UNK N   1      33.660  18.426   8.002  0.00  0.00     0.193 C 
BRANCH   4   5
HETATM    5  C   UNK N   1      32.310  17.723   8.052  0.00  0.00     0.193 C 
BRANCH   5   6
HETATM    6  O   UNK N   1      31.368  18.532   8.695  0.00  0.00    -0.387 OA
BRANCH   6   7
HETATM    7  C   UNK N   1      30.300  17.681   8.988  0.00  0.00     0.193 C 
BRANCH   7   8
HETATM    8  C   UNK N   1      28.982  18.345   8.626  0.00  0.00     0.193 C 
BRANCH   8   9
HETATM    9  O   UNK N   1      28.795  18.273   7.244  0.00  0.00    -0.389 OA
BRANCH   9  10
HETATM   10  C   UNK N   1      28.290  16.995   7.001  0.00  0.00     0.167 C 
BRANCH  10  11
HETATM   11  C   UNK N   1      28.714  16.548   5.616  0.00  0.00     0.022 C 
HETATM   12  C   UNK N   1      30.074  15.884   5.680  0.00  0.00     0.007 C 
ENDBRANCH  10  11
ENDBRANCH   9  10
ENDBRANCH   8   9
ENDBRANCH   7   8
ENDBRANCH   6   7
ENDBRANCH   5   6
ENDBRANCH   4   5
ENDBRANCH   3   4
ENDBRANCH   2   3
ENDBRANCH   1   2
BRANCH   1  13
HETATM   13  C   UNK N   1      35.302  15.198   7.344  0.00  0.00     0.122 C 
BRANCH  13  14
HETATM   14  N   UNK N   1      34.422  14.977   8.460  0.00  0.00    -0.385 N 
HETATM   15  H   UNK N   1      33.477  14.745   8.308  0.00  0.00     0.159 HD
BRANCH  14  16
HETATM   16  C   UNK N   1      34.924  15.095   9.779  0.00  0.00     0.113 A 
HETATM   17  C   UNK N   1      35.573  16.150  10.566  0.00  0.00     0.252 A 
HETATM   18  C   UNK N   1      35.622  15.214  11.678  0.00  0.00     0.252 A 
HETATM   19  O   UNK N   1      35.910  17.309  10.381  0.00  0.00    -0.281 OA
HETATM   20  C   UNK N   1      34.972  14.234  10.808  0.00  0.00     0.111 A 
HETATM   21  O   UNK N   1      36.018  15.233  12.833  0.00  0.00    -0.281 OA
BRANCH  20  22
HETATM   22  N   UNK N   1      34.544  12.896  10.952  0.00  0.00    -0.394 N 
HETATM   23  H   UNK N   1      33.582  12.687  10.972  0.00  0.00     0.156 HD
HETATM   24  H   UNK N   1      35.207  12.174  11.034  0.00  0.00     0.156 HD
ENDBRANCH  20  22
ENDBRANCH  14  16
ENDBRANCH  13  14
ENDBRANCH   1  13
TORSDOF 14
ENDMDL
