REMARK  2 active torsions:
REMARK  status: ('A' for Active; 'I' for Inactive)
REMARK    1  A    between atoms: N_1  and  C_4 
REMARK    2  A    between atoms: C_14  and  C_16 
ROOT
HETATM    1  C   UNK N   1      -1.128  -1.107   0.058  0.00  0.00     0.150 A 
HETATM    2  C   UNK N   1       3.657  -2.489  -0.125  0.00  0.00     0.002 A 
HETATM    3  C   UNK N   1       2.464  -3.214  -0.092  0.00  0.00     0.018 A 
HETATM    4  C   UNK N   1       3.634  -1.091  -0.100  0.00  0.00     0.015 A 
HETATM    5  C   UNK N   1       1.236  -2.542  -0.034  0.00  0.00     0.049 A 
HETATM    6  C   UNK N   1       1.212  -1.130   0.001  0.00  0.00     0.103 A 
HETATM    7  C   UNK N   1       0.014  -3.233  -0.017  0.00  0.00     0.189 A 
HETATM    8  C   UNK N   1       2.418  -0.390  -0.030  0.00  0.00     0.009 A 
HETATM    9  O   UNK N   1       0.049  -0.498   0.045  0.00  0.00    -0.292 OA
HETATM   10  C   UNK N   1      -1.181  -2.511   0.029  0.00  0.00     0.112 A 
HETATM   11  O   UNK N   1      -0.017  -4.452  -0.046  0.00  0.00    -0.287 OA
ENDROOT
BRANCH   1  12
HETATM   12  N   UNK N   1      -2.307  -0.313   0.104  0.00  0.00    -0.357 N 
HETATM   13  C   UNK N   1      -3.623  -0.940   0.079  0.00  0.00     0.151 C 
HETATM   14  C   UNK N   1      -4.753   0.080   0.238  0.00  0.00     0.187 C 
HETATM   15  O   UNK N   1      -4.454   1.241  -0.484  0.00  0.00    -0.388 OA
HETATM   16  C   UNK N   1      -3.472   1.877   0.279  0.00  0.00     0.187 C 
HETATM   17  C   UNK N   1      -2.147   1.140   0.119  0.00  0.00     0.151 C 
ENDBRANCH   1  12
BRANCH   8  18
HETATM   18  C   UNK N   1       2.427   1.110  -0.003  0.00  0.00    -0.023 A 
HETATM   19  C   UNK N   1       1.244   1.844   0.205  0.00  0.00     0.012 A 
HETATM   20  C   UNK N   1       1.252   3.239   0.222  0.00  0.00     0.001 A 
HETATM   21  C   UNK N   1       2.448   3.927   0.022  0.00  0.00     0.000 A 
HETATM   22  C   UNK N   1       3.633   3.217  -0.186  0.00  0.00     0.001 A 
HETATM   23  C   UNK N   1       3.625   1.818  -0.193  0.00  0.00     0.012 A 
ENDBRANCH   8  18
TORSDOF 2
