MODEL 1
REMARK VINA RESULT:      -7.4      0.000      0.000
REMARK  2 active torsions:
REMARK  status: ('A' for Active; 'I' for Inactive)
REMARK    1  A    between atoms: N_1  and  C_4 
REMARK    2  A    between atoms: C_14  and  C_16 
ROOT
HETATM    1  C   UNK N   1      34.989  12.863  12.343  0.00  0.00     0.150 A 
HETATM    2  C   UNK N   1      35.229   9.803  16.269  0.00  0.00     0.002 A 
HETATM    3  C   UNK N   1      34.866   9.604  14.936  0.00  0.00     0.018 A 
HETATM    4  C   UNK N   1      35.615  11.072  16.713  0.00  0.00     0.015 A 
HETATM    5  C   UNK N   1      34.887  10.676  14.035  0.00  0.00     0.049 A 
HETATM    6  C   UNK N   1      35.268  11.960  14.484  0.00  0.00     0.103 A 
HETATM    7  C   UNK N   1      34.547  10.514  12.682  0.00  0.00     0.189 A 
HETATM    8  C   UNK N   1      35.634  12.169  15.835  0.00  0.00     0.009 A 
HETATM    9  O   UNK N   1      35.297  12.970  13.627  0.00  0.00    -0.292 OA
HETATM   10  C   UNK N   1      34.598  11.616  11.826  0.00  0.00     0.112 A 
HETATM   11  O   UNK N   1      34.212   9.425  12.247  0.00  0.00    -0.287 OA
ENDROOT
BRANCH   1  12
HETATM   12  N   UNK N   1      35.062  14.024  11.525  0.00  0.00    -0.357 N 
HETATM   13  C   UNK N   1      34.500  14.019  10.180  0.00  0.00     0.151 C 
HETATM   14  C   UNK N   1      34.593  15.391   9.508  0.00  0.00     0.187 C 
HETATM   15  O   UNK N   1      35.821  15.989   9.812  0.00  0.00    -0.388 OA
HETATM   16  C   UNK N   1      35.684  16.401  11.139  0.00  0.00     0.187 C 
HETATM   17  C   UNK N   1      35.766  15.188  12.060  0.00  0.00     0.151 C 
ENDBRANCH   1  12
BRANCH   8  18
HETATM   18  C   UNK N   1      36.051  13.518  16.343  0.00  0.00    -0.023 A 
HETATM   19  C   UNK N   1      36.992  14.301  15.648  0.00  0.00     0.012 A 
HETATM   20  C   UNK N   1      37.385  15.552  16.124  0.00  0.00     0.001 A 
HETATM   21  C   UNK N   1      36.848  16.040  17.315  0.00  0.00     0.000 A 
HETATM   22  C   UNK N   1      35.912  15.278  18.019  0.00  0.00     0.001 A 
HETATM   23  C   UNK N   1      35.512  14.028  17.535  0.00  0.00     0.012 A 
ENDBRANCH   8  18
TORSDOF 2
ENDMDL
MODEL 2
REMARK VINA RESULT:      -7.4     20.096     24.743
REMARK  2 active torsions:
REMARK  status: ('A' for Active; 'I' for Inactive)
REMARK    1  A    between atoms: N_1  and  C_4 
REMARK    2  A    between atoms: C_14  and  C_16 
ROOT
HETATM    1  C   UNK N   1      28.476  23.433  -5.598  0.00  0.00     0.150 A 
HETATM    2  C   UNK N   1      25.784  25.315  -9.346  0.00  0.00     0.002 A 
HETATM    3  C   UNK N   1      26.478  24.113  -9.191  0.00  0.00     0.018 A 
HETATM    4  C   UNK N   1      25.773  26.262  -8.317  0.00  0.00     0.015 A 
HETATM    5  C   UNK N   1      27.168  23.850  -8.000  0.00  0.00     0.049 A 
HETATM    6  C   UNK N   1      27.166  24.810  -6.964  0.00  0.00     0.103 A 
HETATM    7  C   UNK N   1      27.864  22.648  -7.797  0.00  0.00     0.189 A 
HETATM    8  C   UNK N   1      26.466  26.031  -7.117  0.00  0.00     0.009 A 
HETATM    9  O   UNK N   1      27.811  24.554  -5.836  0.00  0.00    -0.292 OA
HETATM   10  C   UNK N   1      28.524  22.434  -6.585  0.00  0.00     0.112 A 
HETATM   11  O   UNK N   1      27.894  21.788  -8.662  0.00  0.00    -0.287 OA
ENDROOT
BRANCH   1  12
HETATM   12  N   UNK N   1      29.126  23.278  -4.342  0.00  0.00    -0.357 N 
HETATM   13  C   UNK N   1      28.395  23.495  -3.099  0.00  0.00     0.151 C 
HETATM   14  C   UNK N   1      29.246  23.180  -1.866  0.00  0.00     0.187 C 
HETATM   15  O   UNK N   1      30.556  23.629  -2.062  0.00  0.00    -0.388 OA
HETATM   16  C   UNK N   1      31.107  22.705  -2.953  0.00  0.00     0.187 C 
HETATM   17  C   UNK N   1      30.551  22.953  -4.351  0.00  0.00     0.151 C 
ENDBRANCH   1  12
BRANCH   8  18
HETATM   18  C   UNK N   1      26.437  27.067  -6.032  0.00  0.00    -0.023 A 
HETATM   19  C   UNK N   1      25.587  26.935  -4.918  0.00  0.00     0.012 A 
HETATM   20  C   UNK N   1      25.555  27.903  -3.914  0.00  0.00     0.001 A 
HETATM   21  C   UNK N   1      26.370  29.030  -4.012  0.00  0.00     0.000 A 
HETATM   22  C   UNK N   1      27.220  29.180  -5.110  0.00  0.00     0.001 A 
HETATM   23  C   UNK N   1      27.259  28.204  -6.111  0.00  0.00     0.012 A 
ENDBRANCH   8  18
TORSDOF 2
ENDMDL
MODEL 3
REMARK VINA RESULT:      -7.3     19.533     22.806
REMARK  2 active torsions:
REMARK  status: ('A' for Active; 'I' for Inactive)
REMARK    1  A    between atoms: N_1  and  C_4 
REMARK    2  A    between atoms: C_14  and  C_16 
ROOT
HETATM    1  C   UNK N   1      28.788  23.248  -4.457  0.00  0.00     0.150 A 
HETATM    2  C   UNK N   1      32.874  20.484  -3.743  0.00  0.00     0.002 A 
HETATM    3  C   UNK N   1      32.184  21.381  -2.924  0.00  0.00     0.018 A 
HETATM    4  C   UNK N   1      32.431  20.234  -5.045  0.00  0.00     0.015 A 
HETATM    5  C   UNK N   1      31.042  22.034  -3.406  0.00  0.00     0.049 A 
HETATM    6  C   UNK N   1      30.599  21.789  -4.725  0.00  0.00     0.103 A 
HETATM    7  C   UNK N   1      30.309  22.929  -2.609  0.00  0.00     0.189 A 
HETATM    8  C   UNK N   1      31.296  20.883  -5.560  0.00  0.00     0.009 A 
HETATM    9  O   UNK N   1      29.513  22.400  -5.173  0.00  0.00    -0.292 OA
HETATM   10  C   UNK N   1      29.171  23.542  -3.138  0.00  0.00     0.112 A 
HETATM   11  O   UNK N   1      30.651  23.173  -1.464  0.00  0.00    -0.287 OA
ENDROOT
BRANCH   1  12
HETATM   12  N   UNK N   1      27.640  23.837  -5.054  0.00  0.00    -0.357 N 
HETATM   13  C   UNK N   1      26.653  24.531  -4.235  0.00  0.00     0.151 C 
HETATM   14  C   UNK N   1      25.552  25.177  -5.079  0.00  0.00     0.187 C 
HETATM   15  O   UNK N   1      25.198  24.328  -6.134  0.00  0.00    -0.388 OA
HETATM   16  C   UNK N   1      26.260  24.437  -7.034  0.00  0.00     0.187 C 
HETATM   17  C   UNK N   1      27.463  23.671  -6.496  0.00  0.00     0.151 C 
ENDBRANCH   1  12
BRANCH   8  18
HETATM   18  C   UNK N   1      30.848  20.594  -6.962  0.00  0.00    -0.023 A 
HETATM   19  C   UNK N   1      29.993  19.512  -7.247  0.00  0.00     0.012 A 
HETATM   20  C   UNK N   1      29.582  19.239  -8.552  0.00  0.00     0.001 A 
HETATM   21  C   UNK N   1      30.030  20.042  -9.601  0.00  0.00     0.000 A 
HETATM   22  C   UNK N   1      30.879  21.120  -9.339  0.00  0.00     0.001 A 
HETATM   23  C   UNK N   1      31.281  21.399  -8.028  0.00  0.00     0.012 A 
ENDBRANCH   8  18
TORSDOF 2
ENDMDL
MODEL 4
REMARK VINA RESULT:      -7.1     12.064     15.766
REMARK  2 active torsions:
REMARK  status: ('A' for Active; 'I' for Inactive)
REMARK    1  A    between atoms: N_1  and  C_4 
REMARK    2  A    between atoms: C_14  and  C_16 
ROOT
HETATM    1  C   UNK N   1      22.826  17.925   5.223  0.00  0.00     0.150 A 
HETATM    2  C   UNK N   1      25.989  20.855   2.723  0.00  0.00     0.002 A 
HETATM    3  C   UNK N   1      24.611  20.650   2.625  0.00  0.00     0.018 A 
HETATM    4  C   UNK N   1      26.741  20.150   3.668  0.00  0.00     0.015 A 
HETATM    5  C   UNK N   1      23.975  19.737   3.476  0.00  0.00     0.049 A 
HETATM    6  C   UNK N   1      24.736  19.018   4.425  0.00  0.00     0.103 A 
HETATM    7  C   UNK N   1      22.590  19.515   3.421  0.00  0.00     0.189 A 
HETATM    8  C   UNK N   1      26.133  19.219   4.527  0.00  0.00     0.009 A 
HETATM    9  O   UNK N   1      24.130  18.163   5.235  0.00  0.00    -0.292 OA
HETATM   10  C   UNK N   1      22.007  18.601   4.303  0.00  0.00     0.112 A 
HETATM   11  O   UNK N   1      21.891  20.112   2.620  0.00  0.00    -0.287 OA
ENDROOT
BRANCH   1  12
HETATM   12  N   UNK N   1      22.296  16.983   6.148  0.00  0.00    -0.357 N 
HETATM   13  C   UNK N   1      22.932  15.684   6.328  0.00  0.00     0.151 C 
HETATM   14  C   UNK N   1      22.268  14.863   7.436  0.00  0.00     0.187 C 
HETATM   15  O   UNK N   1      20.879  15.025   7.384  0.00  0.00    -0.388 OA
HETATM   16  C   UNK N   1      20.663  16.306   7.896  0.00  0.00     0.187 C 
HETATM   17  C   UNK N   1      21.070  17.345   6.858  0.00  0.00     0.151 C 
ENDBRANCH   1  12
BRANCH   8  18
HETATM   18  C   UNK N   1      26.968  18.478   5.529  0.00  0.00    -0.023 A 
HETATM   19  C   UNK N   1      27.164  17.088   5.432  0.00  0.00     0.012 A 
HETATM   20  C   UNK N   1      27.934  16.399   6.369  0.00  0.00     0.001 A 
HETATM   21  C   UNK N   1      28.517  17.091   7.430  0.00  0.00     0.000 A 
HETATM   22  C   UNK N   1      28.335  18.471   7.544  0.00  0.00     0.001 A 
HETATM   23  C   UNK N   1      27.571  19.162   6.598  0.00  0.00     0.012 A 
ENDBRANCH   8  18
TORSDOF 2
ENDMDL
MODEL 5
REMARK VINA RESULT:      -7.0      5.920     11.135
REMARK  2 active torsions:
REMARK  status: ('A' for Active; 'I' for Inactive)
REMARK    1  A    between atoms: N_1  and  C_4 
REMARK    2  A    between atoms: C_14  and  C_16 
ROOT
HETATM    1  C   UNK N   1      31.322  17.028   8.207  0.00  0.00     0.150 A 
HETATM    2  C   UNK N   1      27.851  18.058   4.781  0.00  0.00     0.002 A 
HETATM    3  C   UNK N   1      27.923  18.296   6.155  0.00  0.00     0.018 A 
HETATM    4  C   UNK N   1      28.897  17.403   4.122  0.00  0.00     0.015 A 
HETATM    5  C   UNK N   1      29.046  17.878   6.881  0.00  0.00     0.049 A 
HETATM    6  C   UNK N   1      30.098  17.208   6.219  0.00  0.00     0.103 A 
HETATM    7  C   UNK N   1      29.165  18.113   8.260  0.00  0.00     0.189 A 
HETATM    8  C   UNK N   1      30.030  16.962   4.827  0.00  0.00     0.009 A 
HETATM    9  O   UNK N   1      31.163  16.824   6.907  0.00  0.00    -0.292 OA
HETATM   10  C   UNK N   1      30.313  17.686   8.932  0.00  0.00     0.112 A 
HETATM   11  O   UNK N   1      28.283  18.688   8.876  0.00  0.00    -0.287 OA
ENDROOT
BRANCH   1  12
HETATM   12  N   UNK N   1      32.515  16.569   8.829  0.00  0.00    -0.357 N 
HETATM   13  C   UNK N   1      33.713  17.399   8.835  0.00  0.00     0.151 C 
HETATM   14  C   UNK N   1      34.851  16.767   9.640  0.00  0.00     0.187 C 
HETATM   15  O   UNK N   1      34.888  15.387   9.413  0.00  0.00    -0.388 OA
HETATM   16  C   UNK N   1      33.801  14.890  10.137  0.00  0.00     0.187 C 
HETATM   17  C   UNK N   1      32.507  15.225   9.405  0.00  0.00     0.151 C 
ENDBRANCH   1  12
BRANCH   8  18
HETATM   18  C   UNK N   1      31.134  16.261   4.092  0.00  0.00    -0.023 A 
HETATM   19  C   UNK N   1      31.124  14.864   3.918  0.00  0.00     0.012 A 
HETATM   20  C   UNK N   1      32.155  14.212   3.241  0.00  0.00     0.001 A 
HETATM   21  C   UNK N   1      33.223  14.949   2.731  0.00  0.00     0.000 A 
HETATM   22  C   UNK N   1      33.252  16.336   2.893  0.00  0.00     0.001 A 
HETATM   23  C   UNK N   1      32.213  16.990   3.564  0.00  0.00     0.012 A 
ENDBRANCH   8  18
TORSDOF 2
ENDMDL
MODEL 6
REMARK VINA RESULT:      -7.0     20.863     23.988
REMARK  2 active torsions:
REMARK  status: ('A' for Active; 'I' for Inactive)
REMARK    1  A    between atoms: N_1  and  C_4 
REMARK    2  A    between atoms: C_14  and  C_16 
ROOT
HETATM    1  C   UNK N   1      26.546  24.771  -5.977  0.00  0.00     0.150 A 
HETATM    2  C   UNK N   1      28.041  20.606  -8.271  0.00  0.00     0.002 A 
HETATM    3  C   UNK N   1      26.916  21.419  -8.425  0.00  0.00     0.018 A 
HETATM    4  C   UNK N   1      29.008  20.915  -7.309  0.00  0.00     0.015 A 
HETATM    5  C   UNK N   1      26.752  22.551  -7.616  0.00  0.00     0.049 A 
HETATM    6  C   UNK N   1      27.724  22.859  -6.638  0.00  0.00     0.103 A 
HETATM    7  C   UNK N   1      25.645  23.403  -7.752  0.00  0.00     0.189 A 
HETATM    8  C   UNK N   1      28.865  22.037  -6.475  0.00  0.00     0.009 A 
HETATM    9  O   UNK N   1      27.571  23.935  -5.882  0.00  0.00    -0.292 OA
HETATM   10  C   UNK N   1      25.539  24.525  -6.926  0.00  0.00     0.112 A 
HETATM   11  O   UNK N   1      24.780  23.180  -8.582  0.00  0.00    -0.287 OA
ENDROOT
BRANCH   1  12
HETATM   12  N   UNK N   1      26.499  25.895  -5.107  0.00  0.00    -0.357 N 
HETATM   13  C   UNK N   1      27.547  26.108  -4.117  0.00  0.00     0.151 C 
HETATM   14  C   UNK N   1      27.362  27.422  -3.354  0.00  0.00     0.187 C 
HETATM   15  O   UNK N   1      26.006  27.628  -3.077  0.00  0.00    -0.388 OA
HETATM   16  C   UNK N   1      25.458  28.006  -4.305  0.00  0.00     0.187 C 
HETATM   17  C   UNK N   1      25.342  26.783  -5.208  0.00  0.00     0.151 C 
ENDBRANCH   1  12
BRANCH   8  18
HETATM   18  C   UNK N   1      29.919  22.341  -5.452  0.00  0.00    -0.023 A 
HETATM   19  C   UNK N   1      29.963  21.657  -4.223  0.00  0.00     0.012 A 
HETATM   20  C   UNK N   1      30.939  21.946  -3.269  0.00  0.00     0.001 A 
HETATM   21  C   UNK N   1      31.888  22.934  -3.526  0.00  0.00     0.000 A 
HETATM   22  C   UNK N   1      31.862  23.625  -4.741  0.00  0.00     0.001 A 
HETATM   23  C   UNK N   1      30.888  23.327  -5.700  0.00  0.00     0.012 A 
ENDBRANCH   8  18
TORSDOF 2
ENDMDL
MODEL 7
REMARK VINA RESULT:      -6.9      9.122     11.623
REMARK  2 active torsions:
REMARK  status: ('A' for Active; 'I' for Inactive)
REMARK    1  A    between atoms: N_1  and  C_4 
REMARK    2  A    between atoms: C_14  and  C_16 
ROOT
HETATM    1  C   UNK N   1      28.275  16.461   5.929  0.00  0.00     0.150 A 
HETATM    2  C   UNK N   1      32.090  18.163   8.648  0.00  0.00     0.002 A 
HETATM    3  C   UNK N   1      30.710  18.140   8.864  0.00  0.00     0.018 A 
HETATM    4  C   UNK N   1      32.628  17.640   7.468  0.00  0.00     0.015 A 
HETATM    5  C   UNK N   1      29.858  17.590   7.898  0.00  0.00     0.049 A 
HETATM    6  C   UNK N   1      30.399  17.071   6.701  0.00  0.00     0.103 A 
HETATM    7  C   UNK N   1      28.468  17.532   8.085  0.00  0.00     0.189 A 
HETATM    8  C   UNK N   1      31.796  17.094   6.475  0.00  0.00     0.009 A 
HETATM    9  O   UNK N   1      29.591  16.543   5.794  0.00  0.00    -0.292 OA
HETATM   10  C   UNK N   1      27.666  16.962   7.092  0.00  0.00     0.112 A 
HETATM   11  O   UNK N   1      27.953  17.967   9.101  0.00  0.00    -0.287 OA
ENDROOT
BRANCH   1  12
HETATM   12  N   UNK N   1      27.517  15.868   4.882  0.00  0.00    -0.357 N 
HETATM   13  C   UNK N   1      27.283  14.430   4.861  0.00  0.00     0.151 C 
HETATM   14  C   UNK N   1      26.365  14.009   3.711  0.00  0.00     0.187 C 
HETATM   15  O   UNK N   1      26.675  14.742   2.560  0.00  0.00    -0.388 OA
HETATM   16  C   UNK N   1      26.150  16.013   2.809  0.00  0.00     0.187 C 
HETATM   17  C   UNK N   1      27.039  16.741   3.811  0.00  0.00     0.151 C 
ENDBRANCH   1  12
BRANCH   8  18
HETATM   18  C   UNK N   1      32.404  16.542   5.219  0.00  0.00    -0.023 A 
HETATM   19  C   UNK N   1      32.422  17.290   4.027  0.00  0.00     0.012 A 
HETATM   20  C   UNK N   1      32.980  16.774   2.857  0.00  0.00     0.001 A 
HETATM   21  C   UNK N   1      33.525  15.490   2.859  0.00  0.00     0.000 A 
HETATM   22  C   UNK N   1      33.517  14.732   4.032  0.00  0.00     0.001 A 
HETATM   23  C   UNK N   1      32.966  15.255   5.206  0.00  0.00     0.012 A 
ENDBRANCH   8  18
TORSDOF 2
ENDMDL
MODEL 8
REMARK VINA RESULT:      -6.9      6.949     10.175
REMARK  2 active torsions:
REMARK  status: ('A' for Active; 'I' for Inactive)
REMARK    1  A    between atoms: N_1  and  C_4 
REMARK    2  A    between atoms: C_14  and  C_16 
ROOT
HETATM    1  C   UNK N   1      30.919  16.064   4.548  0.00  0.00     0.150 A 
HETATM    2  C   UNK N   1      28.766  18.692   8.195  0.00  0.00     0.002 A 
HETATM    3  C   UNK N   1      28.362  18.367   6.898  0.00  0.00     0.018 A 
HETATM    4  C   UNK N   1      30.004  18.256   8.678  0.00  0.00     0.015 A 
HETATM    5  C   UNK N   1      29.197  17.601   6.074  0.00  0.00     0.049 A 
HETATM    6  C   UNK N   1      30.451  17.168   6.559  0.00  0.00     0.103 A 
HETATM    7  C   UNK N   1      28.821  17.238   4.771  0.00  0.00     0.189 A 
HETATM    8  C   UNK N   1      30.867  17.496   7.871  0.00  0.00     0.009 A 
HETATM    9  O   UNK N   1      31.233  16.434   5.781  0.00  0.00    -0.292 OA
HETATM   10  C   UNK N   1      29.688  16.461   3.999  0.00  0.00     0.112 A 
HETATM   11  O   UNK N   1      27.748  17.587   4.309  0.00  0.00    -0.287 OA
ENDROOT
BRANCH   1  12
HETATM   12  N   UNK N   1      31.846  15.273   3.816  0.00  0.00    -0.357 N 
HETATM   13  C   UNK N   1      33.263  15.616   3.801  0.00  0.00     0.151 C 
HETATM   14  C   UNK N   1      34.101  14.585   3.041  0.00  0.00     0.187 C 
HETATM   15  O   UNK N   1      33.413  14.160   1.898  0.00  0.00    -0.388 OA
HETATM   16  C   UNK N   1      32.416  13.316   2.391  0.00  0.00     0.187 C 
HETATM   17  C   UNK N   1      31.319  14.150   3.042  0.00  0.00     0.151 C 
ENDBRANCH   1  12
BRANCH   8  18
HETATM   18  C   UNK N   1      32.189  17.045   8.419  0.00  0.00    -0.023 A 
HETATM   19  C   UNK N   1      33.333  17.861   8.331  0.00  0.00     0.012 A 
HETATM   20  C   UNK N   1      34.563  17.437   8.834  0.00  0.00     0.001 A 
HETATM   21  C   UNK N   1      34.673  16.180   9.428  0.00  0.00     0.000 A 
HETATM   22  C   UNK N   1      33.550  15.356   9.524  0.00  0.00     0.001 A 
HETATM   23  C   UNK N   1      32.314  15.786   9.029  0.00  0.00     0.012 A 
ENDBRANCH   8  18
TORSDOF 2
ENDMDL
MODEL 9
REMARK VINA RESULT:      -6.8      2.665      5.508
REMARK  2 active torsions:
REMARK  status: ('A' for Active; 'I' for Inactive)
REMARK    1  A    between atoms: N_1  and  C_4 
REMARK    2  A    between atoms: C_14  and  C_16 
ROOT
HETATM    1  C   UNK N   1      35.550  12.591  16.063  0.00  0.00     0.150 A 
HETATM    2  C   UNK N   1      36.076   9.760  20.131  0.00  0.00     0.002 A 
HETATM    3  C   UNK N   1      35.705  11.093  19.949  0.00  0.00     0.018 A 
HETATM    4  C   UNK N   1      36.393   8.959  19.029  0.00  0.00     0.015 A 
HETATM    5  C   UNK N   1      35.648  11.636  18.658  0.00  0.00     0.049 A 
HETATM    6  C   UNK N   1      35.978  10.831  17.546  0.00  0.00     0.103 A 
HETATM    7  C   UNK N   1      35.263  12.967  18.431  0.00  0.00     0.189 A 
HETATM    8  C   UNK N   1      36.356   9.479  17.724  0.00  0.00     0.009 A 
HETATM    9  O   UNK N   1      35.913  11.344  16.327  0.00  0.00    -0.292 OA
HETATM   10  C   UNK N   1      35.212  13.451  17.122  0.00  0.00     0.112 A 
HETATM   11  O   UNK N   1      34.969  13.701  19.359  0.00  0.00    -0.287 OA
ENDROOT
BRANCH   1  12
HETATM   12  N   UNK N   1      35.518  13.021  14.708  0.00  0.00    -0.357 N 
HETATM   13  C   UNK N   1      36.179  14.258  14.309  0.00  0.00     0.151 C 
HETATM   14  C   UNK N   1      36.113  14.487  12.797  0.00  0.00     0.187 C 
HETATM   15  O   UNK N   1      34.856  14.109  12.311  0.00  0.00    -0.388 OA
HETATM   16  C   UNK N   1      34.888  12.713  12.323  0.00  0.00     0.187 C 
HETATM   17  C   UNK N   1      34.758  12.213  13.757  0.00  0.00     0.151 C 
ENDBRANCH   1  12
BRANCH   8  18
HETATM   18  C   UNK N   1      36.704   8.594  16.564  0.00  0.00    -0.023 A 
HETATM   19  C   UNK N   1      35.720   7.831  15.907  0.00  0.00     0.012 A 
HETATM   20  C   UNK N   1      36.046   7.002  14.832  0.00  0.00     0.001 A 
HETATM   21  C   UNK N   1      37.368   6.917  14.400  0.00  0.00     0.000 A 
HETATM   22  C   UNK N   1      38.359   7.666  15.038  0.00  0.00     0.001 A 
HETATM   23  C   UNK N   1      38.030   8.504  16.109  0.00  0.00     0.012 A 
ENDBRANCH   8  18
TORSDOF 2
ENDMDL
