REMARK  10 active torsions:
REMARK  status: ('A' for Active; 'I' for Inactive)
REMARK    1  A    between atoms: C_3  and  N_8 
REMARK    2  A    between atoms: C_5  and  N_4 
REMARK    3  A    between atoms: C_5  and  C_6 
REMARK    4  A    between atoms: C_5  and  C_11 
REMARK    5  A    between atoms: C_6  and  C_7 
REMARK    6  A    between atoms: C_6  and  O_9 
REMARK    7  A    between atoms: C_6  and  O_10 
REMARK    8  A    between atoms: C_7  and  N_8 
REMARK    9  A    between atoms: C_11  and  C_12 
REMARK   10  A    between atoms: C_12  and  C_13 
ROOT
HETATM    1  C   UNK N   1      -0.537  -0.066  -0.470  0.00  0.00     0.195 C 
ENDROOT
BRANCH   1   2
HETATM    2  C   UNK N   1       0.622   0.804   0.010  0.00  0.00     0.138 C 
BRANCH   2   3
HETATM    3  N   UNK N   1       0.118   1.931   0.783  0.00  0.00    -0.421 N 
HETATM    4  H   UNK N   1       0.625   2.631   1.325  0.00  0.00     0.150 HD
HETATM    5  H   UNK N   1      -0.896   2.036   0.783  0.00  0.00     0.150 HD
ENDBRANCH   2   3
BRANCH   2   6
HETATM    6  C   UNK N   1       1.665   0.067   0.859  0.00  0.00     0.030 C 
BRANCH   6   7
HETATM    7  C   UNK N   1       2.567  -0.823   0.010  0.00  0.00     0.002 C 
BRANCH   7   8
HETATM    8  C   UNK N   1       4.020  -0.656   0.422  0.00  0.00    -0.004 C 
HETATM    9  C   UNK N   1       4.561   0.680  -0.056  0.00  0.00     0.005 C 
ENDBRANCH   7   8
ENDBRANCH   6   7
ENDBRANCH   2   6
ENDBRANCH   1   2
BRANCH   1  10
HETATM   10  C   UNK N   1      -1.282  -0.591   0.748  0.00  0.00     0.184 C 
BRANCH  10  11
HETATM   11  N   UNK N   1      -2.702  -0.241   0.756  0.00  0.00    -0.412 N 
HETATM   12  H   UNK N   1      -3.130   0.530   1.269  0.00  0.00     0.153 HD
BRANCH  11  13
HETATM   13  C   UNK N   1      -3.394  -1.192  -0.103  0.00  0.00     0.077 A 
HETATM   14  C   UNK N   1      -4.544  -1.818   0.658  0.00  0.00     0.027 A 
HETATM   15  C   UNK N   1      -4.812  -0.712  -0.338  0.00  0.00     0.027 A 
ENDBRANCH  11  13
ENDBRANCH  10  11
ENDBRANCH   1  10
BRANCH   1  16
HETATM   16  O   UNK N   1      -0.061  -1.120  -1.163  0.00  0.00    -0.363 OA
HETATM   17  H   UNK N   1      -0.530  -1.773  -1.645  0.00  0.00     0.213 HD
ENDBRANCH   1  16
BRANCH   1  18
HETATM   18  O   UNK N   1      -1.353   0.688  -1.238  0.00  0.00    -0.363 OA
HETATM   19  H   UNK N   1      -1.183   1.440  -1.771  0.00  0.00     0.213 HD
ENDBRANCH   1  18
TORSDOF 10
