MODEL 1
REMARK VINA RESULT:      -5.0      0.000      0.000
REMARK  10 active torsions:
REMARK  status: ('A' for Active; 'I' for Inactive)
REMARK    1  A    between atoms: C_3  and  N_8 
REMARK    2  A    between atoms: C_5  and  N_4 
REMARK    3  A    between atoms: C_5  and  C_6 
REMARK    4  A    between atoms: C_5  and  C_11 
REMARK    5  A    between atoms: C_6  and  C_7 
REMARK    6  A    between atoms: C_6  and  O_9 
REMARK    7  A    between atoms: C_6  and  O_10 
REMARK    8  A    between atoms: C_7  and  N_8 
REMARK    9  A    between atoms: C_11  and  C_12 
REMARK   10  A    between atoms: C_12  and  C_13 
ROOT
HETATM    1  C   UNK N   1      36.173  15.118  10.592  0.00  0.00     0.195 C 
ENDROOT
BRANCH   1   2
HETATM    2  C   UNK N   1      36.306  14.118  11.739  0.00  0.00     0.138 C 
BRANCH   2   3
HETATM    3  N   UNK N   1      37.579  13.417  11.650  0.00  0.00    -0.421 N 
HETATM    4  H   UNK N   1      37.777  12.416  11.661  0.00  0.00     0.150 HD
HETATM    5  H   UNK N   1      38.398  14.018  11.564  0.00  0.00     0.150 HD
ENDBRANCH   2   3
BRANCH   2   6
HETATM    6  C   UNK N   1      36.192  14.733  13.139  0.00  0.00     0.030 C 
BRANCH   6   7
HETATM    7  C   UNK N   1      35.848  13.689  14.195  0.00  0.00     0.002 C 
BRANCH   7   8
HETATM    8  C   UNK N   1      36.879  13.699  15.311  0.00  0.00    -0.004 C 
HETATM    9  C   UNK N   1      37.239  15.124  15.693  0.00  0.00     0.005 C 
ENDBRANCH   7   8
ENDBRANCH   6   7
ENDBRANCH   2   6
ENDBRANCH   1   2
BRANCH   1  10
HETATM   10  C   UNK N   1      34.722  15.564  10.507  0.00  0.00     0.184 C 
BRANCH  10  11
HETATM   11  N   UNK N   1      34.566  16.961  10.105  0.00  0.00    -0.412 N 
HETATM   12  H   UNK N   1      34.644  17.776  10.714  0.00  0.00     0.153 HD
BRANCH  11  13
HETATM   13  C   UNK N   1      34.280  16.979   8.677  0.00  0.00     0.077 A 
HETATM   14  C   UNK N   1      33.088  17.874   8.410  0.00  0.00     0.027 A 
HETATM   15  C   UNK N   1      34.488  18.382   8.144  0.00  0.00     0.027 A 
ENDBRANCH  11  13
ENDBRANCH  10  11
ENDBRANCH   1  10
BRANCH   1  16
HETATM   16  O   UNK N   1      36.504  14.524   9.428  0.00  0.00    -0.363 OA
HETATM   17  H   UNK N   1      37.060  13.785   9.276  0.00  0.00     0.213 HD
ENDBRANCH   1  16
BRANCH   1  18
HETATM   18  O   UNK N   1      36.981  16.171  10.843  0.00  0.00    -0.363 OA
HETATM   19  H   UNK N   1      36.927  17.069  10.581  0.00  0.00     0.213 HD
ENDBRANCH   1  18
TORSDOF 10
ENDMDL
MODEL 2
REMARK VINA RESULT:      -4.8      6.625      8.582
REMARK  10 active torsions:
REMARK  status: ('A' for Active; 'I' for Inactive)
REMARK    1  A    between atoms: C_3  and  N_8 
REMARK    2  A    between atoms: C_5  and  N_4 
REMARK    3  A    between atoms: C_5  and  C_6 
REMARK    4  A    between atoms: C_5  and  C_11 
REMARK    5  A    between atoms: C_6  and  C_7 
REMARK    6  A    between atoms: C_6  and  O_9 
REMARK    7  A    between atoms: C_6  and  O_10 
REMARK    8  A    between atoms: C_7  and  N_8 
REMARK    9  A    between atoms: C_11  and  C_12 
REMARK   10  A    between atoms: C_12  and  C_13 
ROOT
HETATM    1  C   UNK N   1      28.105  18.159   8.518  0.00  0.00     0.195 C 
ENDROOT
BRANCH   1   2
HETATM    2  C   UNK N   1      29.574  18.395   8.862  0.00  0.00     0.138 C 
BRANCH   2   3
HETATM    3  N   UNK N   1      29.815  18.100  10.268  0.00  0.00    -0.421 N 
HETATM    4  H   UNK N   1      30.451  18.545  10.929  0.00  0.00     0.150 HD
HETATM    5  H   UNK N   1      29.264  17.332  10.649  0.00  0.00     0.150 HD
ENDBRANCH   2   3
BRANCH   2   6
HETATM    6  C   UNK N   1      30.565  17.579   8.023  0.00  0.00     0.030 C 
BRANCH   6   7
HETATM    7  C   UNK N   1      31.982  17.654   8.581  0.00  0.00     0.002 C 
BRANCH   7   8
HETATM    8  C   UNK N   1      32.986  17.866   7.460  0.00  0.00    -0.004 C 
HETATM    9  C   UNK N   1      34.362  18.171   8.025  0.00  0.00     0.005 C 
ENDBRANCH   7   8
ENDBRANCH   6   7
ENDBRANCH   2   6
ENDBRANCH   1   2
BRANCH   1  10
HETATM   10  C   UNK N   1      28.030  17.507   7.146  0.00  0.00     0.184 C 
BRANCH  10  11
HETATM   11  N   UNK N   1      27.202  18.249   6.195  0.00  0.00    -0.412 N 
HETATM   12  H   UNK N   1      26.189  18.361   6.238  0.00  0.00     0.153 HD
BRANCH  11  13
HETATM   13  C   UNK N   1      28.086  18.798   5.177  0.00  0.00     0.077 A 
HETATM   14  C   UNK N   1      27.276  19.181   3.956  0.00  0.00     0.027 A 
HETATM   15  C   UNK N   1      27.722  20.248   4.930  0.00  0.00     0.027 A 
ENDBRANCH  11  13
ENDBRANCH  10  11
ENDBRANCH   1  10
BRANCH   1  16
HETATM   16  O   UNK N   1      27.453  19.337   8.464  0.00  0.00    -0.363 OA
HETATM   17  H   UNK N   1      26.811  19.632   7.848  0.00  0.00     0.213 HD
ENDBRANCH   1  16
BRANCH   1  18
HETATM   18  O   UNK N   1      27.567  17.351   9.458  0.00  0.00    -0.363 OA
HETATM   19  H   UNK N   1      27.739  17.267  10.375  0.00  0.00     0.213 HD
ENDBRANCH   1  18
TORSDOF 10
ENDMDL
MODEL 3
REMARK VINA RESULT:      -4.7      1.633      1.956
REMARK  10 active torsions:
REMARK  status: ('A' for Active; 'I' for Inactive)
REMARK    1  A    between atoms: C_3  and  N_8 
REMARK    2  A    between atoms: C_5  and  N_4 
REMARK    3  A    between atoms: C_5  and  C_6 
REMARK    4  A    between atoms: C_5  and  C_11 
REMARK    5  A    between atoms: C_6  and  C_7 
REMARK    6  A    between atoms: C_6  and  O_9 
REMARK    7  A    between atoms: C_6  and  O_10 
REMARK    8  A    between atoms: C_7  and  N_8 
REMARK    9  A    between atoms: C_11  and  C_12 
REMARK   10  A    between atoms: C_12  and  C_13 
ROOT
HETATM    1  C   UNK N   1      34.953  14.656  11.020  0.00  0.00     0.195 C 
ENDROOT
BRANCH   1   2
HETATM    2  C   UNK N   1      35.821  14.123  12.157  0.00  0.00     0.138 C 
BRANCH   2   3
HETATM    3  N   UNK N   1      36.378  15.228  12.926  0.00  0.00    -0.421 N 
HETATM    4  H   UNK N   1      36.890  16.051  12.610  0.00  0.00     0.150 HD
HETATM    5  H   UNK N   1      36.234  15.169  13.933  0.00  0.00     0.150 HD
ENDBRANCH   2   3
BRANCH   2   6
HETATM    6  C   UNK N   1      35.096  13.181  13.126  0.00  0.00     0.030 C 
BRANCH   6   7
HETATM    7  C   UNK N   1      35.651  13.280  14.543  0.00  0.00     0.002 C 
BRANCH   7   8
HETATM    8  C   UNK N   1      34.606  12.845  15.557  0.00  0.00    -0.004 C 
HETATM    9  C   UNK N   1      35.183  12.867  16.961  0.00  0.00     0.005 C 
ENDBRANCH   7   8
ENDBRANCH   6   7
ENDBRANCH   2   6
ENDBRANCH   1   2
BRANCH   1  10
HETATM   10  C   UNK N   1      35.584  15.936  10.493  0.00  0.00     0.184 C 
BRANCH  10  11
HETATM   11  N   UNK N   1      34.606  16.974  10.166  0.00  0.00    -0.412 N 
HETATM   12  H   UNK N   1      34.136  17.590  10.829  0.00  0.00     0.153 HD
BRANCH  11  13
HETATM   13  C   UNK N   1      34.426  16.968   8.721  0.00  0.00     0.077 A 
HETATM   14  C   UNK N   1      33.134  17.675   8.369  0.00  0.00     0.027 A 
HETATM   15  C   UNK N   1      34.454  18.395   8.209  0.00  0.00     0.027 A 
ENDBRANCH  11  13
ENDBRANCH  10  11
ENDBRANCH   1  10
BRANCH   1  16
HETATM   16  O   UNK N   1      33.722  14.950  11.483  0.00  0.00    -0.363 OA
HETATM   17  H   UNK N   1      33.466  15.261  12.330  0.00  0.00     0.213 HD
ENDBRANCH   1  16
BRANCH   1  18
HETATM   18  O   UNK N   1      34.893  13.720  10.048  0.00  0.00    -0.363 OA
HETATM   19  H   UNK N   1      34.164  13.336   9.602  0.00  0.00     0.213 HD
ENDBRANCH   1  18
TORSDOF 10
ENDMDL
MODEL 4
REMARK VINA RESULT:      -4.6      1.278      5.829
REMARK  10 active torsions:
REMARK  status: ('A' for Active; 'I' for Inactive)
REMARK    1  A    between atoms: C_3  and  N_8 
REMARK    2  A    between atoms: C_5  and  N_4 
REMARK    3  A    between atoms: C_5  and  C_6 
REMARK    4  A    between atoms: C_5  and  C_11 
REMARK    5  A    between atoms: C_6  and  C_7 
REMARK    6  A    between atoms: C_6  and  O_9 
REMARK    7  A    between atoms: C_6  and  O_10 
REMARK    8  A    between atoms: C_7  and  N_8 
REMARK    9  A    between atoms: C_11  and  C_12 
REMARK   10  A    between atoms: C_12  and  C_13 
ROOT
HETATM    1  C   UNK N   1      35.904  15.965  10.943  0.00  0.00     0.195 C 
ENDROOT
BRANCH   1   2
HETATM    2  C   UNK N   1      34.934  15.145  10.095  0.00  0.00     0.138 C 
BRANCH   2   3
HETATM    3  N   UNK N   1      33.702  14.904  10.834  0.00  0.00    -0.421 N 
HETATM    4  H   UNK N   1      33.386  14.066  11.322  0.00  0.00     0.150 HD
HETATM    5  H   UNK N   1      33.057  15.693  10.867  0.00  0.00     0.150 HD
ENDBRANCH   2   3
BRANCH   2   6
HETATM    6  C   UNK N   1      34.571  15.780   8.747  0.00  0.00     0.030 C 
BRANCH   6   7
HETATM    7  C   UNK N   1      33.079  16.077   8.640  0.00  0.00     0.002 C 
BRANCH   7   8
HETATM    8  C   UNK N   1      32.845  17.566   8.444  0.00  0.00    -0.004 C 
HETATM    9  C   UNK N   1      34.089  18.233   7.884  0.00  0.00     0.005 C 
ENDBRANCH   7   8
ENDBRANCH   6   7
ENDBRANCH   2   6
ENDBRANCH   1   2
BRANCH   1  10
HETATM   10  C   UNK N   1      35.678  15.617  12.406  0.00  0.00     0.184 C 
BRANCH  10  11
HETATM   11  N   UNK N   1      36.662  14.676  12.939  0.00  0.00    -0.412 N 
HETATM   12  H   UNK N   1      37.632  14.583  12.637  0.00  0.00     0.153 HD
BRANCH  11  13
HETATM   13  C   UNK N   1      36.006  13.896  13.980  0.00  0.00     0.077 A 
HETATM   14  C   UNK N   1      36.829  12.661  14.282  0.00  0.00     0.027 A 
HETATM   15  C   UNK N   1      36.894  13.855  15.207  0.00  0.00     0.027 A 
ENDBRANCH  11  13
ENDBRANCH  10  11
ENDBRANCH   1  10
BRANCH   1  16
HETATM   16  O   UNK N   1      35.658  17.280  10.776  0.00  0.00    -0.363 OA
HETATM   17  H   UNK N   1      36.252  17.970  10.551  0.00  0.00     0.213 HD
ENDBRANCH   1  16
BRANCH   1  18
HETATM   18  O   UNK N   1      37.166  15.659  10.571  0.00  0.00    -0.363 OA
HETATM   19  H   UNK N   1      37.627  15.799   9.767  0.00  0.00     0.213 HD
ENDBRANCH   1  18
TORSDOF 10
ENDMDL
MODEL 5
REMARK VINA RESULT:      -4.6      2.972      4.143
REMARK  10 active torsions:
REMARK  status: ('A' for Active; 'I' for Inactive)
REMARK    1  A    between atoms: C_3  and  N_8 
REMARK    2  A    between atoms: C_5  and  N_4 
REMARK    3  A    between atoms: C_5  and  C_6 
REMARK    4  A    between atoms: C_5  and  C_11 
REMARK    5  A    between atoms: C_6  and  C_7 
REMARK    6  A    between atoms: C_6  and  O_9 
REMARK    7  A    between atoms: C_6  and  O_10 
REMARK    8  A    between atoms: C_7  and  N_8 
REMARK    9  A    between atoms: C_11  and  C_12 
REMARK   10  A    between atoms: C_12  and  C_13 
ROOT
HETATM    1  C   UNK N   1      36.133  13.719  13.446  0.00  0.00     0.195 C 
ENDROOT
BRANCH   1   2
HETATM    2  C   UNK N   1      36.499  13.403  14.894  0.00  0.00     0.138 C 
BRANCH   2   3
HETATM    3  N   UNK N   1      37.311  14.476  15.453  0.00  0.00    -0.421 N 
HETATM    4  H   UNK N   1      38.264  14.454  15.816  0.00  0.00     0.150 HD
HETATM    5  H   UNK N   1      36.857  15.388  15.487  0.00  0.00     0.150 HD
ENDBRANCH   2   3
BRANCH   2   6
HETATM    6  C   UNK N   1      35.299  13.176  15.821  0.00  0.00     0.030 C 
BRANCH   6   7
HETATM    7  C   UNK N   1      35.422  11.873  16.605  0.00  0.00     0.002 C 
BRANCH   7   8
HETATM    8  C   UNK N   1      35.335  12.139  18.098  0.00  0.00    -0.004 C 
HETATM    9  C   UNK N   1      35.160  13.623  18.367  0.00  0.00     0.005 C 
ENDBRANCH   7   8
ENDBRANCH   6   7
ENDBRANCH   2   6
ENDBRANCH   1   2
BRANCH   1  10
HETATM   10  C   UNK N   1      36.895  12.766  12.537  0.00  0.00     0.184 C 
BRANCH  10  11
HETATM   11  N   UNK N   1      37.718  13.448  11.539  0.00  0.00    -0.412 N 
HETATM   12  H   UNK N   1      38.534  14.031  11.726  0.00  0.00     0.153 HD
BRANCH  11  13
HETATM   13  C   UNK N   1      37.161  13.143  10.228  0.00  0.00     0.077 A 
HETATM   14  C   UNK N   1      36.654  14.416   9.584  0.00  0.00     0.027 A 
HETATM   15  C   UNK N   1      37.986  13.836   9.162  0.00  0.00     0.027 A 
ENDBRANCH  11  13
ENDBRANCH  10  11
ENDBRANCH   1  10
BRANCH   1  16
HETATM   16  O   UNK N   1      36.504  14.980  13.145  0.00  0.00    -0.363 OA
HETATM   17  H   UNK N   1      36.995  15.592  13.659  0.00  0.00     0.213 HD
ENDBRANCH   1  16
BRANCH   1  18
HETATM   18  O   UNK N   1      34.801  13.559  13.293  0.00  0.00    -0.363 OA
HETATM   19  H   UNK N   1      34.265  12.790  13.289  0.00  0.00     0.213 HD
ENDBRANCH   1  18
TORSDOF 10
ENDMDL
MODEL 6
REMARK VINA RESULT:      -4.5      4.089      5.246
REMARK  10 active torsions:
REMARK  status: ('A' for Active; 'I' for Inactive)
REMARK    1  A    between atoms: C_3  and  N_8 
REMARK    2  A    between atoms: C_5  and  N_4 
REMARK    3  A    between atoms: C_5  and  C_6 
REMARK    4  A    between atoms: C_5  and  C_11 
REMARK    5  A    between atoms: C_6  and  C_7 
REMARK    6  A    between atoms: C_6  and  O_9 
REMARK    7  A    between atoms: C_6  and  O_10 
REMARK    8  A    between atoms: C_7  and  N_8 
REMARK    9  A    between atoms: C_11  and  C_12 
REMARK   10  A    between atoms: C_12  and  C_13 
ROOT
HETATM    1  C   UNK N   1      34.390  18.080   8.081  0.00  0.00     0.195 C 
ENDROOT
BRANCH   1   2
HETATM    2  C   UNK N   1      34.963  16.913   8.882  0.00  0.00     0.138 C 
BRANCH   2   3
HETATM    3  N   UNK N   1      34.516  16.986  10.266  0.00  0.00    -0.421 N 
HETATM    4  H   UNK N   1      33.712  17.468  10.669  0.00  0.00     0.150 HD
HETATM    5  H   UNK N   1      35.094  16.479  10.935  0.00  0.00     0.150 HD
ENDBRANCH   2   3
BRANCH   2   6
HETATM    6  C   UNK N   1      34.606  15.526   8.334  0.00  0.00     0.030 C 
BRANCH   6   7
HETATM    7  C   UNK N   1      33.835  14.691   9.351  0.00  0.00     0.002 C 
BRANCH   7   8
HETATM    8  C   UNK N   1      32.659  13.995   8.687  0.00  0.00    -0.004 C 
HETATM    9  C   UNK N   1      32.759  14.102   7.175  0.00  0.00     0.005 C 
ENDBRANCH   7   8
ENDBRANCH   6   7
ENDBRANCH   2   6
ENDBRANCH   1   2
BRANCH   1  10
HETATM   10  C   UNK N   1      32.929  18.256   8.464  0.00  0.00     0.184 C 
BRANCH  10  11
HETATM   11  N   UNK N   1      32.002  17.622   7.526  0.00  0.00    -0.412 N 
HETATM   12  H   UNK N   1      32.138  17.521   6.520  0.00  0.00     0.153 HD
BRANCH  11  13
HETATM   13  C   UNK N   1      30.852  17.160   8.290  0.00  0.00     0.077 A 
HETATM   14  C   UNK N   1      30.137  18.348   8.898  0.00  0.00     0.027 A 
HETATM   15  C   UNK N   1      29.584  17.692   7.653  0.00  0.00     0.027 A 
ENDBRANCH  11  13
ENDBRANCH  10  11
ENDBRANCH   1  10
BRANCH   1  16
HETATM   16  O   UNK N   1      34.454  17.804   6.763  0.00  0.00    -0.363 OA
HETATM   17  H   UNK N   1      33.958  17.186   6.262  0.00  0.00     0.213 HD
ENDBRANCH   1  16
BRANCH   1  18
HETATM   18  O   UNK N   1      35.096  19.193   8.376  0.00  0.00    -0.363 OA
HETATM   19  H   UNK N   1      35.347  19.569   9.197  0.00  0.00     0.213 HD
ENDBRANCH   1  18
TORSDOF 10
ENDMDL
MODEL 7
REMARK VINA RESULT:      -4.4      3.518      5.098
REMARK  10 active torsions:
REMARK  status: ('A' for Active; 'I' for Inactive)
REMARK    1  A    between atoms: C_3  and  N_8 
REMARK    2  A    between atoms: C_5  and  N_4 
REMARK    3  A    between atoms: C_5  and  C_6 
REMARK    4  A    between atoms: C_5  and  C_11 
REMARK    5  A    between atoms: C_6  and  C_7 
REMARK    6  A    between atoms: C_6  and  O_9 
REMARK    7  A    between atoms: C_6  and  O_10 
REMARK    8  A    between atoms: C_7  and  N_8 
REMARK    9  A    between atoms: C_11  and  C_12 
REMARK   10  A    between atoms: C_12  and  C_13 
ROOT
HETATM    1  C   UNK N   1      36.878  13.269  15.039  0.00  0.00     0.195 C 
ENDROOT
BRANCH   1   2
HETATM    2  C   UNK N   1      35.975  12.738  16.149  0.00  0.00     0.138 C 
BRANCH   2   3
HETATM    3  N   UNK N   1      34.599  13.158  15.921  0.00  0.00    -0.421 N 
HETATM    4  H   UNK N   1      33.736  12.613  15.943  0.00  0.00     0.150 HD
HETATM    5  H   UNK N   1      34.479  14.147  15.707  0.00  0.00     0.150 HD
ENDBRANCH   2   3
BRANCH   2   6
HETATM    6  C   UNK N   1      35.991  11.213  16.311  0.00  0.00     0.030 C 
BRANCH   6   7
HETATM    7  C   UNK N   1      34.680  10.576  15.859  0.00  0.00     0.002 C 
BRANCH   7   8
HETATM    8  C   UNK N   1      34.857   9.892  14.514  0.00  0.00    -0.004 C 
HETATM    9  C   UNK N   1      33.930  10.502  13.477  0.00  0.00     0.005 C 
ENDBRANCH   7   8
ENDBRANCH   6   7
ENDBRANCH   2   6
ENDBRANCH   1   2
BRANCH   1  10
HETATM   10  C   UNK N   1      36.007  13.663  13.856  0.00  0.00     0.184 C 
BRANCH  10  11
HETATM   11  N   UNK N   1      36.761  14.254  12.751  0.00  0.00    -0.412 N 
HETATM   12  H   UNK N   1      37.351  15.085  12.800  0.00  0.00     0.153 HD
BRANCH  11  13
HETATM   13  C   UNK N   1      36.518  13.441  11.568  0.00  0.00     0.077 A 
HETATM   14  C   UNK N   1      36.936  14.208  10.331  0.00  0.00     0.027 A 
HETATM   15  C   UNK N   1      37.840  13.134  10.893  0.00  0.00     0.027 A 
ENDBRANCH  11  13
ENDBRANCH  10  11
ENDBRANCH   1  10
BRANCH   1  16
HETATM   16  O   UNK N   1      37.727  12.301  14.638  0.00  0.00    -0.363 OA
HETATM   17  H   UNK N   1      37.889  11.976  13.774  0.00  0.00     0.213 HD
ENDBRANCH   1  16
BRANCH   1  18
HETATM   18  O   UNK N   1      37.554  14.339  15.509  0.00  0.00    -0.363 OA
HETATM   19  H   UNK N   1      38.027  14.473  16.307  0.00  0.00     0.213 HD
ENDBRANCH   1  18
TORSDOF 10
ENDMDL
MODEL 8
REMARK VINA RESULT:      -4.4      2.685      3.547
REMARK  10 active torsions:
REMARK  status: ('A' for Active; 'I' for Inactive)
REMARK    1  A    between atoms: C_3  and  N_8 
REMARK    2  A    between atoms: C_5  and  N_4 
REMARK    3  A    between atoms: C_5  and  C_6 
REMARK    4  A    between atoms: C_5  and  C_11 
REMARK    5  A    between atoms: C_6  and  C_7 
REMARK    6  A    between atoms: C_6  and  O_9 
REMARK    7  A    between atoms: C_6  and  O_10 
REMARK    8  A    between atoms: C_7  and  N_8 
REMARK    9  A    between atoms: C_11  and  C_12 
REMARK   10  A    between atoms: C_12  and  C_13 
ROOT
HETATM    1  C   UNK N   1      36.336  13.283  13.406  0.00  0.00     0.195 C 
ENDROOT
BRANCH   1   2
HETATM    2  C   UNK N   1      36.477  13.122  14.918  0.00  0.00     0.138 C 
BRANCH   2   3
HETATM    3  N   UNK N   1      37.209  14.250  15.477  0.00  0.00    -0.421 N 
HETATM    4  H   UNK N   1      37.060  14.758  16.349  0.00  0.00     0.150 HD
HETATM    5  H   UNK N   1      37.989  14.583  14.911  0.00  0.00     0.150 HD
ENDBRANCH   2   3
BRANCH   2   6
HETATM    6  C   UNK N   1      35.148  12.990  15.672  0.00  0.00     0.030 C 
BRANCH   6   7
HETATM    7  C   UNK N   1      35.283  13.383  17.140  0.00  0.00     0.002 C 
BRANCH   7   8
HETATM    8  C   UNK N   1      35.258  12.150  18.026  0.00  0.00    -0.004 C 
HETATM    9  C   UNK N   1      35.298  12.544  19.492  0.00  0.00     0.005 C 
ENDBRANCH   7   8
ENDBRANCH   6   7
ENDBRANCH   2   6
ENDBRANCH   1   2
BRANCH   1  10
HETATM   10  C   UNK N   1      36.106  14.754  13.097  0.00  0.00     0.184 C 
BRANCH  10  11
HETATM   11  N   UNK N   1      36.399  15.109  11.709  0.00  0.00    -0.412 N 
HETATM   12  H   UNK N   1      37.317  15.102  11.266  0.00  0.00     0.153 HD
BRANCH  11  13
HETATM   13  C   UNK N   1      35.140  15.474  11.074  0.00  0.00     0.077 A 
HETATM   14  C   UNK N   1      35.306  16.787  10.337  0.00  0.00     0.027 A 
HETATM   15  C   UNK N   1      35.324  15.483   9.570  0.00  0.00     0.027 A 
ENDBRANCH  11  13
ENDBRANCH  10  11
ENDBRANCH   1  10
BRANCH   1  16
HETATM   16  O   UNK N   1      35.268  12.585  12.969  0.00  0.00    -0.363 OA
HETATM   17  H   UNK N   1      34.705  12.005  13.443  0.00  0.00     0.213 HD
ENDBRANCH   1  16
BRANCH   1  18
HETATM   18  O   UNK N   1      37.471  12.846  12.819  0.00  0.00    -0.363 OA
HETATM   19  H   UNK N   1      38.368  12.899  13.086  0.00  0.00     0.213 HD
ENDBRANCH   1  18
TORSDOF 10
ENDMDL
MODEL 9
REMARK VINA RESULT:      -4.3      3.574      5.765
REMARK  10 active torsions:
REMARK  status: ('A' for Active; 'I' for Inactive)
REMARK    1  A    between atoms: C_3  and  N_8 
REMARK    2  A    between atoms: C_5  and  N_4 
REMARK    3  A    between atoms: C_5  and  C_6 
REMARK    4  A    between atoms: C_5  and  C_11 
REMARK    5  A    between atoms: C_6  and  C_7 
REMARK    6  A    between atoms: C_6  and  O_9 
REMARK    7  A    between atoms: C_6  and  O_10 
REMARK    8  A    between atoms: C_7  and  N_8 
REMARK    9  A    between atoms: C_11  and  C_12 
REMARK   10  A    between atoms: C_12  and  C_13 
ROOT
HETATM    1  C   UNK N   1      35.892  14.094  12.652  0.00  0.00     0.195 C 
ENDROOT
BRANCH   1   2
HETATM    2  C   UNK N   1      36.535  12.986  11.822  0.00  0.00     0.138 C 
BRANCH   2   3
HETATM    3  N   UNK N   1      37.644  12.390  12.554  0.00  0.00    -0.421 N 
HETATM    4  H   UNK N   1      37.922  12.505  13.529  0.00  0.00     0.150 HD
HETATM    5  H   UNK N   1      38.234  11.762  12.009  0.00  0.00     0.150 HD
ENDBRANCH   2   3
BRANCH   2   6
HETATM    6  C   UNK N   1      35.578  11.863  11.404  0.00  0.00     0.030 C 
BRANCH   6   7
HETATM    7  C   UNK N   1      35.551  10.726  12.421  0.00  0.00     0.002 C 
BRANCH   7   8
HETATM    8  C   UNK N   1      34.125  10.255  12.654  0.00  0.00    -0.004 C 
HETATM    9  C   UNK N   1      33.679  10.582  14.069  0.00  0.00     0.005 C 
ENDBRANCH   7   8
ENDBRANCH   6   7
ENDBRANCH   2   6
ENDBRANCH   1   2
BRANCH   1  10
HETATM   10  C   UNK N   1      36.374  13.963  14.088  0.00  0.00     0.184 C 
BRANCH  10  11
HETATM   11  N   UNK N   1      35.365  13.409  14.991  0.00  0.00    -0.412 N 
HETATM   12  H   UNK N   1      34.398  13.191  14.753  0.00  0.00     0.153 HD
BRANCH  11  13
HETATM   13  C   UNK N   1      35.994  13.225  16.292  0.00  0.00     0.077 A 
HETATM   14  C   UNK N   1      34.969  13.444  17.385  0.00  0.00     0.027 A 
HETATM   15  C   UNK N   1      35.360  12.038  16.989  0.00  0.00     0.027 A 
ENDBRANCH  11  13
ENDBRANCH  10  11
ENDBRANCH   1  10
BRANCH   1  16
HETATM   16  O   UNK N   1      34.551  13.954  12.640  0.00  0.00    -0.363 OA
HETATM   17  H   UNK N   1      33.886  14.612  12.699  0.00  0.00     0.213 HD
ENDBRANCH   1  16
BRANCH   1  18
HETATM   18  O   UNK N   1      36.257  15.287  12.134  0.00  0.00    -0.363 OA
HETATM   19  H   UNK N   1      36.405  15.560  11.250  0.00  0.00     0.213 HD
ENDBRANCH   1  18
TORSDOF 10
ENDMDL
