MODEL 1
REMARK VINA RESULT:      -5.6      0.000      0.000
REMARK WARNING: 32 MAX_TORS EXCEEDED!!!
REMARK  41 active torsions:
REMARK  status: ('A' for Active; 'I' for Inactive)
REMARK    1  A    between atoms: C_2  and  C_1 
REMARK    2  A    between atoms: O_4  and  C_1 
REMARK    3  A    between atoms: C_2  and  O_6 
REMARK    4  A    between atoms: C_3  and  C_2 
REMARK    5  A    between atoms: O_5  and  C_3 
REMARK    6  A    between atoms: P_7  and  O_4 
REMARK    7  A    between atoms: O_5  and  C_14 
REMARK    8  A    between atoms: C_31  and  O_6 
REMARK    9  A    between atoms: O_9  and  P_7 
REMARK   10  A    between atoms: O_10  and  P_7 
REMARK   11  A    between atoms: C_11  and  O_10 
REMARK   12  A    between atoms: C_12  and  C_11 
REMARK   13  A    between atoms: N_13  and  C_12 
REMARK   14  A    between atoms: C_14  and  C_16 
REMARK   15  A    between atoms: C_16  and  C_17 
REMARK   16  A    between atoms: C_17  and  C_18 
REMARK   17  A    between atoms: C_18  and  C_19 
REMARK   18  A    between atoms: C_19  and  C_20 
REMARK   19  A    between atoms: C_20  and  C_21 
REMARK   20  A    between atoms: C_21  and  C_22 
REMARK   21  A    between atoms: C_22  and  C_23 
REMARK   22  A    between atoms: C_23  and  C_24 
REMARK   23  A    between atoms: C_24  and  C_25 
REMARK   24  A    between atoms: C_25  and  C_26 
REMARK   25  A    between atoms: C_26  and  C_27 
REMARK   26  A    between atoms: C_27  and  C_28 
REMARK   27  A    between atoms: C_28  and  C_29 
REMARK   28  A    between atoms: C_31  and  C_33 
REMARK   29  A    between atoms: C_33  and  C_34 
REMARK   30  A    between atoms: C_34  and  C_35 
REMARK   31  A    between atoms: C_35  and  C_36 
REMARK   32  A    between atoms: C_36  and  C_37 
REMARK   33  A    between atoms: C_37  and  C_38 
REMARK   34  A    between atoms: C_38  and  C_39 
REMARK   35  A    between atoms: C_39  and  C_40 
REMARK   36  A    between atoms: C_40  and  C_41 
REMARK   37  A    between atoms: C_41  and  C_42 
REMARK   38  A    between atoms: C_42  and  C_43 
REMARK   39  A    between atoms: C_43  and  C_44 
REMARK   40  A    between atoms: C_44  and  C_45 
REMARK   41  A    between atoms: C_45  and  C_46 
ROOT
HETATM    1  C   UNK N   1      21.197  18.908   4.218  0.00  0.00     0.180 C 
ENDROOT
BRANCH   1   2
HETATM    2  C   UNK N   1      20.274  18.001   3.423  0.00  0.00     0.215 C 
BRANCH   2   3
HETATM    3  O   UNK N   1      20.884  17.574   2.240  0.00  0.00    -0.294 OA
BRANCH   3   4
HETATM    4  P   UNK N   1      20.233  15.990   1.970  0.00  0.00     0.393 P 
HETATM    5  O   UNK N   1      20.554  16.386   0.504  0.00  0.00    -0.631 OA
BRANCH   4   6
HETATM    6  O   UNK N   1      21.741  15.954   2.835  0.00  0.00    -0.307 OA
HETATM    7  H   UNK N   1      22.703  15.950   2.707  0.00  0.00     0.222 HD
ENDBRANCH   4   6
BRANCH   4   8
HETATM    8  O   UNK N   1      21.206  14.625   1.513  0.00  0.00    -0.295 OA
BRANCH   8   9
HETATM    9  C   UNK N   1      22.529  15.054   1.671  0.00  0.00     0.199 C 
BRANCH   9  10
HETATM   10  C   UNK N   1      23.466  14.206   0.824  0.00  0.00     0.138 C 
BRANCH  10  11
HETATM   11  N   UNK N   1      24.840  14.391   1.259  0.00  0.00    -0.428 N 
HETATM   12  H   UNK N   1      25.628  13.986   0.756  0.00  0.00     0.149 HD
HETATM   13  H   UNK N   1      25.021  14.946   2.096  0.00  0.00     0.149 HD
ENDBRANCH  10  11
ENDBRANCH   9  10
ENDBRANCH   8   9
ENDBRANCH   4   8
ENDBRANCH   3   4
ENDBRANCH   2   3
ENDBRANCH   1   2
BRANCH   1  14
HETATM   14  O   UNK N   1      21.900  18.159   5.149  0.00  0.00    -0.312 OA
BRANCH  14  15
HETATM   15  C   UNK N   1      21.416  17.704   6.338  0.00  0.00     0.259 C 
HETATM   16  O   UNK N   1      21.042  18.513   7.171  0.00  0.00    -0.265 OA
BRANCH  15  17
HETATM   17  C   UNK N   1      21.284  16.241   6.650  0.00  0.00     0.111 C 
BRANCH  17  18
HETATM   18  C   UNK N   1      20.941  16.064   8.119  0.00  0.00     0.010 C 
BRANCH  18  19
HETATM   19  C   UNK N   1      20.653  14.613   8.454  0.00  0.00     0.000 C 
BRANCH  19  20
HETATM   20  C   UNK N   1      21.282  14.242   9.787  0.00  0.00     0.000 C 
BRANCH  20  21
HETATM   21  C   UNK N   1      20.761  12.898  10.274  0.00  0.00     0.000 C 
BRANCH  21  22
HETATM   22  C   UNK N   1      21.935  12.004  10.637  0.00  0.00     0.000 C 
BRANCH  22  23
HETATM   23  C   UNK N   1      23.249  12.774  10.669  0.00  0.00     0.000 C 
BRANCH  23  24
HETATM   24  C   UNK N   1      24.176  12.384   9.522  0.00  0.00     0.000 C 
BRANCH  24  25
HETATM   25  C   UNK N   1      23.572  11.259   8.687  0.00  0.00     0.000 C 
BRANCH  25  26
HETATM   26  C   UNK N   1      23.165  11.747   7.305  0.00  0.00     0.000 C 
BRANCH  26  27
HETATM   27  C   UNK N   1      23.818  13.080   6.984  0.00  0.00     0.000 C 
BRANCH  27  28
HETATM   28  C   UNK N   1      25.177  12.852   6.356  0.00  0.00     0.000 C 
BRANCH  28  29
HETATM   29  C   UNK N   1      25.856  14.179   6.083  0.00  0.00    -0.000 C 
BRANCH  29  30
HETATM   30  C   UNK N   1      24.936  15.299   6.513  0.00  0.00    -0.005 C 
HETATM   31  C   UNK N   1      24.832  16.322   5.401  0.00  0.00     0.005 C 
ENDBRANCH  29  30
ENDBRANCH  28  29
ENDBRANCH  27  28
ENDBRANCH  26  27
ENDBRANCH  25  26
ENDBRANCH  24  25
ENDBRANCH  23  24
ENDBRANCH  22  23
ENDBRANCH  21  22
ENDBRANCH  20  21
ENDBRANCH  19  20
ENDBRANCH  18  19
ENDBRANCH  17  18
ENDBRANCH  15  17
ENDBRANCH  14  15
ENDBRANCH   1  14
BRANCH   1  32
HETATM   32  C   UNK N   1      22.156  19.665   3.307  0.00  0.00     0.213 C 
BRANCH  32  33
HETATM   33  O   UNK N   1      23.478  19.326   3.516  0.00  0.00    -0.319 OA
BRANCH  33  34
HETATM   34  C   UNK N   1      24.500  20.205   3.336  0.00  0.00     0.258 C 
HETATM   35  O   UNK N   1      24.533  20.882   2.321  0.00  0.00    -0.265 OA
BRANCH  34  36
HETATM   36  C   UNK N   1      25.608  20.348   4.342  0.00  0.00     0.111 C 
BRANCH  36  37
HETATM   37  C   UNK N   1      26.901  19.776   3.783  0.00  0.00     0.010 C 
BRANCH  37  38
HETATM   38  C   UNK N   1      28.049  19.836   4.762  0.00  0.00     0.000 C 
BRANCH  38  39
HETATM   39  C   UNK N   1      27.646  19.366   6.149  0.00  0.00     0.000 C 
BRANCH  39  40
HETATM   40  C   UNK N   1      27.810  17.857   6.246  0.00  0.00     0.000 C 
BRANCH  40  41
HETATM   41  C   UNK N   1      27.995  17.398   7.688  0.00  0.00     0.000 C 
BRANCH  41  42
HETATM   42  C   UNK N   1      28.272  18.555   8.639  0.00  0.00     0.000 C 
BRANCH  42  43
HETATM   43  C   UNK N   1      29.519  18.264   9.458  0.00  0.00     0.000 C 
BRANCH  43  44
HETATM   44  C   UNK N   1      30.777  18.540   8.665  0.00  0.00     0.000 C 
BRANCH  44  45
HETATM   45  C   UNK N   1      31.617  17.284   8.558  0.00  0.00     0.000 C 
BRANCH  45  46
HETATM   46  C   UNK N   1      32.266  17.230   7.194  0.00  0.00     0.000 C 
BRANCH  46  47
HETATM   47  C   UNK N   1      31.290  16.621   6.214  0.00  0.00     0.000 C 
BRANCH  47  48
HETATM   48  C   UNK N   1      31.251  17.462   4.955  0.00  0.00    -0.000 C 
BRANCH  48  49
HETATM   49  C   UNK N   1      32.641  17.575   4.356  0.00  0.00    -0.005 C 
HETATM   50  C   UNK N   1      32.731  16.791   3.062  0.00  0.00     0.005 C 
ENDBRANCH  48  49
ENDBRANCH  47  48
ENDBRANCH  46  47
ENDBRANCH  45  46
ENDBRANCH  44  45
ENDBRANCH  43  44
ENDBRANCH  42  43
ENDBRANCH  41  42
ENDBRANCH  40  41
ENDBRANCH  39  40
ENDBRANCH  38  39
ENDBRANCH  37  38
ENDBRANCH  36  37
ENDBRANCH  34  36
ENDBRANCH  33  34
ENDBRANCH  32  33
ENDBRANCH   1  32
TORSDOF 41
ENDMDL
MODEL 2
REMARK VINA RESULT:      -5.5      2.928      7.051
REMARK WARNING: 32 MAX_TORS EXCEEDED!!!
REMARK  41 active torsions:
REMARK  status: ('A' for Active; 'I' for Inactive)
REMARK    1  A    between atoms: C_2  and  C_1 
REMARK    2  A    between atoms: O_4  and  C_1 
REMARK    3  A    between atoms: C_2  and  O_6 
REMARK    4  A    between atoms: C_3  and  C_2 
REMARK    5  A    between atoms: O_5  and  C_3 
REMARK    6  A    between atoms: P_7  and  O_4 
REMARK    7  A    between atoms: O_5  and  C_14 
REMARK    8  A    between atoms: C_31  and  O_6 
REMARK    9  A    between atoms: O_9  and  P_7 
REMARK   10  A    between atoms: O_10  and  P_7 
REMARK   11  A    between atoms: C_11  and  O_10 
REMARK   12  A    between atoms: C_12  and  C_11 
REMARK   13  A    between atoms: N_13  and  C_12 
REMARK   14  A    between atoms: C_14  and  C_16 
REMARK   15  A    between atoms: C_16  and  C_17 
REMARK   16  A    between atoms: C_17  and  C_18 
REMARK   17  A    between atoms: C_18  and  C_19 
REMARK   18  A    between atoms: C_19  and  C_20 
REMARK   19  A    between atoms: C_20  and  C_21 
REMARK   20  A    between atoms: C_21  and  C_22 
REMARK   21  A    between atoms: C_22  and  C_23 
REMARK   22  A    between atoms: C_23  and  C_24 
REMARK   23  A    between atoms: C_24  and  C_25 
REMARK   24  A    between atoms: C_25  and  C_26 
REMARK   25  A    between atoms: C_26  and  C_27 
REMARK   26  A    between atoms: C_27  and  C_28 
REMARK   27  A    between atoms: C_28  and  C_29 
REMARK   28  A    between atoms: C_31  and  C_33 
REMARK   29  A    between atoms: C_33  and  C_34 
REMARK   30  A    between atoms: C_34  and  C_35 
REMARK   31  A    between atoms: C_35  and  C_36 
REMARK   32  A    between atoms: C_36  and  C_37 
REMARK   33  A    between atoms: C_37  and  C_38 
REMARK   34  A    between atoms: C_38  and  C_39 
REMARK   35  A    between atoms: C_39  and  C_40 
REMARK   36  A    between atoms: C_40  and  C_41 
REMARK   37  A    between atoms: C_41  and  C_42 
REMARK   38  A    between atoms: C_42  and  C_43 
REMARK   39  A    between atoms: C_43  and  C_44 
REMARK   40  A    between atoms: C_44  and  C_45 
REMARK   41  A    between atoms: C_45  and  C_46 
ROOT
HETATM    1  C   UNK N   1      23.164  18.229   4.060  0.00  0.00     0.180 C 
ENDROOT
BRANCH   1   2
HETATM    2  C   UNK N   1      24.559  17.732   3.726  0.00  0.00     0.215 C 
BRANCH   2   3
HETATM    3  O   UNK N   1      25.531  18.454   4.425  0.00  0.00    -0.294 OA
BRANCH   3   4
HETATM    4  P   UNK N   1      26.853  17.343   4.590  0.00  0.00     0.393 P 
HETATM    5  O   UNK N   1      27.645  18.678   4.542  0.00  0.00    -0.631 OA
BRANCH   4   6
HETATM    6  O   UNK N   1      25.843  17.396   6.006  0.00  0.00    -0.307 OA
HETATM    7  H   UNK N   1      25.540  16.861   6.756  0.00  0.00     0.222 HD
ENDBRANCH   4   6
BRANCH   4   8
HETATM    8  O   UNK N   1      27.780  17.177   6.051  0.00  0.00    -0.295 OA
BRANCH   8   9
HETATM    9  C   UNK N   1      28.064  18.488   6.451  0.00  0.00     0.199 C 
BRANCH   9  10
HETATM   10  C   UNK N   1      28.182  18.566   7.965  0.00  0.00     0.138 C 
BRANCH  10  11
HETATM   11  N   UNK N   1      27.540  17.415   8.578  0.00  0.00    -0.428 N 
HETATM   12  H   UNK N   1      27.345  17.369   9.577  0.00  0.00     0.149 HD
HETATM   13  H   UNK N   1      27.277  16.626   7.987  0.00  0.00     0.149 HD
ENDBRANCH  10  11
ENDBRANCH   9  10
ENDBRANCH   8   9
ENDBRANCH   4   8
ENDBRANCH   3   4
ENDBRANCH   2   3
ENDBRANCH   1   2
BRANCH   1  14
HETATM   14  O   UNK N   1      22.978  18.213   5.434  0.00  0.00    -0.312 OA
BRANCH  14  15
HETATM   15  C   UNK N   1      21.824  17.888   6.081  0.00  0.00     0.259 C 
HETATM   16  O   UNK N   1      21.312  18.711   6.822  0.00  0.00    -0.265 OA
BRANCH  15  17
HETATM   17  C   UNK N   1      21.131  16.571   5.885  0.00  0.00     0.111 C 
BRANCH  17  18
HETATM   18  C   UNK N   1      20.533  16.110   7.204  0.00  0.00     0.010 C 
BRANCH  18  19
HETATM   19  C   UNK N   1      21.455  15.148   7.928  0.00  0.00     0.000 C 
BRANCH  19  20
HETATM   20  C   UNK N   1      20.889  14.801   9.295  0.00  0.00     0.000 C 
BRANCH  20  21
HETATM   21  C   UNK N   1      20.952  13.301   9.540  0.00  0.00     0.000 C 
BRANCH  21  22
HETATM   22  C   UNK N   1      22.052  12.999  10.544  0.00  0.00     0.000 C 
BRANCH  22  23
HETATM   23  C   UNK N   1      22.920  11.827  10.104  0.00  0.00     0.000 C 
BRANCH  23  24
HETATM   24  C   UNK N   1      24.403  12.081  10.352  0.00  0.00     0.000 C 
BRANCH  24  25
HETATM   25  C   UNK N   1      24.902  13.266   9.531  0.00  0.00     0.000 C 
BRANCH  25  26
HETATM   26  C   UNK N   1      24.833  12.979   8.039  0.00  0.00     0.000 C 
BRANCH  26  27
HETATM   27  C   UNK N   1      24.985  14.257   7.231  0.00  0.00     0.000 C 
BRANCH  27  28
HETATM   28  C   UNK N   1      25.046  13.931   5.754  0.00  0.00     0.000 C 
BRANCH  28  29
HETATM   29  C   UNK N   1      23.776  14.384   5.066  0.00  0.00    -0.000 C 
BRANCH  29  30
HETATM   30  C   UNK N   1      23.913  14.154   3.578  0.00  0.00    -0.005 C 
HETATM   31  C   UNK N   1      25.271  13.555   3.282  0.00  0.00     0.005 C 
ENDBRANCH  29  30
ENDBRANCH  28  29
ENDBRANCH  27  28
ENDBRANCH  26  27
ENDBRANCH  25  26
ENDBRANCH  24  25
ENDBRANCH  23  24
ENDBRANCH  22  23
ENDBRANCH  21  22
ENDBRANCH  20  21
ENDBRANCH  19  20
ENDBRANCH  18  19
ENDBRANCH  17  18
ENDBRANCH  15  17
ENDBRANCH  14  15
ENDBRANCH   1  14
BRANCH   1  32
HETATM   32  C   UNK N   1      22.921  19.627   3.504  0.00  0.00     0.213 C 
BRANCH  32  33
HETATM   33  O   UNK N   1      21.803  19.698   2.695  0.00  0.00    -0.319 OA
BRANCH  33  34
HETATM   34  C   UNK N   1      20.538  19.743   3.191  0.00  0.00     0.258 C 
HETATM   35  O   UNK N   1      20.252  20.594   4.017  0.00  0.00    -0.265 OA
BRANCH  34  36
HETATM   36  C   UNK N   1      19.486  18.756   2.768  0.00  0.00     0.111 C 
BRANCH  36  37
HETATM   37  C   UNK N   1      20.138  17.480   2.259  0.00  0.00     0.010 C 
BRANCH  37  38
HETATM   38  C   UNK N   1      20.064  17.334   0.758  0.00  0.00     0.000 C 
BRANCH  38  39
HETATM   39  C   UNK N   1      19.735  15.913   0.335  0.00  0.00     0.000 C 
BRANCH  39  40
HETATM   40  C   UNK N   1      20.633  14.936   1.077  0.00  0.00     0.000 C 
BRANCH  40  41
HETATM   41  C   UNK N   1      19.889  13.663   1.464  0.00  0.00     0.000 C 
BRANCH  41  42
HETATM   42  C   UNK N   1      19.444  13.666   2.921  0.00  0.00     0.000 C 
BRANCH  42  43
HETATM   43  C   UNK N   1      20.426  12.869   3.762  0.00  0.00     0.000 C 
BRANCH  43  44
HETATM   44  C   UNK N   1      20.051  12.900   5.227  0.00  0.00     0.000 C 
BRANCH  44  45
HETATM   45  C   UNK N   1      20.449  11.602   5.899  0.00  0.00     0.000 C 
BRANCH  45  46
HETATM   46  C   UNK N   1      21.842  11.740   6.467  0.00  0.00     0.000 C 
BRANCH  46  47
HETATM   47  C   UNK N   1      22.606  10.463   6.201  0.00  0.00     0.000 C 
BRANCH  47  48
HETATM   48  C   UNK N   1      23.513  10.660   5.003  0.00  0.00    -0.000 C 
BRANCH  48  49
HETATM   49  C   UNK N   1      23.029   9.822   3.835  0.00  0.00    -0.005 C 
HETATM   50  C   UNK N   1      23.073  10.622   2.549  0.00  0.00     0.005 C 
ENDBRANCH  48  49
ENDBRANCH  47  48
ENDBRANCH  46  47
ENDBRANCH  45  46
ENDBRANCH  44  45
ENDBRANCH  43  44
ENDBRANCH  42  43
ENDBRANCH  41  42
ENDBRANCH  40  41
ENDBRANCH  39  40
ENDBRANCH  38  39
ENDBRANCH  37  38
ENDBRANCH  36  37
ENDBRANCH  34  36
ENDBRANCH  33  34
ENDBRANCH  32  33
ENDBRANCH   1  32
TORSDOF 41
ENDMDL
MODEL 3
REMARK VINA RESULT:      -5.5      3.364      7.676
REMARK WARNING: 32 MAX_TORS EXCEEDED!!!
REMARK  41 active torsions:
REMARK  status: ('A' for Active; 'I' for Inactive)
REMARK    1  A    between atoms: C_2  and  C_1 
REMARK    2  A    between atoms: O_4  and  C_1 
REMARK    3  A    between atoms: C_2  and  O_6 
REMARK    4  A    between atoms: C_3  and  C_2 
REMARK    5  A    between atoms: O_5  and  C_3 
REMARK    6  A    between atoms: P_7  and  O_4 
REMARK    7  A    between atoms: O_5  and  C_14 
REMARK    8  A    between atoms: C_31  and  O_6 
REMARK    9  A    between atoms: O_9  and  P_7 
REMARK   10  A    between atoms: O_10  and  P_7 
REMARK   11  A    between atoms: C_11  and  O_10 
REMARK   12  A    between atoms: C_12  and  C_11 
REMARK   13  A    between atoms: N_13  and  C_12 
REMARK   14  A    between atoms: C_14  and  C_16 
REMARK   15  A    between atoms: C_16  and  C_17 
REMARK   16  A    between atoms: C_17  and  C_18 
REMARK   17  A    between atoms: C_18  and  C_19 
REMARK   18  A    between atoms: C_19  and  C_20 
REMARK   19  A    between atoms: C_20  and  C_21 
REMARK   20  A    between atoms: C_21  and  C_22 
REMARK   21  A    between atoms: C_22  and  C_23 
REMARK   22  A    between atoms: C_23  and  C_24 
REMARK   23  A    between atoms: C_24  and  C_25 
REMARK   24  A    between atoms: C_25  and  C_26 
REMARK   25  A    between atoms: C_26  and  C_27 
REMARK   26  A    between atoms: C_27  and  C_28 
REMARK   27  A    between atoms: C_28  and  C_29 
REMARK   28  A    between atoms: C_31  and  C_33 
REMARK   29  A    between atoms: C_33  and  C_34 
REMARK   30  A    between atoms: C_34  and  C_35 
REMARK   31  A    between atoms: C_35  and  C_36 
REMARK   32  A    between atoms: C_36  and  C_37 
REMARK   33  A    between atoms: C_37  and  C_38 
REMARK   34  A    between atoms: C_38  and  C_39 
REMARK   35  A    between atoms: C_39  and  C_40 
REMARK   36  A    between atoms: C_40  and  C_41 
REMARK   37  A    between atoms: C_41  and  C_42 
REMARK   38  A    between atoms: C_42  and  C_43 
REMARK   39  A    between atoms: C_43  and  C_44 
REMARK   40  A    between atoms: C_44  and  C_45 
REMARK   41  A    between atoms: C_45  and  C_46 
ROOT
HETATM    1  C   UNK N   1      20.270  15.826   7.154  0.00  0.00     0.180 C 
ENDROOT
BRANCH   1   2
HETATM    2  C   UNK N   1      20.651  14.401   7.516  0.00  0.00     0.215 C 
BRANCH   2   3
HETATM    3  O   UNK N   1      19.938  13.959   8.634  0.00  0.00    -0.294 OA
BRANCH   3   4
HETATM    4  P   UNK N   1      21.162  13.609   9.812  0.00  0.00     0.393 P 
HETATM    5  O   UNK N   1      19.917  13.082  10.574  0.00  0.00    -0.631 OA
BRANCH   4   6
HETATM    6  O   UNK N   1      21.327  12.649   8.371  0.00  0.00    -0.307 OA
HETATM    7  H   UNK N   1      20.919  11.917   7.883  0.00  0.00     0.222 HD
ENDBRANCH   4   6
BRANCH   4   8
HETATM    8  O   UNK N   1      21.708  11.999  10.169  0.00  0.00    -0.295 OA
BRANCH   8   9
HETATM    9  C   UNK N   1      22.860  12.170  10.946  0.00  0.00     0.199 C 
BRANCH   9  10
HETATM   10  C   UNK N   1      22.570  11.844  12.402  0.00  0.00     0.138 C 
BRANCH  10  11
HETATM   11  N   UNK N   1      23.687  12.248  13.239  0.00  0.00    -0.428 N 
HETATM   12  H   UNK N   1      24.023  13.210  13.269  0.00  0.00     0.149 HD
HETATM   13  H   UNK N   1      24.151  11.545  13.814  0.00  0.00     0.149 HD
ENDBRANCH  10  11
ENDBRANCH   9  10
ENDBRANCH   8   9
ENDBRANCH   4   8
ENDBRANCH   3   4
ENDBRANCH   2   3
ENDBRANCH   1   2
BRANCH   1  14
HETATM   14  O   UNK N   1      21.407  16.537   6.799  0.00  0.00    -0.312 OA
BRANCH  14  15
HETATM   15  C   UNK N   1      21.442  17.838   6.399  0.00  0.00     0.259 C 
HETATM   16  O   UNK N   1      20.994  18.697   7.142  0.00  0.00    -0.265 OA
BRANCH  15  17
HETATM   17  C   UNK N   1      22.050  18.267   5.094  0.00  0.00     0.111 C 
BRANCH  17  18
HETATM   18  C   UNK N   1      23.554  18.059   5.143  0.00  0.00     0.010 C 
BRANCH  18  19
HETATM   19  C   UNK N   1      24.112  17.706   3.777  0.00  0.00     0.000 C 
BRANCH  19  20
HETATM   20  C   UNK N   1      25.491  18.319   3.595  0.00  0.00     0.000 C 
BRANCH  20  21
HETATM   21  C   UNK N   1      25.400  19.835   3.499  0.00  0.00     0.000 C 
BRANCH  21  22
HETATM   22  C   UNK N   1      26.630  20.455   4.140  0.00  0.00     0.000 C 
BRANCH  22  23
HETATM   23  C   UNK N   1      26.378  20.855   5.588  0.00  0.00     0.000 C 
BRANCH  23  24
HETATM   24  C   UNK N   1      27.555  20.511   6.496  0.00  0.00     0.000 C 
BRANCH  24  25
HETATM   25  C   UNK N   1      27.845  19.014   6.474  0.00  0.00     0.000 C 
BRANCH  25  26
HETATM   26  C   UNK N   1      28.234  18.501   7.852  0.00  0.00     0.000 C 
BRANCH  26  27
HETATM   27  C   UNK N   1      29.559  17.760   7.803  0.00  0.00     0.000 C 
BRANCH  27  28
HETATM   28  C   UNK N   1      29.834  17.285   6.392  0.00  0.00     0.000 C 
BRANCH  28  29
HETATM   29  C   UNK N   1      31.323  17.099   6.184  0.00  0.00    -0.000 C 
BRANCH  29  30
HETATM   30  C   UNK N   1      31.567  16.622   4.770  0.00  0.00    -0.005 C 
HETATM   31  C   UNK N   1      32.598  17.509   4.107  0.00  0.00     0.005 C 
ENDBRANCH  29  30
ENDBRANCH  28  29
ENDBRANCH  27  28
ENDBRANCH  26  27
ENDBRANCH  25  26
ENDBRANCH  24  25
ENDBRANCH  23  24
ENDBRANCH  22  23
ENDBRANCH  21  22
ENDBRANCH  20  21
ENDBRANCH  19  20
ENDBRANCH  18  19
ENDBRANCH  17  18
ENDBRANCH  15  17
ENDBRANCH  14  15
ENDBRANCH   1  14
BRANCH   1  32
HETATM   32  C   UNK N   1      19.245  15.860   6.027  0.00  0.00     0.213 C 
BRANCH  32  33
HETATM   33  O   UNK N   1      19.241  14.707   5.267  0.00  0.00    -0.319 OA
BRANCH  33  34
HETATM   34  C   UNK N   1      19.297  14.722   3.908  0.00  0.00     0.258 C 
HETATM   35  O   UNK N   1      18.764  13.822   3.280  0.00  0.00    -0.265 OA
BRANCH  34  36
HETATM   36  C   UNK N   1      20.023  15.803   3.157  0.00  0.00     0.111 C 
BRANCH  36  37
HETATM   37  C   UNK N   1      20.342  15.337   1.745  0.00  0.00     0.010 C 
BRANCH  37  38
HETATM   38  C   UNK N   1      21.810  15.053   1.531  0.00  0.00     0.000 C 
BRANCH  38  39
HETATM   39  C   UNK N   1      22.100  13.566   1.440  0.00  0.00     0.000 C 
BRANCH  39  40
HETATM   40  C   UNK N   1      22.783  13.097   2.714  0.00  0.00     0.000 C 
BRANCH  40  41
HETATM   41  C   UNK N   1      23.453  14.248   3.457  0.00  0.00     0.000 C 
BRANCH  41  42
HETATM   42  C   UNK N   1      23.136  14.246   4.946  0.00  0.00     0.000 C 
BRANCH  42  43
HETATM   43  C   UNK N   1      24.378  13.875   5.738  0.00  0.00     0.000 C 
BRANCH  43  44
HETATM   44  C   UNK N   1      24.715  14.933   6.765  0.00  0.00     0.000 C 
BRANCH  44  45
HETATM   45  C   UNK N   1      26.010  15.629   6.397  0.00  0.00     0.000 C 
BRANCH  45  46
HETATM   46  C   UNK N   1      26.787  14.762   5.433  0.00  0.00     0.000 C 
BRANCH  46  47
HETATM   47  C   UNK N   1      27.499  15.653   4.441  0.00  0.00     0.000 C 
BRANCH  47  48
HETATM   48  C   UNK N   1      28.018  14.812   3.293  0.00  0.00    -0.000 C 
BRANCH  48  49
HETATM   49  C   UNK N   1      26.943  14.650   2.235  0.00  0.00    -0.005 C 
HETATM   50  C   UNK N   1      26.615  13.185   2.028  0.00  0.00     0.005 C 
ENDBRANCH  48  49
ENDBRANCH  47  48
ENDBRANCH  46  47
ENDBRANCH  45  46
ENDBRANCH  44  45
ENDBRANCH  43  44
ENDBRANCH  42  43
ENDBRANCH  41  42
ENDBRANCH  40  41
ENDBRANCH  39  40
ENDBRANCH  38  39
ENDBRANCH  37  38
ENDBRANCH  36  37
ENDBRANCH  34  36
ENDBRANCH  33  34
ENDBRANCH  32  33
ENDBRANCH   1  32
TORSDOF 41
ENDMDL
MODEL 4
REMARK VINA RESULT:      -5.5      1.781      2.414
REMARK WARNING: 32 MAX_TORS EXCEEDED!!!
REMARK  41 active torsions:
REMARK  status: ('A' for Active; 'I' for Inactive)
REMARK    1  A    between atoms: C_2  and  C_1 
REMARK    2  A    between atoms: O_4  and  C_1 
REMARK    3  A    between atoms: C_2  and  O_6 
REMARK    4  A    between atoms: C_3  and  C_2 
REMARK    5  A    between atoms: O_5  and  C_3 
REMARK    6  A    between atoms: P_7  and  O_4 
REMARK    7  A    between atoms: O_5  and  C_14 
REMARK    8  A    between atoms: C_31  and  O_6 
REMARK    9  A    between atoms: O_9  and  P_7 
REMARK   10  A    between atoms: O_10  and  P_7 
REMARK   11  A    between atoms: C_11  and  O_10 
REMARK   12  A    between atoms: C_12  and  C_11 
REMARK   13  A    between atoms: N_13  and  C_12 
REMARK   14  A    between atoms: C_14  and  C_16 
REMARK   15  A    between atoms: C_16  and  C_17 
REMARK   16  A    between atoms: C_17  and  C_18 
REMARK   17  A    between atoms: C_18  and  C_19 
REMARK   18  A    between atoms: C_19  and  C_20 
REMARK   19  A    between atoms: C_20  and  C_21 
REMARK   20  A    between atoms: C_21  and  C_22 
REMARK   21  A    between atoms: C_22  and  C_23 
REMARK   22  A    between atoms: C_23  and  C_24 
REMARK   23  A    between atoms: C_24  and  C_25 
REMARK   24  A    between atoms: C_25  and  C_26 
REMARK   25  A    between atoms: C_26  and  C_27 
REMARK   26  A    between atoms: C_27  and  C_28 
REMARK   27  A    between atoms: C_28  and  C_29 
REMARK   28  A    between atoms: C_31  and  C_33 
REMARK   29  A    between atoms: C_33  and  C_34 
REMARK   30  A    between atoms: C_34  and  C_35 
REMARK   31  A    between atoms: C_35  and  C_36 
REMARK   32  A    between atoms: C_36  and  C_37 
REMARK   33  A    between atoms: C_37  and  C_38 
REMARK   34  A    between atoms: C_38  and  C_39 
REMARK   35  A    between atoms: C_39  and  C_40 
REMARK   36  A    between atoms: C_40  and  C_41 
REMARK   37  A    between atoms: C_41  and  C_42 
REMARK   38  A    between atoms: C_42  and  C_43 
REMARK   39  A    between atoms: C_43  and  C_44 
REMARK   40  A    between atoms: C_44  and  C_45 
REMARK   41  A    between atoms: C_45  and  C_46 
ROOT
HETATM    1  C   UNK N   1      21.116  18.428   4.129  0.00  0.00     0.180 C 
ENDROOT
BRANCH   1   2
HETATM    2  C   UNK N   1      20.744  17.298   3.185  0.00  0.00     0.215 C 
BRANCH   2   3
HETATM    3  O   UNK N   1      21.835  16.455   2.955  0.00  0.00    -0.294 OA
BRANCH   3   4
HETATM    4  P   UNK N   1      21.124  14.979   2.387  0.00  0.00     0.393 P 
HETATM    5  O   UNK N   1      20.519  15.021   3.816  0.00  0.00    -0.631 OA
BRANCH   4   6
HETATM    6  O   UNK N   1      20.531  16.377   1.538  0.00  0.00    -0.307 OA
HETATM    7  H   UNK N   1      20.434  17.339   1.613  0.00  0.00     0.222 HD
ENDBRANCH   4   6
BRANCH   4   8
HETATM    8  O   UNK N   1      19.439  14.826   1.988  0.00  0.00    -0.295 OA
BRANCH   8   9
HETATM    9  C   UNK N   1      19.404  13.951   0.896  0.00  0.00     0.199 C 
BRANCH   9  10
HETATM   10  C   UNK N   1      18.175  14.221   0.040  0.00  0.00     0.138 C 
BRANCH  10  11
HETATM   11  N   UNK N   1      18.125  15.623  -0.336  0.00  0.00    -0.428 N 
HETATM   12  H   UNK N   1      18.408  15.948  -1.260  0.00  0.00     0.149 HD
HETATM   13  H   UNK N   1      17.795  16.305   0.347  0.00  0.00     0.149 HD
ENDBRANCH  10  11
ENDBRANCH   9  10
ENDBRANCH   8   9
ENDBRANCH   4   8
ENDBRANCH   3   4
ENDBRANCH   2   3
ENDBRANCH   1   2
BRANCH   1  14
HETATM   14  O   UNK N   1      21.810  17.919   5.217  0.00  0.00    -0.312 OA
BRANCH  14  15
HETATM   15  C   UNK N   1      21.315  17.752   6.474  0.00  0.00     0.259 C 
HETATM   16  O   UNK N   1      20.979  18.738   7.111  0.00  0.00    -0.265 OA
BRANCH  15  17
HETATM   17  C   UNK N   1      21.125  16.398   7.096  0.00  0.00     0.111 C 
BRANCH  17  18
HETATM   18  C   UNK N   1      20.154  16.505   8.258  0.00  0.00     0.010 C 
BRANCH  18  19
HETATM   19  C   UNK N   1      20.060  15.201   9.028  0.00  0.00     0.000 C 
BRANCH  19  20
HETATM   20  C   UNK N   1      21.446  14.619   9.253  0.00  0.00     0.000 C 
BRANCH  20  21
HETATM   21  C   UNK N   1      21.400  13.098   9.246  0.00  0.00     0.000 C 
BRANCH  21  22
HETATM   22  C   UNK N   1      22.116  12.578   8.012  0.00  0.00     0.000 C 
BRANCH  22  23
HETATM   23  C   UNK N   1      23.606  12.892   8.042  0.00  0.00     0.000 C 
BRANCH  23  24
HETATM   24  C   UNK N   1      24.143  13.279   6.668  0.00  0.00     0.000 C 
BRANCH  24  25
HETATM   25  C   UNK N   1      25.338  14.219   6.791  0.00  0.00     0.000 C 
BRANCH  25  26
HETATM   26  C   UNK N   1      24.984  15.631   6.349  0.00  0.00     0.000 C 
BRANCH  26  27
HETATM   27  C   UNK N   1      24.550  15.654   4.894  0.00  0.00     0.000 C 
BRANCH  27  28
HETATM   28  C   UNK N   1      25.504  16.506   4.083  0.00  0.00     0.000 C 
BRANCH  28  29
HETATM   29  C   UNK N   1      25.648  15.943   2.684  0.00  0.00    -0.000 C 
BRANCH  29  30
HETATM   30  C   UNK N   1      27.086  15.531   2.464  0.00  0.00    -0.005 C 
HETATM   31  C   UNK N   1      27.997  16.421   3.282  0.00  0.00     0.005 C 
ENDBRANCH  29  30
ENDBRANCH  28  29
ENDBRANCH  27  28
ENDBRANCH  26  27
ENDBRANCH  25  26
ENDBRANCH  24  25
ENDBRANCH  23  24
ENDBRANCH  22  23
ENDBRANCH  21  22
ENDBRANCH  20  21
ENDBRANCH  19  20
ENDBRANCH  18  19
ENDBRANCH  17  18
ENDBRANCH  15  17
ENDBRANCH  14  15
ENDBRANCH   1  14
BRANCH   1  32
HETATM   32  C   UNK N   1      21.938  19.498   3.423  0.00  0.00     0.213 C 
BRANCH  32  33
HETATM   33  O   UNK N   1      23.286  19.202   3.381  0.00  0.00    -0.319 OA
BRANCH  33  34
HETATM   34  C   UNK N   1      24.246  20.156   3.246  0.00  0.00     0.258 C 
HETATM   35  O   UNK N   1      24.214  20.900   2.280  0.00  0.00    -0.265 OA
BRANCH  34  36
HETATM   36  C   UNK N   1      25.362  20.303   4.242  0.00  0.00     0.111 C 
BRANCH  36  37
HETATM   37  C   UNK N   1      26.695  19.971   3.589  0.00  0.00     0.010 C 
BRANCH  37  38
HETATM   38  C   UNK N   1      27.857  20.023   4.551  0.00  0.00     0.000 C 
BRANCH  38  39
HETATM   39  C   UNK N   1      27.419  19.829   5.992  0.00  0.00     0.000 C 
BRANCH  39  40
HETATM   40  C   UNK N   1      27.577  18.369   6.384  0.00  0.00     0.000 C 
BRANCH  40  41
HETATM   41  C   UNK N   1      28.885  18.118   7.126  0.00  0.00     0.000 C 
BRANCH  41  42
HETATM   42  C   UNK N   1      28.838  18.596   8.572  0.00  0.00     0.000 C 
BRANCH  42  43
HETATM   43  C   UNK N   1      30.077  18.123   9.312  0.00  0.00     0.000 C 
BRANCH  43  44
HETATM   44  C   UNK N   1      31.239  17.914   8.367  0.00  0.00     0.000 C 
BRANCH  44  45
HETATM   45  C   UNK N   1      31.673  16.462   8.381  0.00  0.00     0.000 C 
BRANCH  45  46
HETATM   46  C   UNK N   1      32.503  16.177   7.150  0.00  0.00     0.000 C 
BRANCH  46  47
HETATM   47  C   UNK N   1      33.234  17.438   6.751  0.00  0.00     0.000 C 
BRANCH  47  48
HETATM   48  C   UNK N   1      33.236  17.562   5.242  0.00  0.00    -0.000 C 
BRANCH  48  49
HETATM   49  C   UNK N   1      31.819  17.469   4.707  0.00  0.00    -0.005 C 
HETATM   50  C   UNK N   1      31.815  16.906   3.300  0.00  0.00     0.005 C 
ENDBRANCH  48  49
ENDBRANCH  47  48
ENDBRANCH  46  47
ENDBRANCH  45  46
ENDBRANCH  44  45
ENDBRANCH  43  44
ENDBRANCH  42  43
ENDBRANCH  41  42
ENDBRANCH  40  41
ENDBRANCH  39  40
ENDBRANCH  38  39
ENDBRANCH  37  38
ENDBRANCH  36  37
ENDBRANCH  34  36
ENDBRANCH  33  34
ENDBRANCH  32  33
ENDBRANCH   1  32
TORSDOF 41
ENDMDL
MODEL 5
REMARK VINA RESULT:      -5.5      3.097      7.123
REMARK WARNING: 32 MAX_TORS EXCEEDED!!!
REMARK  41 active torsions:
REMARK  status: ('A' for Active; 'I' for Inactive)
REMARK    1  A    between atoms: C_2  and  C_1 
REMARK    2  A    between atoms: O_4  and  C_1 
REMARK    3  A    between atoms: C_2  and  O_6 
REMARK    4  A    between atoms: C_3  and  C_2 
REMARK    5  A    between atoms: O_5  and  C_3 
REMARK    6  A    between atoms: P_7  and  O_4 
REMARK    7  A    between atoms: O_5  and  C_14 
REMARK    8  A    between atoms: C_31  and  O_6 
REMARK    9  A    between atoms: O_9  and  P_7 
REMARK   10  A    between atoms: O_10  and  P_7 
REMARK   11  A    between atoms: C_11  and  O_10 
REMARK   12  A    between atoms: C_12  and  C_11 
REMARK   13  A    between atoms: N_13  and  C_12 
REMARK   14  A    between atoms: C_14  and  C_16 
REMARK   15  A    between atoms: C_16  and  C_17 
REMARK   16  A    between atoms: C_17  and  C_18 
REMARK   17  A    between atoms: C_18  and  C_19 
REMARK   18  A    between atoms: C_19  and  C_20 
REMARK   19  A    between atoms: C_20  and  C_21 
REMARK   20  A    between atoms: C_21  and  C_22 
REMARK   21  A    between atoms: C_22  and  C_23 
REMARK   22  A    between atoms: C_23  and  C_24 
REMARK   23  A    between atoms: C_24  and  C_25 
REMARK   24  A    between atoms: C_25  and  C_26 
REMARK   25  A    between atoms: C_26  and  C_27 
REMARK   26  A    between atoms: C_27  and  C_28 
REMARK   27  A    between atoms: C_28  and  C_29 
REMARK   28  A    between atoms: C_31  and  C_33 
REMARK   29  A    between atoms: C_33  and  C_34 
REMARK   30  A    between atoms: C_34  and  C_35 
REMARK   31  A    between atoms: C_35  and  C_36 
REMARK   32  A    between atoms: C_36  and  C_37 
REMARK   33  A    between atoms: C_37  and  C_38 
REMARK   34  A    between atoms: C_38  and  C_39 
REMARK   35  A    between atoms: C_39  and  C_40 
REMARK   36  A    between atoms: C_40  and  C_41 
REMARK   37  A    between atoms: C_41  and  C_42 
REMARK   38  A    between atoms: C_42  and  C_43 
REMARK   39  A    between atoms: C_43  and  C_44 
REMARK   40  A    between atoms: C_44  and  C_45 
REMARK   41  A    between atoms: C_45  and  C_46 
ROOT
HETATM    1  C   UNK N   1      21.130  19.100   3.884  0.00  0.00     0.180 C 
ENDROOT
BRANCH   1   2
HETATM    2  C   UNK N   1      21.379  18.374   5.195  0.00  0.00     0.215 C 
BRANCH   2   3
HETATM    3  O   UNK N   1      20.460  17.337   5.378  0.00  0.00    -0.294 OA
BRANCH   3   4
HETATM    4  P   UNK N   1      21.000  16.537   6.819  0.00  0.00     0.393 P 
HETATM    5  O   UNK N   1      21.026  18.007   7.318  0.00  0.00    -0.631 OA
BRANCH   4   6
HETATM    6  O   UNK N   1      19.349  16.158   6.423  0.00  0.00    -0.307 OA
HETATM    7  H   UNK N   1      18.619  15.563   6.655  0.00  0.00     0.222 HD
ENDBRANCH   4   6
BRANCH   4   8
HETATM    8  O   UNK N   1      20.016  16.372   8.243  0.00  0.00    -0.295 OA
BRANCH   8   9
HETATM    9  C   UNK N   1      19.653  17.680   8.585  0.00  0.00     0.199 C 
BRANCH   9  10
HETATM   10  C   UNK N   1      18.386  17.675   9.426  0.00  0.00     0.138 C 
BRANCH  10  11
HETATM   11  N   UNK N   1      17.224  17.455   8.581  0.00  0.00    -0.428 N 
HETATM   12  H   UNK N   1      16.382  16.993   8.923  0.00  0.00     0.149 HD
HETATM   13  H   UNK N   1      17.253  17.774   7.612  0.00  0.00     0.149 HD
ENDBRANCH  10  11
ENDBRANCH   9  10
ENDBRANCH   8   9
ENDBRANCH   4   8
ENDBRANCH   3   4
ENDBRANCH   2   3
ENDBRANCH   1   2
BRANCH   1  14
HETATM   14  O   UNK N   1      22.302  19.145   3.145  0.00  0.00    -0.312 OA
BRANCH  14  15
HETATM   15  C   UNK N   1      23.357  19.976   3.371  0.00  0.00     0.259 C 
HETATM   16  O   UNK N   1      23.314  21.117   2.937  0.00  0.00    -0.265 OA
BRANCH  15  17
HETATM   17  C   UNK N   1      24.558  19.559   4.170  0.00  0.00     0.111 C 
BRANCH  17  18
HETATM   18  C   UNK N   1      25.798  19.621   3.295  0.00  0.00     0.010 C 
BRANCH  18  19
HETATM   19  C   UNK N   1      27.045  19.895   4.114  0.00  0.00     0.000 C 
BRANCH  19  20
HETATM   20  C   UNK N   1      26.781  20.993   5.130  0.00  0.00     0.000 C 
BRANCH  20  21
HETATM   21  C   UNK N   1      27.607  20.774   6.389  0.00  0.00     0.000 C 
BRANCH  21  22
HETATM   22  C   UNK N   1      27.872  19.289   6.565  0.00  0.00     0.000 C 
BRANCH  22  23
HETATM   23  C   UNK N   1      28.176  18.932   8.015  0.00  0.00     0.000 C 
BRANCH  23  24
HETATM   24  C   UNK N   1      28.746  17.524   8.157  0.00  0.00     0.000 C 
BRANCH  24  25
HETATM   25  C   UNK N   1      30.271  17.546   8.142  0.00  0.00     0.000 C 
BRANCH  25  26
HETATM   26  C   UNK N   1      30.820  17.176   6.772  0.00  0.00     0.000 C 
BRANCH  26  27
HETATM   27  C   UNK N   1      32.052  16.296   6.899  0.00  0.00     0.000 C 
BRANCH  27  28
HETATM   28  C   UNK N   1      31.708  14.869   6.526  0.00  0.00     0.000 C 
BRANCH  28  29
HETATM   29  C   UNK N   1      31.919  14.651   5.042  0.00  0.00    -0.000 C 
BRANCH  29  30
HETATM   30  C   UNK N   1      33.128  15.443   4.596  0.00  0.00    -0.005 C 
HETATM   31  C   UNK N   1      34.270  14.496   4.297  0.00  0.00     0.005 C 
ENDBRANCH  29  30
ENDBRANCH  28  29
ENDBRANCH  27  28
ENDBRANCH  26  27
ENDBRANCH  25  26
ENDBRANCH  24  25
ENDBRANCH  23  24
ENDBRANCH  22  23
ENDBRANCH  21  22
ENDBRANCH  20  21
ENDBRANCH  19  20
ENDBRANCH  18  19
ENDBRANCH  17  18
ENDBRANCH  15  17
ENDBRANCH  14  15
ENDBRANCH   1  14
BRANCH   1  32
HETATM   32  C   UNK N   1      20.017  18.437   3.082  0.00  0.00     0.213 C 
BRANCH  32  33
HETATM   33  O   UNK N   1      20.358  18.225   1.761  0.00  0.00    -0.319 OA
BRANCH  33  34
HETATM   34  C   UNK N   1      20.475  16.982   1.221  0.00  0.00     0.258 C 
HETATM   35  O   UNK N   1      20.213  16.819   0.040  0.00  0.00    -0.265 OA
BRANCH  34  36
HETATM   36  C   UNK N   1      20.893  15.797   2.045  0.00  0.00     0.111 C 
BRANCH  36  37
HETATM   37  C   UNK N   1      21.149  14.598   1.146  0.00  0.00     0.010 C 
BRANCH  37  38
HETATM   38  C   UNK N   1      22.611  14.399   0.824  0.00  0.00     0.000 C 
BRANCH  38  39
HETATM   39  C   UNK N   1      23.213  13.230   1.584  0.00  0.00     0.000 C 
BRANCH  39  40
HETATM   40  C   UNK N   1      24.099  13.750   2.705  0.00  0.00     0.000 C 
BRANCH  40  41
HETATM   41  C   UNK N   1      25.068  14.820   2.214  0.00  0.00     0.000 C 
BRANCH  41  42
HETATM   42  C   UNK N   1      25.079  16.052   3.109  0.00  0.00     0.000 C 
BRANCH  42  43
HETATM   43  C   UNK N   1      23.970  15.951   4.142  0.00  0.00     0.000 C 
BRANCH  43  44
HETATM   44  C   UNK N   1      24.527  15.876   5.546  0.00  0.00     0.000 C 
BRANCH  44  45
HETATM   45  C   UNK N   1      25.989  16.272   5.552  0.00  0.00     0.000 C 
BRANCH  45  46
HETATM   46  C   UNK N   1      26.826  15.087   5.975  0.00  0.00     0.000 C 
BRANCH  46  47
HETATM   47  C   UNK N   1      28.211  15.232   5.386  0.00  0.00     0.000 C 
BRANCH  47  48
HETATM   48  C   UNK N   1      28.292  14.448   4.093  0.00  0.00    -0.000 C 
BRANCH  48  49
HETATM   49  C   UNK N   1      28.786  15.339   2.969  0.00  0.00    -0.005 C 
HETATM   50  C   UNK N   1      29.046  16.743   3.476  0.00  0.00     0.005 C 
ENDBRANCH  48  49
ENDBRANCH  47  48
ENDBRANCH  46  47
ENDBRANCH  45  46
ENDBRANCH  44  45
ENDBRANCH  43  44
ENDBRANCH  42  43
ENDBRANCH  41  42
ENDBRANCH  40  41
ENDBRANCH  39  40
ENDBRANCH  38  39
ENDBRANCH  37  38
ENDBRANCH  36  37
ENDBRANCH  34  36
ENDBRANCH  33  34
ENDBRANCH  32  33
ENDBRANCH   1  32
TORSDOF 41
ENDMDL
MODEL 6
REMARK VINA RESULT:      -5.4      3.381      8.747
REMARK WARNING: 32 MAX_TORS EXCEEDED!!!
REMARK  41 active torsions:
REMARK  status: ('A' for Active; 'I' for Inactive)
REMARK    1  A    between atoms: C_2  and  C_1 
REMARK    2  A    between atoms: O_4  and  C_1 
REMARK    3  A    between atoms: C_2  and  O_6 
REMARK    4  A    between atoms: C_3  and  C_2 
REMARK    5  A    between atoms: O_5  and  C_3 
REMARK    6  A    between atoms: P_7  and  O_4 
REMARK    7  A    between atoms: O_5  and  C_14 
REMARK    8  A    between atoms: C_31  and  O_6 
REMARK    9  A    between atoms: O_9  and  P_7 
REMARK   10  A    between atoms: O_10  and  P_7 
REMARK   11  A    between atoms: C_11  and  O_10 
REMARK   12  A    between atoms: C_12  and  C_11 
REMARK   13  A    between atoms: N_13  and  C_12 
REMARK   14  A    between atoms: C_14  and  C_16 
REMARK   15  A    between atoms: C_16  and  C_17 
REMARK   16  A    between atoms: C_17  and  C_18 
REMARK   17  A    between atoms: C_18  and  C_19 
REMARK   18  A    between atoms: C_19  and  C_20 
REMARK   19  A    between atoms: C_20  and  C_21 
REMARK   20  A    between atoms: C_21  and  C_22 
REMARK   21  A    between atoms: C_22  and  C_23 
REMARK   22  A    between atoms: C_23  and  C_24 
REMARK   23  A    between atoms: C_24  and  C_25 
REMARK   24  A    between atoms: C_25  and  C_26 
REMARK   25  A    between atoms: C_26  and  C_27 
REMARK   26  A    between atoms: C_27  and  C_28 
REMARK   27  A    between atoms: C_28  and  C_29 
REMARK   28  A    between atoms: C_31  and  C_33 
REMARK   29  A    between atoms: C_33  and  C_34 
REMARK   30  A    between atoms: C_34  and  C_35 
REMARK   31  A    between atoms: C_35  and  C_36 
REMARK   32  A    between atoms: C_36  and  C_37 
REMARK   33  A    between atoms: C_37  and  C_38 
REMARK   34  A    between atoms: C_38  and  C_39 
REMARK   35  A    between atoms: C_39  and  C_40 
REMARK   36  A    between atoms: C_40  and  C_41 
REMARK   37  A    between atoms: C_41  and  C_42 
REMARK   38  A    between atoms: C_42  and  C_43 
REMARK   39  A    between atoms: C_43  and  C_44 
REMARK   40  A    between atoms: C_44  and  C_45 
REMARK   41  A    between atoms: C_45  and  C_46 
ROOT
HETATM    1  C   UNK N   1      19.866  16.435   6.572  0.00  0.00     0.180 C 
ENDROOT
BRANCH   1   2
HETATM    2  C   UNK N   1      19.729  15.889   7.983  0.00  0.00     0.215 C 
BRANCH   2   3
HETATM    3  O   UNK N   1      19.847  14.496   7.996  0.00  0.00    -0.294 OA
BRANCH   3   4
HETATM    4  P   UNK N   1      20.885  14.169   9.347  0.00  0.00     0.393 P 
HETATM    5  O   UNK N   1      19.506  13.975  10.032  0.00  0.00    -0.631 OA
BRANCH   4   6
HETATM    6  O   UNK N   1      21.013  12.964   8.098  0.00  0.00    -0.307 OA
HETATM    7  H   UNK N   1      21.382  12.087   7.909  0.00  0.00     0.222 HD
ENDBRANCH   4   6
BRANCH   4   8
HETATM    8  O   UNK N   1      21.116  12.578  10.007  0.00  0.00    -0.295 OA
BRANCH   8   9
HETATM    9  C   UNK N   1      22.450  12.552  10.431  0.00  0.00     0.199 C 
BRANCH   9  10
HETATM   10  C   UNK N   1      22.575  11.788  11.741  0.00  0.00     0.138 C 
BRANCH  10  11
HETATM   11  N   UNK N   1      23.732  12.255  12.485  0.00  0.00    -0.428 N 
HETATM   12  H   UNK N   1      24.200  11.676  13.181  0.00  0.00     0.149 HD
HETATM   13  H   UNK N   1      24.087  13.194  12.304  0.00  0.00     0.149 HD
ENDBRANCH  10  11
ENDBRANCH   9  10
ENDBRANCH   8   9
ENDBRANCH   4   8
ENDBRANCH   3   4
ENDBRANCH   2   3
ENDBRANCH   1   2
BRANCH   1  14
HETATM   14  O   UNK N   1      21.193  16.366   6.172  0.00  0.00    -0.312 OA
BRANCH  14  15
HETATM   15  C   UNK N   1      22.040  17.422   6.030  0.00  0.00     0.259 C 
HETATM   16  O   UNK N   1      21.736  18.495   6.527  0.00  0.00    -0.265 OA
BRANCH  15  17
HETATM   17  C   UNK N   1      23.359  17.311   5.321  0.00  0.00     0.111 C 
BRANCH  17  18
HETATM   18  C   UNK N   1      23.362  18.223   4.106  0.00  0.00     0.010 C 
BRANCH  18  19
HETATM   19  C   UNK N   1      24.386  19.334   4.246  0.00  0.00     0.000 C 
BRANCH  19  20
HETATM   20  C   UNK N   1      25.532  19.122   3.271  0.00  0.00     0.000 C 
BRANCH  20  21
HETATM   21  C   UNK N   1      26.664  20.100   3.549  0.00  0.00     0.000 C 
BRANCH  21  22
HETATM   22  C   UNK N   1      26.642  20.493   5.016  0.00  0.00     0.000 C 
BRANCH  22  23
HETATM   23  C   UNK N   1      27.684  19.733   5.826  0.00  0.00     0.000 C 
BRANCH  23  24
HETATM   24  C   UNK N   1      28.476  18.749   4.971  0.00  0.00     0.000 C 
BRANCH  24  25
HETATM   25  C   UNK N   1      28.415  17.341   5.556  0.00  0.00     0.000 C 
BRANCH  25  26
HETATM   26  C   UNK N   1      27.029  17.021   6.094  0.00  0.00     0.000 C 
BRANCH  26  27
HETATM   27  C   UNK N   1      26.790  15.521   6.126  0.00  0.00     0.000 C 
BRANCH  27  28
HETATM   28  C   UNK N   1      27.101  14.919   4.771  0.00  0.00     0.000 C 
BRANCH  28  29
HETATM   29  C   UNK N   1      25.965  15.187   3.807  0.00  0.00    -0.000 C 
BRANCH  29  30
HETATM   30  C   UNK N   1      26.532  15.731   2.516  0.00  0.00    -0.005 C 
HETATM   31  C   UNK N   1      27.975  15.297   2.375  0.00  0.00     0.005 C 
ENDBRANCH  29  30
ENDBRANCH  28  29
ENDBRANCH  27  28
ENDBRANCH  26  27
ENDBRANCH  25  26
ENDBRANCH  24  25
ENDBRANCH  23  24
ENDBRANCH  22  23
ENDBRANCH  21  22
ENDBRANCH  20  21
ENDBRANCH  19  20
ENDBRANCH  18  19
ENDBRANCH  17  18
ENDBRANCH  15  17
ENDBRANCH  14  15
ENDBRANCH   1  14
BRANCH   1  32
HETATM   32  C   UNK N   1      18.972  15.685   5.593  0.00  0.00     0.213 C 
BRANCH  32  33
HETATM   33  O   UNK N   1      19.634  14.673   4.926  0.00  0.00    -0.319 OA
BRANCH  33  34
HETATM   34  C   UNK N   1      18.984  13.659   4.295  0.00  0.00     0.258 C 
HETATM   35  O   UNK N   1      17.836  13.396   4.616  0.00  0.00    -0.265 OA
BRANCH  34  36
HETATM   36  C   UNK N   1      19.649  12.833   3.229  0.00  0.00     0.111 C 
BRANCH  36  37
HETATM   37  C   UNK N   1      20.873  12.133   3.796  0.00  0.00     0.010 C 
BRANCH  37  38
HETATM   38  C   UNK N   1      21.493  11.148   2.833  0.00  0.00     0.000 C 
BRANCH  38  39
HETATM   39  C   UNK N   1      23.000  11.058   2.993  0.00  0.00     0.000 C 
BRANCH  39  40
HETATM   40  C   UNK N   1      23.651  12.307   2.420  0.00  0.00     0.000 C 
BRANCH  40  41
HETATM   41  C   UNK N   1      23.233  12.553   0.974  0.00  0.00     0.000 C 
BRANCH  41  42
HETATM   42  C   UNK N   1      22.758  13.980   0.738  0.00  0.00     0.000 C 
BRANCH  42  43
HETATM   43  C   UNK N   1      22.925  14.797   2.009  0.00  0.00     0.000 C 
BRANCH  43  44
HETATM   44  C   UNK N   1      21.675  15.587   2.325  0.00  0.00     0.000 C 
BRANCH  44  45
HETATM   45  C   UNK N   1      20.850  15.791   1.071  0.00  0.00     0.000 C 
BRANCH  45  46
HETATM   46  C   UNK N   1      20.069  17.079   1.190  0.00  0.00     0.000 C 
BRANCH  46  47
HETATM   47  C   UNK N   1      19.848  17.383   2.654  0.00  0.00     0.000 C 
BRANCH  47  48
HETATM   48  C   UNK N   1      19.825  18.883   2.859  0.00  0.00    -0.000 C 
BRANCH  48  49
HETATM   49  C   UNK N   1      20.703  19.567   1.828  0.00  0.00    -0.005 C 
HETATM   50  C   UNK N   1      21.327  20.822   2.405  0.00  0.00     0.005 C 
ENDBRANCH  48  49
ENDBRANCH  47  48
ENDBRANCH  46  47
ENDBRANCH  45  46
ENDBRANCH  44  45
ENDBRANCH  43  44
ENDBRANCH  42  43
ENDBRANCH  41  42
ENDBRANCH  40  41
ENDBRANCH  39  40
ENDBRANCH  38  39
ENDBRANCH  37  38
ENDBRANCH  36  37
ENDBRANCH  34  36
ENDBRANCH  33  34
ENDBRANCH  32  33
ENDBRANCH   1  32
TORSDOF 41
ENDMDL
MODEL 7
REMARK VINA RESULT:      -5.4      3.322      7.662
REMARK WARNING: 32 MAX_TORS EXCEEDED!!!
REMARK  41 active torsions:
REMARK  status: ('A' for Active; 'I' for Inactive)
REMARK    1  A    between atoms: C_2  and  C_1 
REMARK    2  A    between atoms: O_4  and  C_1 
REMARK    3  A    between atoms: C_2  and  O_6 
REMARK    4  A    between atoms: C_3  and  C_2 
REMARK    5  A    between atoms: O_5  and  C_3 
REMARK    6  A    between atoms: P_7  and  O_4 
REMARK    7  A    between atoms: O_5  and  C_14 
REMARK    8  A    between atoms: C_31  and  O_6 
REMARK    9  A    between atoms: O_9  and  P_7 
REMARK   10  A    between atoms: O_10  and  P_7 
REMARK   11  A    between atoms: C_11  and  O_10 
REMARK   12  A    between atoms: C_12  and  C_11 
REMARK   13  A    between atoms: N_13  and  C_12 
REMARK   14  A    between atoms: C_14  and  C_16 
REMARK   15  A    between atoms: C_16  and  C_17 
REMARK   16  A    between atoms: C_17  and  C_18 
REMARK   17  A    between atoms: C_18  and  C_19 
REMARK   18  A    between atoms: C_19  and  C_20 
REMARK   19  A    between atoms: C_20  and  C_21 
REMARK   20  A    between atoms: C_21  and  C_22 
REMARK   21  A    between atoms: C_22  and  C_23 
REMARK   22  A    between atoms: C_23  and  C_24 
REMARK   23  A    between atoms: C_24  and  C_25 
REMARK   24  A    between atoms: C_25  and  C_26 
REMARK   25  A    between atoms: C_26  and  C_27 
REMARK   26  A    between atoms: C_27  and  C_28 
REMARK   27  A    between atoms: C_28  and  C_29 
REMARK   28  A    between atoms: C_31  and  C_33 
REMARK   29  A    between atoms: C_33  and  C_34 
REMARK   30  A    between atoms: C_34  and  C_35 
REMARK   31  A    between atoms: C_35  and  C_36 
REMARK   32  A    between atoms: C_36  and  C_37 
REMARK   33  A    between atoms: C_37  and  C_38 
REMARK   34  A    between atoms: C_38  and  C_39 
REMARK   35  A    between atoms: C_39  and  C_40 
REMARK   36  A    between atoms: C_40  and  C_41 
REMARK   37  A    between atoms: C_41  and  C_42 
REMARK   38  A    between atoms: C_42  and  C_43 
REMARK   39  A    between atoms: C_43  and  C_44 
REMARK   40  A    between atoms: C_44  and  C_45 
REMARK   41  A    between atoms: C_45  and  C_46 
ROOT
HETATM    1  C   UNK N   1      23.791  18.599   4.367  0.00  0.00     0.180 C 
ENDROOT
BRANCH   1   2
HETATM    2  C   UNK N   1      24.984  17.822   3.837  0.00  0.00     0.215 C 
BRANCH   2   3
HETATM    3  O   UNK N   1      26.033  18.681   3.498  0.00  0.00    -0.294 OA
BRANCH   3   4
HETATM    4  P   UNK N   1      26.397  19.515   4.975  0.00  0.00     0.393 P 
HETATM    5  O   UNK N   1      27.545  18.471   4.982  0.00  0.00    -0.631 OA
BRANCH   4   6
HETATM    6  O   UNK N   1      26.620  20.516   3.570  0.00  0.00    -0.307 OA
HETATM    7  H   UNK N   1      26.729  20.477   2.606  0.00  0.00     0.222 HD
ENDBRANCH   4   6
BRANCH   4   8
HETATM    8  O   UNK N   1      27.754  20.586   5.155  0.00  0.00    -0.295 OA
BRANCH   8   9
HETATM    9  C   UNK N   1      27.329  21.560   6.067  0.00  0.00     0.199 C 
BRANCH   9  10
HETATM   10  C   UNK N   1      26.324  20.968   7.044  0.00  0.00     0.138 C 
BRANCH  10  11
HETATM   11  N   UNK N   1      27.013  20.194   8.063  0.00  0.00    -0.428 N 
HETATM   12  H   UNK N   1      26.544  19.469   8.605  0.00  0.00     0.149 HD
HETATM   13  H   UNK N   1      27.999  20.383   8.242  0.00  0.00     0.149 HD
ENDBRANCH  10  11
ENDBRANCH   9  10
ENDBRANCH   8   9
ENDBRANCH   4   8
ENDBRANCH   3   4
ENDBRANCH   2   3
ENDBRANCH   1   2
BRANCH   1  14
HETATM   14  O   UNK N   1      22.987  18.999   3.309  0.00  0.00    -0.312 OA
BRANCH  14  15
HETATM   15  C   UNK N   1      22.702  20.286   2.965  0.00  0.00     0.259 C 
HETATM   16  O   UNK N   1      23.596  21.117   2.997  0.00  0.00    -0.265 OA
BRANCH  15  17
HETATM   17  C   UNK N   1      21.340  20.716   2.504  0.00  0.00     0.111 C 
BRANCH  17  18
HETATM   18  C   UNK N   1      20.280  20.067   3.376  0.00  0.00     0.010 C 
BRANCH  18  19
HETATM   19  C   UNK N   1      19.320  19.226   2.555  0.00  0.00     0.000 C 
BRANCH  19  20
HETATM   20  C   UNK N   1      19.989  17.932   2.121  0.00  0.00     0.000 C 
BRANCH  20  21
HETATM   21  C   UNK N   1      19.993  16.920   3.257  0.00  0.00     0.000 C 
BRANCH  21  22
HETATM   22  C   UNK N   1      21.006  15.828   2.956  0.00  0.00     0.000 C 
BRANCH  22  23
HETATM   23  C   UNK N   1      21.139  15.571   1.460  0.00  0.00     0.000 C 
BRANCH  23  24
HETATM   24  C   UNK N   1      22.087  14.416   1.155  0.00  0.00     0.000 C 
BRANCH  24  25
HETATM   25  C   UNK N   1      23.463  14.659   1.765  0.00  0.00     0.000 C 
BRANCH  25  26
HETATM   26  C   UNK N   1      24.506  13.719   1.181  0.00  0.00     0.000 C 
BRANCH  26  27
HETATM   27  C   UNK N   1      25.815  13.814   1.947  0.00  0.00     0.000 C 
BRANCH  27  28
HETATM   28  C   UNK N   1      26.382  15.213   1.830  0.00  0.00     0.000 C 
BRANCH  28  29
HETATM   29  C   UNK N   1      27.630  15.343   2.678  0.00  0.00    -0.000 C 
BRANCH  29  30
HETATM   30  C   UNK N   1      27.562  14.344   3.811  0.00  0.00    -0.005 C 
HETATM   31  C   UNK N   1      28.020  15.002   5.094  0.00  0.00     0.005 C 
ENDBRANCH  29  30
ENDBRANCH  28  29
ENDBRANCH  27  28
ENDBRANCH  26  27
ENDBRANCH  25  26
ENDBRANCH  24  25
ENDBRANCH  23  24
ENDBRANCH  22  23
ENDBRANCH  21  22
ENDBRANCH  20  21
ENDBRANCH  19  20
ENDBRANCH  18  19
ENDBRANCH  17  18
ENDBRANCH  15  17
ENDBRANCH  14  15
ENDBRANCH   1  14
BRANCH   1  32
HETATM   32  C   UNK N   1      22.988  17.777   5.367  0.00  0.00     0.213 C 
BRANCH  32  33
HETATM   33  O   UNK N   1      21.812  18.392   5.750  0.00  0.00    -0.319 OA
BRANCH  33  34
HETATM   34  C   UNK N   1      21.098  18.001   6.839  0.00  0.00     0.258 C 
HETATM   35  O   UNK N   1      20.665  18.848   7.603  0.00  0.00    -0.265 OA
BRANCH  34  36
HETATM   36  C   UNK N   1      20.848  16.550   7.144  0.00  0.00     0.111 C 
BRANCH  36  37
HETATM   37  C   UNK N   1      20.633  16.358   8.636  0.00  0.00     0.010 C 
BRANCH  37  38
HETATM   38  C   UNK N   1      20.233  14.948   9.002  0.00  0.00     0.000 C 
BRANCH  38  39
HETATM   39  C   UNK N   1      21.417  14.116   9.462  0.00  0.00     0.000 C 
BRANCH  39  40
HETATM   40  C   UNK N   1      21.441  12.797   8.707  0.00  0.00     0.000 C 
BRANCH  40  41
HETATM   41  C   UNK N   1      20.950  12.954   7.272  0.00  0.00     0.000 C 
BRANCH  41  42
HETATM   42  C   UNK N   1      21.083  11.669   6.465  0.00  0.00     0.000 C 
BRANCH  42  43
HETATM   43  C   UNK N   1      21.015  11.983   4.980  0.00  0.00     0.000 C 
BRANCH  43  44
HETATM   44  C   UNK N   1      22.279  12.662   4.501  0.00  0.00     0.000 C 
BRANCH  44  45
HETATM   45  C   UNK N   1      23.496  11.860   4.914  0.00  0.00     0.000 C 
BRANCH  45  46
HETATM   46  C   UNK N   1      24.640  12.802   5.209  0.00  0.00     0.000 C 
BRANCH  46  47
HETATM   47  C   UNK N   1      24.088  14.198   5.391  0.00  0.00     0.000 C 
BRANCH  47  48
HETATM   48  C   UNK N   1      24.126  14.565   6.860  0.00  0.00    -0.000 C 
BRANCH  48  49
HETATM   49  C   UNK N   1      25.360  13.974   7.517  0.00  0.00    -0.005 C 
HETATM   50  C   UNK N   1      25.019  13.408   8.880  0.00  0.00     0.005 C 
ENDBRANCH  48  49
ENDBRANCH  47  48
ENDBRANCH  46  47
ENDBRANCH  45  46
ENDBRANCH  44  45
ENDBRANCH  43  44
ENDBRANCH  42  43
ENDBRANCH  41  42
ENDBRANCH  40  41
ENDBRANCH  39  40
ENDBRANCH  38  39
ENDBRANCH  37  38
ENDBRANCH  36  37
ENDBRANCH  34  36
ENDBRANCH  33  34
ENDBRANCH  32  33
ENDBRANCH   1  32
TORSDOF 41
ENDMDL
MODEL 8
REMARK VINA RESULT:      -5.4      2.595      6.566
REMARK WARNING: 32 MAX_TORS EXCEEDED!!!
REMARK  41 active torsions:
REMARK  status: ('A' for Active; 'I' for Inactive)
REMARK    1  A    between atoms: C_2  and  C_1 
REMARK    2  A    between atoms: O_4  and  C_1 
REMARK    3  A    between atoms: C_2  and  O_6 
REMARK    4  A    between atoms: C_3  and  C_2 
REMARK    5  A    between atoms: O_5  and  C_3 
REMARK    6  A    between atoms: P_7  and  O_4 
REMARK    7  A    between atoms: O_5  and  C_14 
REMARK    8  A    between atoms: C_31  and  O_6 
REMARK    9  A    between atoms: O_9  and  P_7 
REMARK   10  A    between atoms: O_10  and  P_7 
REMARK   11  A    between atoms: C_11  and  O_10 
REMARK   12  A    between atoms: C_12  and  C_11 
REMARK   13  A    between atoms: N_13  and  C_12 
REMARK   14  A    between atoms: C_14  and  C_16 
REMARK   15  A    between atoms: C_16  and  C_17 
REMARK   16  A    between atoms: C_17  and  C_18 
REMARK   17  A    between atoms: C_18  and  C_19 
REMARK   18  A    between atoms: C_19  and  C_20 
REMARK   19  A    between atoms: C_20  and  C_21 
REMARK   20  A    between atoms: C_21  and  C_22 
REMARK   21  A    between atoms: C_22  and  C_23 
REMARK   22  A    between atoms: C_23  and  C_24 
REMARK   23  A    between atoms: C_24  and  C_25 
REMARK   24  A    between atoms: C_25  and  C_26 
REMARK   25  A    between atoms: C_26  and  C_27 
REMARK   26  A    between atoms: C_27  and  C_28 
REMARK   27  A    between atoms: C_28  and  C_29 
REMARK   28  A    between atoms: C_31  and  C_33 
REMARK   29  A    between atoms: C_33  and  C_34 
REMARK   30  A    between atoms: C_34  and  C_35 
REMARK   31  A    between atoms: C_35  and  C_36 
REMARK   32  A    between atoms: C_36  and  C_37 
REMARK   33  A    between atoms: C_37  and  C_38 
REMARK   34  A    between atoms: C_38  and  C_39 
REMARK   35  A    between atoms: C_39  and  C_40 
REMARK   36  A    between atoms: C_40  and  C_41 
REMARK   37  A    between atoms: C_41  and  C_42 
REMARK   38  A    between atoms: C_42  and  C_43 
REMARK   39  A    between atoms: C_43  and  C_44 
REMARK   40  A    between atoms: C_44  and  C_45 
REMARK   41  A    between atoms: C_45  and  C_46 
ROOT
HETATM    1  C   UNK N   1      20.804  16.373   7.324  0.00  0.00     0.180 C 
ENDROOT
BRANCH   1   2
HETATM    2  C   UNK N   1      19.683  15.968   6.382  0.00  0.00     0.215 C 
BRANCH   2   3
HETATM    3  O   UNK N   1      19.522  14.580   6.359  0.00  0.00    -0.294 OA
BRANCH   3   4
HETATM    4  P   UNK N   1      19.621  14.165   4.678  0.00  0.00     0.393 P 
HETATM    5  O   UNK N   1      19.794  12.753   5.300  0.00  0.00    -0.631 OA
BRANCH   4   6
HETATM    6  O   UNK N   1      18.043  14.738   5.133  0.00  0.00    -0.307 OA
HETATM    7  H   UNK N   1      17.572  15.521   5.457  0.00  0.00     0.222 HD
ENDBRANCH   4   6
BRANCH   4   8
HETATM    8  O   UNK N   1      18.360  13.324   3.828  0.00  0.00    -0.295 OA
BRANCH   8   9
HETATM    9  C   UNK N   1      18.956  12.881   2.642  0.00  0.00     0.199 C 
BRANCH   9  10
HETATM   10  C   UNK N   1      19.444  14.064   1.820  0.00  0.00     0.138 C 
BRANCH  10  11
HETATM   11  N   UNK N   1      18.488  14.376   0.772  0.00  0.00    -0.428 N 
HETATM   12  H   UNK N   1      18.118  13.664   0.144  0.00  0.00     0.149 HD
HETATM   13  H   UNK N   1      18.175  15.341   0.662  0.00  0.00     0.149 HD
ENDBRANCH  10  11
ENDBRANCH   9  10
ENDBRANCH   8   9
ENDBRANCH   4   8
ENDBRANCH   3   4
ENDBRANCH   2   3
ENDBRANCH   1   2
BRANCH   1  14
HETATM   14  O   UNK N   1      21.129  17.705   7.119  0.00  0.00    -0.312 OA
BRANCH  14  15
HETATM   15  C   UNK N   1      21.654  18.233   5.978  0.00  0.00     0.259 C 
HETATM   16  O   UNK N   1      21.207  19.288   5.557  0.00  0.00    -0.265 OA
BRANCH  15  17
HETATM   17  C   UNK N   1      22.792  17.591   5.240  0.00  0.00     0.111 C 
BRANCH  17  18
HETATM   18  C   UNK N   1      22.464  17.527   3.758  0.00  0.00     0.010 C 
BRANCH  18  19
HETATM   19  C   UNK N   1      22.669  16.130   3.202  0.00  0.00     0.000 C 
BRANCH  19  20
HETATM   20  C   UNK N   1      23.350  15.245   4.233  0.00  0.00     0.000 C 
BRANCH  20  21
HETATM   21  C   UNK N   1      24.641  14.663   3.676  0.00  0.00     0.000 C 
BRANCH  21  22
HETATM   22  C   UNK N   1      24.676  14.862   2.171  0.00  0.00     0.000 C 
BRANCH  22  23
HETATM   23  C   UNK N   1      25.936  15.593   1.722  0.00  0.00     0.000 C 
BRANCH  23  24
HETATM   24  C   UNK N   1      26.885  15.875   2.882  0.00  0.00     0.000 C 
BRANCH  24  25
HETATM   25  C   UNK N   1      28.309  15.446   2.543  0.00  0.00     0.000 C 
BRANCH  25  26
HETATM   26  C   UNK N   1      28.910  14.587   3.644  0.00  0.00     0.000 C 
BRANCH  26  27
HETATM   27  C   UNK N   1      29.993  15.343   4.394  0.00  0.00     0.000 C 
BRANCH  27  28
HETATM   28  C   UNK N   1      30.505  16.489   3.548  0.00  0.00     0.000 C 
BRANCH  28  29
HETATM   29  C   UNK N   1      31.065  17.583   4.433  0.00  0.00    -0.000 C 
BRANCH  29  30
HETATM   30  C   UNK N   1      32.555  17.690   4.200  0.00  0.00    -0.005 C 
HETATM   31  C   UNK N   1      33.294  17.041   5.350  0.00  0.00     0.005 C 
ENDBRANCH  29  30
ENDBRANCH  28  29
ENDBRANCH  27  28
ENDBRANCH  26  27
ENDBRANCH  25  26
ENDBRANCH  24  25
ENDBRANCH  23  24
ENDBRANCH  22  23
ENDBRANCH  21  22
ENDBRANCH  20  21
ENDBRANCH  19  20
ENDBRANCH  18  19
ENDBRANCH  17  18
ENDBRANCH  15  17
ENDBRANCH  14  15
ENDBRANCH   1  14
BRANCH   1  32
HETATM   32  C   UNK N   1      20.423  16.133   8.780  0.00  0.00     0.213 C 
BRANCH  32  33
HETATM   33  O   UNK N   1      21.220  15.189   9.396  0.00  0.00    -0.319 OA
BRANCH  33  34
HETATM   34  C   UNK N   1      20.747  13.984   9.812  0.00  0.00     0.258 C 
HETATM   35  O   UNK N   1      19.541  13.800   9.853  0.00  0.00    -0.265 OA
BRANCH  34  36
HETATM   36  C   UNK N   1      21.667  12.879  10.250  0.00  0.00     0.111 C 
BRANCH  36  37
HETATM   37  C   UNK N   1      22.290  12.205   9.038  0.00  0.00     0.010 C 
BRANCH  37  38
HETATM   38  C   UNK N   1      23.726  12.610   8.806  0.00  0.00     0.000 C 
BRANCH  38  39
HETATM   39  C   UNK N   1      23.859  13.655   7.712  0.00  0.00     0.000 C 
BRANCH  39  40
HETATM   40  C   UNK N   1      25.329  13.923   7.434  0.00  0.00     0.000 C 
BRANCH  40  41
HETATM   41  C   UNK N   1      25.565  15.348   6.946  0.00  0.00     0.000 C 
BRANCH  41  42
HETATM   42  C   UNK N   1      27.030  15.624   6.636  0.00  0.00     0.000 C 
BRANCH  42  43
HETATM   43  C   UNK N   1      27.206  17.077   6.227  0.00  0.00     0.000 C 
BRANCH  43  44
HETATM   44  C   UNK N   1      28.339  17.731   6.986  0.00  0.00     0.000 C 
BRANCH  44  45
HETATM   45  C   UNK N   1      28.075  19.214   7.150  0.00  0.00     0.000 C 
BRANCH  45  46
HETATM   46  C   UNK N   1      27.084  19.664   6.102  0.00  0.00     0.000 C 
BRANCH  46  47
HETATM   47  C   UNK N   1      27.838  20.318   4.967  0.00  0.00     0.000 C 
BRANCH  47  48
HETATM   48  C   UNK N   1      27.254  19.861   3.646  0.00  0.00    -0.000 C 
BRANCH  48  49
HETATM   49  C   UNK N   1      25.785  19.522   3.812  0.00  0.00    -0.005 C 
HETATM   50  C   UNK N   1      24.938  20.335   2.854  0.00  0.00     0.005 C 
ENDBRANCH  48  49
ENDBRANCH  47  48
ENDBRANCH  46  47
ENDBRANCH  45  46
ENDBRANCH  44  45
ENDBRANCH  43  44
ENDBRANCH  42  43
ENDBRANCH  41  42
ENDBRANCH  40  41
ENDBRANCH  39  40
ENDBRANCH  38  39
ENDBRANCH  37  38
ENDBRANCH  36  37
ENDBRANCH  34  36
ENDBRANCH  33  34
ENDBRANCH  32  33
ENDBRANCH   1  32
TORSDOF 41
ENDMDL
MODEL 9
REMARK VINA RESULT:      -5.4      6.551     11.187
REMARK WARNING: 32 MAX_TORS EXCEEDED!!!
REMARK  41 active torsions:
REMARK  status: ('A' for Active; 'I' for Inactive)
REMARK    1  A    between atoms: C_2  and  C_1 
REMARK    2  A    between atoms: O_4  and  C_1 
REMARK    3  A    between atoms: C_2  and  O_6 
REMARK    4  A    between atoms: C_3  and  C_2 
REMARK    5  A    between atoms: O_5  and  C_3 
REMARK    6  A    between atoms: P_7  and  O_4 
REMARK    7  A    between atoms: O_5  and  C_14 
REMARK    8  A    between atoms: C_31  and  O_6 
REMARK    9  A    between atoms: O_9  and  P_7 
REMARK   10  A    between atoms: O_10  and  P_7 
REMARK   11  A    between atoms: C_11  and  O_10 
REMARK   12  A    between atoms: C_12  and  C_11 
REMARK   13  A    between atoms: N_13  and  C_12 
REMARK   14  A    between atoms: C_14  and  C_16 
REMARK   15  A    between atoms: C_16  and  C_17 
REMARK   16  A    between atoms: C_17  and  C_18 
REMARK   17  A    between atoms: C_18  and  C_19 
REMARK   18  A    between atoms: C_19  and  C_20 
REMARK   19  A    between atoms: C_20  and  C_21 
REMARK   20  A    between atoms: C_21  and  C_22 
REMARK   21  A    between atoms: C_22  and  C_23 
REMARK   22  A    between atoms: C_23  and  C_24 
REMARK   23  A    between atoms: C_24  and  C_25 
REMARK   24  A    between atoms: C_25  and  C_26 
REMARK   25  A    between atoms: C_26  and  C_27 
REMARK   26  A    between atoms: C_27  and  C_28 
REMARK   27  A    between atoms: C_28  and  C_29 
REMARK   28  A    between atoms: C_31  and  C_33 
REMARK   29  A    between atoms: C_33  and  C_34 
REMARK   30  A    between atoms: C_34  and  C_35 
REMARK   31  A    between atoms: C_35  and  C_36 
REMARK   32  A    between atoms: C_36  and  C_37 
REMARK   33  A    between atoms: C_37  and  C_38 
REMARK   34  A    between atoms: C_38  and  C_39 
REMARK   35  A    between atoms: C_39  and  C_40 
REMARK   36  A    between atoms: C_40  and  C_41 
REMARK   37  A    between atoms: C_41  and  C_42 
REMARK   38  A    between atoms: C_42  and  C_43 
REMARK   39  A    between atoms: C_43  and  C_44 
REMARK   40  A    between atoms: C_44  and  C_45 
REMARK   41  A    between atoms: C_45  and  C_46 
ROOT
HETATM    1  C   UNK N   1      33.859  17.899   7.948  0.00  0.00     0.180 C 
ENDROOT
BRANCH   1   2
HETATM    2  C   UNK N   1      34.579  17.252   9.118  0.00  0.00     0.215 C 
BRANCH   2   3
HETATM    3  O   UNK N   1      33.923  16.088   9.531  0.00  0.00    -0.294 OA
BRANCH   3   4
HETATM    4  P   UNK N   1      35.162  15.148  10.298  0.00  0.00     0.393 P 
HETATM    5  O   UNK N   1      35.799  16.558  10.420  0.00  0.00    -0.631 OA
BRANCH   4   6
HETATM    6  O   UNK N   1      33.681  15.172  11.209  0.00  0.00    -0.307 OA
HETATM    7  H   UNK N   1      32.980  14.597  11.554  0.00  0.00     0.222 HD
ENDBRANCH   4   6
BRANCH   4   8
HETATM    8  O   UNK N   1      35.458  15.178  12.010  0.00  0.00    -0.295 OA
BRANCH   8   9
HETATM    9  C   UNK N   1      35.365  13.842  12.418  0.00  0.00     0.199 C 
BRANCH   9  10
HETATM   10  C   UNK N   1      36.550  13.471  13.295  0.00  0.00     0.138 C 
BRANCH  10  11
HETATM   11  N   UNK N   1      36.832  14.542  14.235  0.00  0.00    -0.428 N 
HETATM   12  H   UNK N   1      37.583  14.479  14.922  0.00  0.00     0.149 HD
HETATM   13  H   UNK N   1      36.259  15.386  14.206  0.00  0.00     0.149 HD
ENDBRANCH  10  11
ENDBRANCH   9  10
ENDBRANCH   8   9
ENDBRANCH   4   8
ENDBRANCH   3   4
ENDBRANCH   2   3
ENDBRANCH   1   2
BRANCH   1  14
HETATM   14  O   UNK N   1      34.487  17.549   6.762  0.00  0.00    -0.312 OA
BRANCH  14  15
HETATM   15  C   UNK N   1      33.866  17.145   5.619  0.00  0.00     0.259 C 
HETATM   16  O   UNK N   1      33.428  17.990   4.855  0.00  0.00    -0.265 OA
BRANCH  15  17
HETATM   17  C   UNK N   1      33.736  15.698   5.238  0.00  0.00     0.111 C 
BRANCH  17  18
HETATM   18  C   UNK N   1      32.610  15.537   4.231  0.00  0.00     0.010 C 
BRANCH  18  19
HETATM   19  C   UNK N   1      31.337  15.046   4.893  0.00  0.00     0.000 C 
BRANCH  19  20
HETATM   20  C   UNK N   1      30.119  15.563   4.146  0.00  0.00     0.000 C 
BRANCH  20  21
HETATM   21  C   UNK N   1      29.274  14.409   3.628  0.00  0.00     0.000 C 
BRANCH  21  22
HETATM   22  C   UNK N   1      28.490  14.866   2.409  0.00  0.00     0.000 C 
BRANCH  22  23
HETATM   23  C   UNK N   1      27.515  15.988   2.745  0.00  0.00     0.000 C 
BRANCH  23  24
HETATM   24  C   UNK N   1      26.103  15.470   2.998  0.00  0.00     0.000 C 
BRANCH  24  25
HETATM   25  C   UNK N   1      25.175  16.598   3.438  0.00  0.00     0.000 C 
BRANCH  25  26
HETATM   26  C   UNK N   1      25.873  17.948   3.382  0.00  0.00     0.000 C 
BRANCH  26  27
HETATM   27  C   UNK N   1      24.887  19.081   3.603  0.00  0.00     0.000 C 
BRANCH  27  28
HETATM   28  C   UNK N   1      25.630  20.353   3.953  0.00  0.00     0.000 C 
BRANCH  28  29
HETATM   29  C   UNK N   1      27.109  20.068   4.109  0.00  0.00    -0.000 C 
BRANCH  29  30
HETATM   30  C   UNK N   1      27.599  20.698   5.393  0.00  0.00    -0.005 C 
HETATM   31  C   UNK N   1      26.416  21.194   6.197  0.00  0.00     0.005 C 
ENDBRANCH  29  30
ENDBRANCH  28  29
ENDBRANCH  27  28
ENDBRANCH  26  27
ENDBRANCH  25  26
ENDBRANCH  24  25
ENDBRANCH  23  24
ENDBRANCH  22  23
ENDBRANCH  21  22
ENDBRANCH  20  21
ENDBRANCH  19  20
ENDBRANCH  18  19
ENDBRANCH  17  18
ENDBRANCH  15  17
ENDBRANCH  14  15
ENDBRANCH   1  14
BRANCH   1  32
HETATM   32  C   UNK N   1      32.388  17.506   7.911  0.00  0.00     0.213 C 
BRANCH  32  33
HETATM   33  O   UNK N   1      31.585  18.352   8.651  0.00  0.00    -0.319 OA
BRANCH  33  34
HETATM   34  C   UNK N   1      30.275  18.091   8.903  0.00  0.00     0.258 C 
HETATM   35  O   UNK N   1      29.699  18.718   9.777  0.00  0.00    -0.265 OA
BRANCH  34  36
HETATM   36  C   UNK N   1      29.520  17.031   8.150  0.00  0.00     0.111 C 
BRANCH  36  37
HETATM   37  C   UNK N   1      28.897  17.622   6.896  0.00  0.00     0.010 C 
BRANCH  37  38
HETATM   38  C   UNK N   1      27.436  17.273   6.737  0.00  0.00     0.000 C 
BRANCH  38  39
HETATM   39  C   UNK N   1      27.227  15.799   6.439  0.00  0.00     0.000 C 
BRANCH  39  40
HETATM   40  C   UNK N   1      25.962  15.311   7.127  0.00  0.00     0.000 C 
BRANCH  40  41
HETATM   41  C   UNK N   1      25.418  14.041   6.483  0.00  0.00     0.000 C 
BRANCH  41  42
HETATM   42  C   UNK N   1      24.064  14.257   5.819  0.00  0.00     0.000 C 
BRANCH  42  43
HETATM   43  C   UNK N   1      23.278  15.311   6.581  0.00  0.00     0.000 C 
BRANCH  43  44
HETATM   44  C   UNK N   1      22.326  16.055   5.671  0.00  0.00     0.000 C 
BRANCH  44  45
HETATM   45  C   UNK N   1      21.985  17.408   6.260  0.00  0.00     0.000 C 
BRANCH  45  46
HETATM   46  C   UNK N   1      21.583  18.351   5.149  0.00  0.00     0.000 C 
BRANCH  46  47
HETATM   47  C   UNK N   1      21.012  17.543   4.007  0.00  0.00     0.000 C 
BRANCH  47  48
HETATM   48  C   UNK N   1      20.935  18.411   2.767  0.00  0.00    -0.000 C 
BRANCH  48  49
HETATM   49  C   UNK N   1      20.368  19.774   3.116  0.00  0.00    -0.005 C 
HETATM   50  C   UNK N   1      21.163  20.872   2.438  0.00  0.00     0.005 C 
ENDBRANCH  48  49
ENDBRANCH  47  48
ENDBRANCH  46  47
ENDBRANCH  45  46
ENDBRANCH  44  45
ENDBRANCH  43  44
ENDBRANCH  42  43
ENDBRANCH  41  42
ENDBRANCH  40  41
ENDBRANCH  39  40
ENDBRANCH  38  39
ENDBRANCH  37  38
ENDBRANCH  36  37
ENDBRANCH  34  36
ENDBRANCH  33  34
ENDBRANCH  32  33
ENDBRANCH   1  32
TORSDOF 41
ENDMDL
