REMARK  8 active torsions:
REMARK  status: ('A' for Active; 'I' for Inactive)
REMARK    1  A    between atoms: O_1  and  C_2 
REMARK    2  A    between atoms: C_2  and  O_3 
REMARK    3  A    between atoms: C_2  and  C_4 
REMARK    4  A    between atoms: C_2  and  C_10 
REMARK    5  A    between atoms: C_4  and  C_5 
REMARK    6  A    between atoms: C_4  and  N_9 
REMARK    7  A    between atoms: C_5  and  C_6 
REMARK    8  A    between atoms: C_6  and  S_7 
ROOT
HETATM    1  C   UNK N   1      -0.023  -0.095  -0.892  0.00  0.00     0.225 C 
ENDROOT
BRANCH   1   2
HETATM    2  O   UNK N   1       0.695   0.951  -1.359  0.00  0.00    -0.359 OA
HETATM    3  H   UNK N   1       1.571   0.883  -1.683  0.00  0.00     0.213 HD
ENDBRANCH   1   2
BRANCH   1   4
HETATM    4  O   UNK N   1      -0.451  -0.885  -1.897  0.00  0.00    -0.359 OA
HETATM    5  H   UNK N   1      -1.076  -0.902  -2.595  0.00  0.00     0.213 HD
ENDBRANCH   1   4
BRANCH   1   6
HETATM    6  C   UNK N   1       0.865  -0.963   0.013  0.00  0.00     0.144 C 
BRANCH   6   7
HETATM    7  C   UNK N   1       1.495  -0.235   1.212  0.00  0.00     0.040 C 
BRANCH   7   8
HETATM    8  C   UNK N   1       2.514   0.862   0.874  0.00  0.00     0.075 C 
BRANCH   8   9
HETATM    9  S   UNK N   1       3.759   0.374  -0.378  0.00  0.00    -0.173 SA
HETATM   10  C   UNK N   1       4.583  -0.830   0.702  0.00  0.00     0.089 C 
ENDBRANCH   8   9
ENDBRANCH   7   8
ENDBRANCH   6   7
BRANCH   6  11
HETATM   11  N   UNK N   1       0.139  -2.121   0.518  0.00  0.00    -0.421 N 
HETATM   12  H   UNK N   1      -0.817  -2.087   0.871  0.00  0.00     0.150 HD
HETATM   13  H   UNK N   1       0.617  -3.022   0.518  0.00  0.00     0.150 HD
ENDBRANCH   6  11
ENDBRANCH   1   6
BRANCH   1  14
HETATM   14  C   UNK N   1      -1.217   0.401  -0.135  0.00  0.00     0.073 A 
HETATM   15  C   UNK N   1      -2.196  -0.498   0.327  0.00  0.00     0.031 A 
HETATM   16  C   UNK N   1      -3.345  -0.013   0.950  0.00  0.00     0.003 A 
HETATM   17  C   UNK N   1      -3.526   1.362   1.092  0.00  0.00     0.017 A 
HETATM   18  C   UNK N   1      -2.547   2.233   0.613  0.00  0.00     0.088 A 
HETATM   19  N   UNK N   1      -1.428   1.741   0.013  0.00  0.00    -0.365 N 
ATOM     20  HN  UNK N   1      -0.726   2.394  -0.337  1.00  0.00     0.165 HD
ENDBRANCH   1  14
TORSDOF 8
