MODEL 1
REMARK VINA RESULT:      -5.1      0.000      0.000
REMARK  8 active torsions:
REMARK  status: ('A' for Active; 'I' for Inactive)
REMARK    1  A    between atoms: O_1  and  C_2 
REMARK    2  A    between atoms: C_2  and  O_3 
REMARK    3  A    between atoms: C_2  and  C_4 
REMARK    4  A    between atoms: C_2  and  C_10 
REMARK    5  A    between atoms: C_4  and  C_5 
REMARK    6  A    between atoms: C_4  and  N_9 
REMARK    7  A    between atoms: C_5  and  C_6 
REMARK    8  A    between atoms: C_6  and  S_7 
ROOT
HETATM    1  C   UNK N   1      21.514  20.380   2.996  0.00  0.00     0.225 C 
ENDROOT
BRANCH   1   2
HETATM    2  O   UNK N   1      21.536  21.689   2.659  0.00  0.00    -0.359 OA
HETATM    3  H   UNK N   1      21.510  22.391   3.278  0.00  0.00     0.213 HD
ENDBRANCH   1   2
BRANCH   1   4
HETATM    4  O   UNK N   1      20.754  20.167   4.089  0.00  0.00    -0.359 OA
HETATM    5  H   UNK N   1      19.863  20.018   4.339  0.00  0.00     0.213 HD
ENDBRANCH   1   4
BRANCH   1   6
HETATM    6  C   UNK N   1      20.891  19.566   1.851  0.00  0.00     0.144 C 
BRANCH   6   7
HETATM    7  C   UNK N   1      19.771  18.597   2.265  0.00  0.00     0.040 C 
BRANCH   7   8
HETATM    8  C   UNK N   1      20.150  17.111   2.313  0.00  0.00     0.075 C 
BRANCH   8   9
HETATM    9  S   UNK N   1      19.962  16.234   0.716  0.00  0.00    -0.173 SA
HETATM   10  C   UNK N   1      21.205  14.968   1.101  0.00  0.00     0.089 C 
ENDBRANCH   8   9
ENDBRANCH   7   8
ENDBRANCH   6   7
BRANCH   6  11
HETATM   11  N   UNK N   1      20.372  20.434   0.802  0.00  0.00    -0.421 N 
HETATM   12  H   UNK N   1      19.444  20.343   0.391  0.00  0.00     0.150 HD
HETATM   13  H   UNK N   1      20.976  21.181   0.458  0.00  0.00     0.150 HD
ENDBRANCH   6  11
ENDBRANCH   1   6
BRANCH   1  14
HETATM   14  C   UNK N   1      22.904  19.902   3.283  0.00  0.00     0.073 A 
HETATM   15  C   UNK N   1      24.020  20.638   2.843  0.00  0.00     0.031 A 
HETATM   16  C   UNK N   1      25.305  20.134   3.038  0.00  0.00     0.003 A 
HETATM   17  C   UNK N   1      25.475  18.893   3.650  0.00  0.00     0.017 A 
HETATM   18  C   UNK N   1      24.352  18.177   4.065  0.00  0.00     0.088 A 
HETATM   19  N   UNK N   1      23.105  18.687   3.872  0.00  0.00    -0.365 N 
ATOM     20  HN  UNK N   1      22.295  18.145   4.176  1.00  0.00     0.165 HD
ENDBRANCH   1  14
TORSDOF 8
ENDMDL
MODEL 2
REMARK VINA RESULT:      -4.8      7.796      9.583
REMARK  8 active torsions:
REMARK  status: ('A' for Active; 'I' for Inactive)
REMARK    1  A    between atoms: O_1  and  C_2 
REMARK    2  A    between atoms: C_2  and  O_3 
REMARK    3  A    between atoms: C_2  and  C_4 
REMARK    4  A    between atoms: C_2  and  C_10 
REMARK    5  A    between atoms: C_4  and  C_5 
REMARK    6  A    between atoms: C_4  and  N_9 
REMARK    7  A    between atoms: C_5  and  C_6 
REMARK    8  A    between atoms: C_6  and  S_7 
ROOT
HETATM    1  C   UNK N   1      28.029  17.732   8.439  0.00  0.00     0.225 C 
ENDROOT
BRANCH   1   2
HETATM    2  O   UNK N   1      27.278  16.619   8.274  0.00  0.00    -0.359 OA
HETATM    3  H   UNK N   1      26.622  16.335   8.879  0.00  0.00     0.213 HD
ENDBRANCH   1   2
BRANCH   1   4
HETATM    4  O   UNK N   1      27.502  18.546   9.375  0.00  0.00    -0.359 OA
HETATM    5  H   UNK N   1      27.660  19.366   9.800  0.00  0.00     0.213 HD
ENDBRANCH   1   4
BRANCH   1   6
HETATM    6  C   UNK N   1      29.431  17.337   8.928  0.00  0.00     0.144 C 
BRANCH   6   7
HETATM    7  C   UNK N   1      30.517  18.411   8.755  0.00  0.00     0.040 C 
BRANCH   7   8
HETATM    8  C   UNK N   1      31.920  17.900   8.402  0.00  0.00     0.075 C 
BRANCH   8   9
HETATM    9  S   UNK N   1      31.934  16.341   7.441  0.00  0.00    -0.173 SA
HETATM   10  C   UNK N   1      32.099  17.166   5.833  0.00  0.00     0.089 C 
ENDBRANCH   8   9
ENDBRANCH   7   8
ENDBRANCH   6   7
BRANCH   6  11
HETATM   11  N   UNK N   1      29.412  16.935  10.328  0.00  0.00    -0.421 N 
HETATM   12  H   UNK N   1      28.833  17.376  11.042  0.00  0.00     0.150 HD
HETATM   13  H   UNK N   1      30.016  16.163  10.612  0.00  0.00     0.150 HD
ENDBRANCH   6  11
ENDBRANCH   1   6
BRANCH   1  14
HETATM   14  C   UNK N   1      28.118  18.485   7.147  0.00  0.00     0.073 A 
HETATM   15  C   UNK N   1      27.666  19.816   7.062  0.00  0.00     0.031 A 
HETATM   16  C   UNK N   1      27.672  20.473   5.832  0.00  0.00     0.003 A 
HETATM   17  C   UNK N   1      28.105  19.799   4.691  0.00  0.00     0.017 A 
HETATM   18  C   UNK N   1      28.534  18.476   4.799  0.00  0.00     0.088 A 
HETATM   19  N   UNK N   1      28.528  17.853   6.010  0.00  0.00    -0.365 N 
ATOM     20  HN  UNK N   1      28.840  16.883   6.068  1.00  0.00     0.165 HD
ENDBRANCH   1  14
TORSDOF 8
ENDMDL
MODEL 3
REMARK VINA RESULT:      -4.8      6.384      8.341
REMARK  8 active torsions:
REMARK  status: ('A' for Active; 'I' for Inactive)
REMARK    1  A    between atoms: O_1  and  C_2 
REMARK    2  A    between atoms: C_2  and  O_3 
REMARK    3  A    between atoms: C_2  and  C_4 
REMARK    4  A    between atoms: C_2  and  C_10 
REMARK    5  A    between atoms: C_4  and  C_5 
REMARK    6  A    between atoms: C_4  and  N_9 
REMARK    7  A    between atoms: C_5  and  C_6 
REMARK    8  A    between atoms: C_6  and  S_7 
ROOT
HETATM    1  C   UNK N   1      27.976  18.245   8.006  0.00  0.00     0.225 C 
ENDROOT
BRANCH   1   2
HETATM    2  O   UNK N   1      27.569  18.318   9.293  0.00  0.00    -0.359 OA
HETATM    3  H   UNK N   1      26.982  17.707   9.693  0.00  0.00     0.213 HD
ENDBRANCH   1   2
BRANCH   1   4
HETATM    4  O   UNK N   1      27.195  17.412   7.290  0.00  0.00    -0.359 OA
HETATM    5  H   UNK N   1      26.593  17.414   6.572  0.00  0.00     0.213 HD
ENDBRANCH   1   4
BRANCH   1   6
HETATM    6  C   UNK N   1      27.866  19.633   7.354  0.00  0.00     0.144 C 
BRANCH   6   7
HETATM    7  C   UNK N   1      27.862  19.640   5.817  0.00  0.00     0.040 C 
BRANCH   7   8
HETATM    8  C   UNK N   1      26.990  20.715   5.151  0.00  0.00     0.075 C 
BRANCH   8   9
HETATM    9  S   UNK N   1      26.022  20.116   3.716  0.00  0.00    -0.173 SA
HETATM   10  C   UNK N   1      24.989  18.993   4.699  0.00  0.00     0.089 C 
ENDBRANCH   8   9
ENDBRANCH   7   8
ENDBRANCH   6   7
BRANCH   6  11
HETATM   11  N   UNK N   1      26.679  20.343   7.813  0.00  0.00    -0.421 N 
HETATM   12  H   UNK N   1      26.511  20.610   8.783  0.00  0.00     0.150 HD
HETATM   13  H   UNK N   1      25.972  20.589   7.121  0.00  0.00     0.150 HD
ENDBRANCH   6  11
ENDBRANCH   1   6
BRANCH   1  14
HETATM   14  C   UNK N   1      29.387  17.747   7.942  0.00  0.00     0.073 A 
HETATM   15  C   UNK N   1      30.394  18.346   8.721  0.00  0.00     0.031 A 
HETATM   16  C   UNK N   1      31.718  17.931   8.584  0.00  0.00     0.003 A 
HETATM   17  C   UNK N   1      32.038  16.938   7.658  0.00  0.00     0.017 A 
HETATM   18  C   UNK N   1      31.024  16.370   6.888  0.00  0.00     0.088 A 
HETATM   19  N   UNK N   1      29.735  16.783   7.040  0.00  0.00    -0.365 N 
ATOM     20  HN  UNK N   1      29.008  16.360   6.463  1.00  0.00     0.165 HD
ENDBRANCH   1  14
TORSDOF 8
ENDMDL
MODEL 4
REMARK VINA RESULT:      -4.8     14.254     16.118
REMARK  8 active torsions:
REMARK  status: ('A' for Active; 'I' for Inactive)
REMARK    1  A    between atoms: O_1  and  C_2 
REMARK    2  A    between atoms: C_2  and  O_3 
REMARK    3  A    between atoms: C_2  and  C_4 
REMARK    4  A    between atoms: C_2  and  C_10 
REMARK    5  A    between atoms: C_4  and  C_5 
REMARK    6  A    between atoms: C_4  and  N_9 
REMARK    7  A    between atoms: C_5  and  C_6 
REMARK    8  A    between atoms: C_6  and  S_7 
ROOT
HETATM    1  C   UNK N   1      35.467  16.190  10.540  0.00  0.00     0.225 C 
ENDROOT
BRANCH   1   2
HETATM    2  O   UNK N   1      34.985  17.187  11.316  0.00  0.00    -0.359 OA
HETATM    3  H   UNK N   1      34.719  18.024  10.989  0.00  0.00     0.213 HD
ENDBRANCH   1   2
BRANCH   1   4
HETATM    4  O   UNK N   1      36.812  16.123  10.607  0.00  0.00    -0.359 OA
HETATM    5  H   UNK N   1      37.541  16.519  11.043  0.00  0.00     0.213 HD
ENDBRANCH   1   4
BRANCH   1   6
HETATM    6  C   UNK N   1      34.926  14.843  11.042  0.00  0.00     0.144 C 
BRANCH   6   7
HETATM    7  C   UNK N   1      35.438  14.400  12.423  0.00  0.00     0.040 C 
BRANCH   7   8
HETATM    8  C   UNK N   1      35.163  12.939  12.806  0.00  0.00     0.075 C 
BRANCH   8   9
HETATM    9  S   UNK N   1      35.175  12.619  14.610  0.00  0.00    -0.173 SA
HETATM   10  C   UNK N   1      36.630  13.656  14.929  0.00  0.00     0.089 C 
ENDBRANCH   8   9
ENDBRANCH   7   8
ENDBRANCH   6   7
BRANCH   6  11
HETATM   11  N   UNK N   1      33.469  14.834  11.076  0.00  0.00    -0.421 N 
HETATM   12  H   UNK N   1      32.918  14.798  11.933  0.00  0.00     0.150 HD
HETATM   13  H   UNK N   1      32.971  14.865  10.187  0.00  0.00     0.150 HD
ENDBRANCH   6  11
ENDBRANCH   1   6
BRANCH   1  14
HETATM   14  C   UNK N   1      35.072  16.415   9.113  0.00  0.00     0.073 A 
HETATM   15  C   UNK N   1      34.427  17.605   8.727  0.00  0.00     0.031 A 
HETATM   16  C   UNK N   1      33.985  17.761   7.414  0.00  0.00     0.003 A 
HETATM   17  C   UNK N   1      34.166  16.727   6.497  0.00  0.00     0.017 A 
HETATM   18  C   UNK N   1      34.796  15.552   6.907  0.00  0.00     0.088 A 
HETATM   19  N   UNK N   1      35.227  15.420   8.192  0.00  0.00    -0.365 N 
ATOM     20  HN  UNK N   1      35.680  14.550   8.476  1.00  0.00     0.165 HD
ENDBRANCH   1  14
TORSDOF 8
ENDMDL
MODEL 5
REMARK VINA RESULT:      -4.8     11.080     13.143
REMARK  8 active torsions:
REMARK  status: ('A' for Active; 'I' for Inactive)
REMARK    1  A    between atoms: O_1  and  C_2 
REMARK    2  A    between atoms: C_2  and  O_3 
REMARK    3  A    between atoms: C_2  and  C_4 
REMARK    4  A    between atoms: C_2  and  C_10 
REMARK    5  A    between atoms: C_4  and  C_5 
REMARK    6  A    between atoms: C_4  and  N_9 
REMARK    7  A    between atoms: C_5  and  C_6 
REMARK    8  A    between atoms: C_6  and  S_7 
ROOT
HETATM    1  C   UNK N   1      34.245  17.929   7.911  0.00  0.00     0.225 C 
ENDROOT
BRANCH   1   2
HETATM    2  O   UNK N   1      34.712  17.641   6.675  0.00  0.00    -0.359 OA
HETATM    3  H   UNK N   1      35.378  17.006   6.501  0.00  0.00     0.213 HD
ENDBRANCH   1   2
BRANCH   1   4
HETATM    4  O   UNK N   1      34.671  19.138   8.327  0.00  0.00    -0.359 OA
HETATM    5  H   UNK N   1      35.004  19.571   9.088  0.00  0.00     0.213 HD
ENDBRANCH   1   4
BRANCH   1   6
HETATM    6  C   UNK N   1      32.710  17.982   7.879  0.00  0.00     0.144 C 
BRANCH   6   7
HETATM    7  C   UNK N   1      32.048  17.219   6.719  0.00  0.00     0.040 C 
BRANCH   7   8
HETATM    8  C   UNK N   1      30.719  16.523   7.043  0.00  0.00     0.075 C 
BRANCH   8   9
HETATM    9  S   UNK N   1      29.231  17.508   6.628  0.00  0.00    -0.173 SA
HETATM   10  C   UNK N   1      28.560  17.469   8.315  0.00  0.00     0.089 C 
ENDBRANCH   8   9
ENDBRANCH   7   8
ENDBRANCH   6   7
BRANCH   6  11
HETATM   11  N   UNK N   1      32.135  17.495   9.126  0.00  0.00    -0.421 N 
HETATM   12  H   UNK N   1      31.133  17.422   9.304  0.00  0.00     0.150 HD
HETATM   13  H   UNK N   1      32.774  17.210   9.868  0.00  0.00     0.150 HD
ENDBRANCH   6  11
ENDBRANCH   1   6
BRANCH   1  14
HETATM   14  C   UNK N   1      34.714  16.896   8.889  0.00  0.00     0.073 A 
HETATM   15  C   UNK N   1      34.782  15.540   8.521  0.00  0.00     0.031 A 
HETATM   16  C   UNK N   1      35.133  14.580   9.470  0.00  0.00     0.003 A 
HETATM   17  C   UNK N   1      35.395  14.969  10.782  0.00  0.00     0.017 A 
HETATM   18  C   UNK N   1      35.307  16.319  11.125  0.00  0.00     0.088 A 
HETATM   19  N   UNK N   1      34.969  17.243  10.184  0.00  0.00    -0.365 N 
ATOM     20  HN  UNK N   1      34.904  18.225  10.455  1.00  0.00     0.165 HD
ENDBRANCH   1  14
TORSDOF 8
ENDMDL
MODEL 6
REMARK VINA RESULT:      -4.7      7.209      8.453
REMARK  8 active torsions:
REMARK  status: ('A' for Active; 'I' for Inactive)
REMARK    1  A    between atoms: O_1  and  C_2 
REMARK    2  A    between atoms: C_2  and  O_3 
REMARK    3  A    between atoms: C_2  and  C_4 
REMARK    4  A    between atoms: C_2  and  C_10 
REMARK    5  A    between atoms: C_4  and  C_5 
REMARK    6  A    between atoms: C_4  and  N_9 
REMARK    7  A    between atoms: C_5  and  C_6 
REMARK    8  A    between atoms: C_6  and  S_7 
ROOT
HETATM    1  C   UNK N   1      20.526  14.193   8.903  0.00  0.00     0.225 C 
ENDROOT
BRANCH   1   2
HETATM    2  O   UNK N   1      19.388  14.304   9.624  0.00  0.00    -0.359 OA
HETATM    3  H   UNK N   1      18.530  14.163   9.276  0.00  0.00     0.213 HD
ENDBRANCH   1   2
BRANCH   1   4
HETATM    4  O   UNK N   1      20.301  13.584   7.721  0.00  0.00    -0.359 OA
HETATM    5  H   UNK N   1      19.598  13.315   7.162  0.00  0.00     0.213 HD
ENDBRANCH   1   4
BRANCH   1   6
HETATM    6  C   UNK N   1      21.073  15.594   8.588  0.00  0.00     0.144 C 
BRANCH   6   7
HETATM    7  C   UNK N   1      21.586  15.794   7.152  0.00  0.00     0.040 C 
BRANCH   7   8
HETATM    8  C   UNK N   1      21.097  17.059   6.433  0.00  0.00     0.075 C 
BRANCH   8   9
HETATM    9  S   UNK N   1      20.393  16.755   4.769  0.00  0.00    -0.173 SA
HETATM   10  C   UNK N   1      18.939  15.863   5.391  0.00  0.00     0.089 C 
ENDBRANCH   8   9
ENDBRANCH   7   8
ENDBRANCH   6   7
BRANCH   6  11
HETATM   11  N   UNK N   1      20.081  16.626   8.862  0.00  0.00    -0.421 N 
HETATM   12  H   UNK N   1      20.126  17.266   9.654  0.00  0.00     0.150 HD
HETATM   13  H   UNK N   1      19.293  16.713   8.220  0.00  0.00     0.150 HD
ENDBRANCH   6  11
ENDBRANCH   1   6
BRANCH   1  14
HETATM   14  C   UNK N   1      21.539  13.393   9.664  0.00  0.00     0.073 A 
HETATM   15  C   UNK N   1      21.158  12.644  10.793  0.00  0.00     0.031 A 
HETATM   16  C   UNK N   1      22.126  11.979  11.543  0.00  0.00     0.003 A 
HETATM   17  C   UNK N   1      23.469  12.078  11.183  0.00  0.00     0.017 A 
HETATM   18  C   UNK N   1      23.822  12.839  10.068  0.00  0.00     0.088 A 
HETATM   19  N   UNK N   1      22.862  13.477   9.342  0.00  0.00    -0.365 N 
ATOM     20  HN  UNK N   1      23.140  14.034   8.534  1.00  0.00     0.165 HD
ENDBRANCH   1  14
TORSDOF 8
ENDMDL
MODEL 7
REMARK VINA RESULT:      -4.6     11.905     14.227
REMARK  8 active torsions:
REMARK  status: ('A' for Active; 'I' for Inactive)
REMARK    1  A    between atoms: O_1  and  C_2 
REMARK    2  A    between atoms: C_2  and  O_3 
REMARK    3  A    between atoms: C_2  and  C_4 
REMARK    4  A    between atoms: C_2  and  C_10 
REMARK    5  A    between atoms: C_4  and  C_5 
REMARK    6  A    between atoms: C_4  and  N_9 
REMARK    7  A    between atoms: C_5  and  C_6 
REMARK    8  A    between atoms: C_6  and  S_7 
ROOT
HETATM    1  C   UNK N   1      34.217  17.249   8.279  0.00  0.00     0.225 C 
ENDROOT
BRANCH   1   2
HETATM    2  O   UNK N   1      34.631  18.520   8.479  0.00  0.00    -0.359 OA
HETATM    3  H   UNK N   1      35.047  19.045   7.825  0.00  0.00     0.213 HD
ENDBRANCH   1   2
BRANCH   1   4
HETATM    4  O   UNK N   1      34.906  16.659   7.282  0.00  0.00    -0.359 OA
HETATM    5  H   UNK N   1      35.151  16.791   6.388  0.00  0.00     0.213 HD
ENDBRANCH   1   4
BRANCH   1   6
HETATM    6  C   UNK N   1      34.468  16.422   9.549  0.00  0.00     0.144 C 
BRANCH   6   7
HETATM    7  C   UNK N   1      35.353  15.178   9.361  0.00  0.00     0.040 C 
BRANCH   7   8
HETATM    8  C   UNK N   1      36.595  15.093  10.258  0.00  0.00     0.075 C 
BRANCH   8   9
HETATM    9  S   UNK N   1      36.739  13.529  11.201  0.00  0.00    -0.173 SA
HETATM   10  C   UNK N   1      35.078  13.646  11.924  0.00  0.00     0.089 C 
ENDBRANCH   8   9
ENDBRANCH   7   8
ENDBRANCH   6   7
BRANCH   6  11
HETATM   11  N   UNK N   1      35.053  17.236  10.607  0.00  0.00    -0.421 N 
HETATM   12  H   UNK N   1      35.424  16.859  11.479  0.00  0.00     0.150 HD
HETATM   13  H   UNK N   1      35.093  18.245  10.466  0.00  0.00     0.150 HD
ENDBRANCH   6  11
ENDBRANCH   1   6
BRANCH   1  14
HETATM   14  C   UNK N   1      32.761  17.235   7.924  0.00  0.00     0.073 A 
HETATM   15  C   UNK N   1      32.350  17.022   6.595  0.00  0.00     0.031 A 
HETATM   16  C   UNK N   1      30.998  17.102   6.266  0.00  0.00     0.003 A 
HETATM   17  C   UNK N   1      30.063  17.414   7.253  0.00  0.00     0.017 A 
HETATM   18  C   UNK N   1      30.498  17.634   8.560  0.00  0.00     0.088 A 
HETATM   19  N   UNK N   1      31.822  17.545   8.865  0.00  0.00    -0.365 N 
ATOM     20  HN  UNK N   1      32.122  17.716   9.825  1.00  0.00     0.165 HD
ENDBRANCH   1  14
TORSDOF 8
ENDMDL
MODEL 8
REMARK VINA RESULT:      -4.6     11.344     13.691
REMARK  8 active torsions:
REMARK  status: ('A' for Active; 'I' for Inactive)
REMARK    1  A    between atoms: O_1  and  C_2 
REMARK    2  A    between atoms: C_2  and  O_3 
REMARK    3  A    between atoms: C_2  and  C_4 
REMARK    4  A    between atoms: C_2  and  C_10 
REMARK    5  A    between atoms: C_4  and  C_5 
REMARK    6  A    between atoms: C_4  and  N_9 
REMARK    7  A    between atoms: C_5  and  C_6 
REMARK    8  A    between atoms: C_6  and  S_7 
ROOT
HETATM    1  C   UNK N   1      34.203  17.051   7.068  0.00  0.00     0.225 C 
ENDROOT
BRANCH   1   2
HETATM    2  O   UNK N   1      34.693  18.292   7.284  0.00  0.00    -0.359 OA
HETATM    3  H   UNK N   1      35.465  18.630   6.875  0.00  0.00     0.213 HD
ENDBRANCH   1   2
BRANCH   1   4
HETATM    4  O   UNK N   1      35.106  16.267   6.446  0.00  0.00    -0.359 OA
HETATM    5  H   UNK N   1      35.752  16.296   5.768  0.00  0.00     0.213 HD
ENDBRANCH   1   4
BRANCH   1   6
HETATM    6  C   UNK N   1      33.882  16.385   8.415  0.00  0.00     0.144 C 
BRANCH   6   7
HETATM    7  C   UNK N   1      34.748  15.164   8.768  0.00  0.00     0.040 C 
BRANCH   7   8
HETATM    8  C   UNK N   1      35.503  15.238  10.103  0.00  0.00     0.075 C 
BRANCH   8   9
HETATM    9  S   UNK N   1      34.899  14.067  11.376  0.00  0.00    -0.173 SA
HETATM   10  C   UNK N   1      36.031  14.661  12.664  0.00  0.00     0.089 C 
ENDBRANCH   8   9
ENDBRANCH   7   8
ENDBRANCH   6   7
BRANCH   6  11
HETATM   11  N   UNK N   1      33.973  17.337   9.514  0.00  0.00    -0.421 N 
HETATM   12  H   UNK N   1      34.398  17.129  10.417  0.00  0.00     0.150 HD
HETATM   13  H   UNK N   1      33.586  18.270   9.371  0.00  0.00     0.150 HD
ENDBRANCH   6  11
ENDBRANCH   1   6
BRANCH   1  14
HETATM   14  C   UNK N   1      32.973  17.128   6.215  0.00  0.00     0.073 A 
HETATM   15  C   UNK N   1      33.063  17.497   4.860  0.00  0.00     0.031 A 
HETATM   16  C   UNK N   1      31.902  17.651   4.104  0.00  0.00     0.003 A 
HETATM   17  C   UNK N   1      30.657  17.459   4.702  0.00  0.00     0.017 A 
HETATM   18  C   UNK N   1      30.595  17.107   6.051  0.00  0.00     0.088 A 
HETATM   19  N   UNK N   1      31.739  16.954   6.772  0.00  0.00    -0.365 N 
ATOM     20  HN  UNK N   1      31.673  16.703   7.759  1.00  0.00     0.165 HD
ENDBRANCH   1  14
TORSDOF 8
ENDMDL
MODEL 9
REMARK VINA RESULT:      -4.6     14.856     16.998
REMARK  8 active torsions:
REMARK  status: ('A' for Active; 'I' for Inactive)
REMARK    1  A    between atoms: O_1  and  C_2 
REMARK    2  A    between atoms: C_2  and  O_3 
REMARK    3  A    between atoms: C_2  and  C_4 
REMARK    4  A    between atoms: C_2  and  C_10 
REMARK    5  A    between atoms: C_4  and  C_5 
REMARK    6  A    between atoms: C_4  and  N_9 
REMARK    7  A    between atoms: C_5  and  C_6 
REMARK    8  A    between atoms: C_6  and  S_7 
ROOT
HETATM    1  C   UNK N   1      36.213  14.729  10.943  0.00  0.00     0.225 C 
ENDROOT
BRANCH   1   2
HETATM    2  O   UNK N   1      35.937  13.772  10.028  0.00  0.00    -0.359 OA
HETATM    3  H   UNK N   1      35.085  13.621   9.669  0.00  0.00     0.213 HD
ENDBRANCH   1   2
BRANCH   1   4
HETATM    4  O   UNK N   1      37.276  15.470  10.573  0.00  0.00    -0.359 OA
HETATM    5  H   UNK N   1      38.183  15.385  10.354  0.00  0.00     0.213 HD
ENDBRANCH   1   4
BRANCH   1   6
HETATM    6  C   UNK N   1      35.017  15.688  11.059  0.00  0.00     0.144 C 
BRANCH   6   7
HETATM    7  C   UNK N   1      34.977  16.820  10.019  0.00  0.00     0.040 C 
BRANCH   7   8
HETATM    8  C   UNK N   1      33.891  16.705   8.941  0.00  0.00     0.075 C 
BRANCH   8   9
HETATM    9  S   UNK N   1      34.494  16.084   7.327  0.00  0.00    -0.173 SA
HETATM   10  C   UNK N   1      33.735  17.423   6.365  0.00  0.00     0.089 C 
ENDBRANCH   8   9
ENDBRANCH   7   8
ENDBRANCH   6   7
BRANCH   6  11
HETATM   11  N   UNK N   1      33.751  14.969  10.994  0.00  0.00    -0.421 N 
HETATM   12  H   UNK N   1      33.347  14.451  11.774  0.00  0.00     0.150 HD
HETATM   13  H   UNK N   1      33.237  14.986  10.113  0.00  0.00     0.150 HD
ENDBRANCH   6  11
ENDBRANCH   1   6
BRANCH   1  14
HETATM   14  C   UNK N   1      36.510  14.099  12.269  0.00  0.00     0.073 A 
HETATM   15  C   UNK N   1      36.752  12.716  12.367  0.00  0.00     0.031 A 
HETATM   16  C   UNK N   1      36.938  12.131  13.618  0.00  0.00     0.003 A 
HETATM   17  C   UNK N   1      36.861  12.917  14.767  0.00  0.00     0.017 A 
HETATM   18  C   UNK N   1      36.606  14.283  14.644  0.00  0.00     0.088 A 
HETATM   19  N   UNK N   1      36.434  14.839  13.413  0.00  0.00    -0.365 N 
ATOM     20  HN  UNK N   1      36.242  15.839  13.344  1.00  0.00     0.165 HD
ENDBRANCH   1  14
TORSDOF 8
ENDMDL
