REMARK  0 active torsions:
REMARK  status: ('A' for Active; 'I' for Inactive)
REMARK       I    between atoms: C_6  and  N_7 
ROOT
HETATM    1  C   UNK N   1      -2.234   0.237  -0.000  0.00  0.00     0.009 A 
HETATM    2  C   UNK N   1      -1.035   0.956  -0.000  0.00  0.00    -0.034 A 
HETATM    3  C   UNK N   1      -1.074   2.447   0.000  0.00  0.00     0.050 C 
HETATM    4  C   UNK N   1       0.189   0.271   0.000  0.00  0.00     0.070 A 
HETATM    5  N   UNK N   1       1.362   0.958   0.000  0.00  0.00    -0.191 N 
HETATM    6  C   UNK N   1       2.556   0.312   0.000  0.00  0.00     0.679 A 
HETATM    7  N   UNK N   1       3.752   1.055   0.000  0.00  0.00    -0.234 N 
HETATM    8  N   UNK N   1       2.599  -1.046   0.000  0.00  0.00    -0.156 N 
ATOM      9  HN  UNK N   1       3.503  -1.520   0.000  1.00  0.00     0.187 HD
HETATM   10  C   UNK N   1       1.447  -1.790   0.000  0.00  0.00     0.272 A 
HETATM   11  O   UNK N   1       1.515  -3.007  -0.000  0.00  0.00    -0.267 OA
HETATM   12  C   UNK N   1       0.206  -1.140  -0.000  0.00  0.00     0.060 A 
HETATM   13  C   UNK N   1      -1.003  -1.851  -0.000  0.00  0.00     0.019 A 
HETATM   14  C   UNK N   1      -2.219  -1.161  -0.000  0.00  0.00     0.002 A 
HETATM   15  H   UNK N   1       1.345   1.942   0.000  0.00  0.00     0.184 HD
HETATM   16  H   UNK N   1       4.620   0.591   0.000  0.00  0.00     0.174 HD
HETATM   17  H   UNK N   1       3.720   2.039   0.000  0.00  0.00     0.174 HD
ENDROOT
TORSDOF 0
