MODEL 1
REMARK VINA RESULT:      -5.7      0.000      0.000
REMARK  0 active torsions:
REMARK  status: ('A' for Active; 'I' for Inactive)
REMARK       I    between atoms: C_6  and  N_7 
ROOT
HETATM    1  C   UNK N   1      35.917  14.172  17.267  0.00  0.00     0.009 A 
HETATM    2  C   UNK N   1      36.525  14.588  16.079  0.00  0.00    -0.034 A 
HETATM    3  C   UNK N   1      37.510  15.708  16.112  0.00  0.00     0.050 C 
HETATM    4  C   UNK N   1      36.205  13.950  14.872  0.00  0.00     0.070 A 
HETATM    5  N   UNK N   1      36.789  14.345  13.709  0.00  0.00    -0.191 N 
HETATM    6  C   UNK N   1      36.491  13.740  12.531  0.00  0.00     0.679 A 
HETATM    7  N   UNK N   1      37.115  14.174  11.346  0.00  0.00    -0.234 N 
HETATM    8  N   UNK N   1      35.595  12.719  12.494  0.00  0.00    -0.156 N 
ATOM      9  HN  UNK N   1      35.380  12.272  11.602  1.00  0.00     0.187 HD
HETATM   10  C   UNK N   1      34.976  12.280  13.635  0.00  0.00     0.272 A 
HETATM   11  O   UNK N   1      34.176  11.362  13.573  0.00  0.00    -0.267 OA
HETATM   12  C   UNK N   1      35.271  12.892  14.860  0.00  0.00     0.060 A 
HETATM   13  C   UNK N   1      34.667  12.484  16.058  0.00  0.00     0.019 A 
HETATM   14  C   UNK N   1      34.992  13.124  17.258  0.00  0.00     0.002 A 
HETATM   15  H   UNK N   1      37.440  15.083  13.722  0.00  0.00     0.184 HD
HETATM   16  H   UNK N   1      36.902  13.738  10.489  0.00  0.00     0.174 HD
HETATM   17  H   UNK N   1      37.764  14.914  11.374  0.00  0.00     0.174 HD
ENDROOT
TORSDOF 0
ENDMDL
MODEL 2
REMARK VINA RESULT:      -5.7      7.773      9.465
REMARK  0 active torsions:
REMARK  status: ('A' for Active; 'I' for Inactive)
REMARK       I    between atoms: C_6  and  N_7 
ROOT
HETATM    1  C   UNK N   1      29.715  17.477   6.824  0.00  0.00     0.009 A 
HETATM    2  C   UNK N   1      30.478  17.490   7.996  0.00  0.00    -0.034 A 
HETATM    3  C   UNK N   1      29.802  17.705   9.308  0.00  0.00     0.050 C 
HETATM    4  C   UNK N   1      31.866  17.302   7.927  0.00  0.00     0.070 A 
HETATM    5  N   UNK N   1      32.619  17.313   9.058  0.00  0.00    -0.191 N 
HETATM    6  C   UNK N   1      33.964  17.132   9.010  0.00  0.00     0.679 A 
HETATM    7  N   UNK N   1      34.713  17.149  10.202  0.00  0.00    -0.234 N 
HETATM    8  N   UNK N   1      34.586  16.936   7.818  0.00  0.00    -0.156 N 
ATOM      9  HN  UNK N   1      35.597  16.801   7.796  1.00  0.00     0.187 HD
HETATM   10  C   UNK N   1      33.876  16.916   6.645  0.00  0.00     0.272 A 
HETATM   11  O   UNK N   1      34.459  16.738   5.590  0.00  0.00    -0.267 OA
HETATM   12  C   UNK N   1      32.487  17.100   6.676  0.00  0.00     0.060 A 
HETATM   13  C   UNK N   1      31.712  17.089   5.507  0.00  0.00     0.019 A 
HETATM   14  C   UNK N   1      30.329  17.277   5.584  0.00  0.00     0.002 A 
HETATM   15  H   UNK N   1      32.181  17.454   9.928  0.00  0.00     0.184 HD
HETATM   16  H   UNK N   1      35.689  17.019  10.172  0.00  0.00     0.174 HD
HETATM   17  H   UNK N   1      34.262  17.291  11.065  0.00  0.00     0.174 HD
ENDROOT
TORSDOF 0
ENDMDL
MODEL 3
REMARK VINA RESULT:      -5.6      1.723      3.257
REMARK  0 active torsions:
REMARK  status: ('A' for Active; 'I' for Inactive)
REMARK       I    between atoms: C_6  and  N_7 
ROOT
HETATM    1  C   UNK N   1      34.259  10.529  15.483  0.00  0.00     0.009 A 
HETATM    2  C   UNK N   1      35.037  11.531  16.070  0.00  0.00    -0.034 A 
HETATM    3  C   UNK N   1      35.310  11.483  17.535  0.00  0.00     0.050 C 
HETATM    4  C   UNK N   1      35.553  12.567  15.278  0.00  0.00     0.070 A 
HETATM    5  N   UNK N   1      36.311  13.548  15.836  0.00  0.00    -0.191 N 
HETATM    6  C   UNK N   1      36.819  14.559  15.086  0.00  0.00     0.679 A 
HETATM    7  N   UNK N   1      37.600  15.558  15.697  0.00  0.00    -0.234 N 
HETATM    8  N   UNK N   1      36.574  14.608  13.750  0.00  0.00    -0.156 N 
ATOM      9  HN  UNK N   1      36.961  15.374  13.197  1.00  0.00     0.187 HD
HETATM   10  C   UNK N   1      35.815  13.646  13.134  0.00  0.00     0.272 A 
HETATM   11  O   UNK N   1      35.612  13.716  11.934  0.00  0.00    -0.267 OA
HETATM   12  C   UNK N   1      35.284  12.596  13.893  0.00  0.00     0.060 A 
HETATM   13  C   UNK N   1      34.502  11.585  13.315  0.00  0.00     0.019 A 
HETATM   14  C   UNK N   1      33.991  10.555  14.111  0.00  0.00     0.002 A 
HETATM   15  H   UNK N   1      36.496  13.523  16.803  0.00  0.00     0.184 HD
HETATM   16  H   UNK N   1      37.970  16.293  15.157  0.00  0.00     0.174 HD
HETATM   17  H   UNK N   1      37.777  15.521  16.665  0.00  0.00     0.174 HD
ENDROOT
TORSDOF 0
ENDMDL
MODEL 4
REMARK VINA RESULT:      -5.6      4.381      5.975
REMARK  0 active torsions:
REMARK  status: ('A' for Active; 'I' for Inactive)
REMARK       I    between atoms: C_6  and  N_7 
ROOT
HETATM    1  C   UNK N   1      34.999  11.079  15.453  0.00  0.00     0.009 A 
HETATM    2  C   UNK N   1      35.368  10.433  16.636  0.00  0.00    -0.034 A 
HETATM    3  C   UNK N   1      35.669   8.972  16.612  0.00  0.00     0.050 C 
HETATM    4  C   UNK N   1      35.452  11.162  17.832  0.00  0.00     0.070 A 
HETATM    5  N   UNK N   1      35.810  10.546  18.990  0.00  0.00    -0.191 N 
HETATM    6  C   UNK N   1      35.897  11.235  20.156  0.00  0.00     0.679 A 
HETATM    7  N   UNK N   1      36.270  10.566  21.337  0.00  0.00    -0.234 N 
HETATM    8  N   UNK N   1      35.625  12.566  20.186  0.00  0.00    -0.156 N 
ATOM      9  HN  UNK N   1      35.693  13.073  21.069  1.00  0.00     0.187 HD
HETATM   10  C   UNK N   1      35.259  13.239  19.048  0.00  0.00     0.272 A 
HETATM   11  O   UNK N   1      35.020  14.433  19.103  0.00  0.00    -0.267 OA
HETATM   12  C   UNK N   1      35.164  12.543  17.835  0.00  0.00     0.060 A 
HETATM   13  C   UNK N   1      34.795  13.181  16.642  0.00  0.00     0.019 A 
HETATM   14  C   UNK N   1      34.713  12.447  15.455  0.00  0.00     0.002 A 
HETATM   15  H   UNK N   1      36.010   9.582  18.982  0.00  0.00     0.184 HD
HETATM   16  H   UNK N   1      36.335  11.062  22.185  0.00  0.00     0.174 HD
HETATM   17  H   UNK N   1      36.468   9.602  21.314  0.00  0.00     0.174 HD
ENDROOT
TORSDOF 0
ENDMDL
MODEL 5
REMARK VINA RESULT:      -5.6      1.878      3.207
REMARK  0 active torsions:
REMARK  status: ('A' for Active; 'I' for Inactive)
REMARK       I    between atoms: C_6  and  N_7 
ROOT
HETATM    1  C   UNK N   1      34.542  10.984  16.284  0.00  0.00     0.009 A 
HETATM    2  C   UNK N   1      34.539  11.381  14.943  0.00  0.00    -0.034 A 
HETATM    3  C   UNK N   1      33.734  10.609  13.952  0.00  0.00     0.050 C 
HETATM    4  C   UNK N   1      35.289  12.497  14.544  0.00  0.00     0.070 A 
HETATM    5  N   UNK N   1      35.295  12.893  13.244  0.00  0.00    -0.191 N 
HETATM    6  C   UNK N   1      36.015  13.971  12.840  0.00  0.00     0.679 A 
HETATM    7  N   UNK N   1      35.998  14.353  11.485  0.00  0.00    -0.234 N 
HETATM    8  N   UNK N   1      36.750  14.678  13.737  0.00  0.00    -0.156 N 
ATOM      9  HN  UNK N   1      37.287  15.486  13.420  1.00  0.00     0.187 HD
HETATM   10  C   UNK N   1      36.781  14.324  15.061  0.00  0.00     0.272 A 
HETATM   11  O   UNK N   1      37.449  14.976  15.845  0.00  0.00    -0.267 OA
HETATM   12  C   UNK N   1      36.044  13.215  15.496  0.00  0.00     0.060 A 
HETATM   13  C   UNK N   1      36.040  12.808  16.839  0.00  0.00     0.019 A 
HETATM   14  C   UNK N   1      35.289  11.694  17.229  0.00  0.00     0.002 A 
HETATM   15  H   UNK N   1      34.766  12.389  12.584  0.00  0.00     0.184 HD
HETATM   16  H   UNK N   1      36.518  15.134  11.187  0.00  0.00     0.174 HD
HETATM   17  H   UNK N   1      35.465  13.840  10.835  0.00  0.00     0.174 HD
ENDROOT
TORSDOF 0
ENDMDL
MODEL 6
REMARK VINA RESULT:      -5.6      8.773     10.095
REMARK  0 active torsions:
REMARK  status: ('A' for Active; 'I' for Inactive)
REMARK       I    between atoms: C_6  and  N_7 
ROOT
HETATM    1  C   UNK N   1      33.776  17.438   5.883  0.00  0.00     0.009 A 
HETATM    2  C   UNK N   1      33.324  17.741   7.170  0.00  0.00    -0.034 A 
HETATM    3  C   UNK N   1      34.296  18.219   8.195  0.00  0.00     0.050 C 
HETATM    4  C   UNK N   1      31.965  17.594   7.484  0.00  0.00     0.070 A 
HETATM    5  N   UNK N   1      31.511  17.885   8.732  0.00  0.00    -0.191 N 
HETATM    6  C   UNK N   1      30.200  17.749   9.055  0.00  0.00     0.679 A 
HETATM    7  N   UNK N   1      29.765  18.060  10.357  0.00  0.00    -0.234 N 
HETATM    8  N   UNK N   1      29.309  17.314   8.126  0.00  0.00    -0.156 N 
ATOM      9  HN  UNK N   1      28.325  17.215   8.381  1.00  0.00     0.187 HD
HETATM   10  C   UNK N   1      29.710  17.005   6.851  0.00  0.00     0.272 A 
HETATM   11  O   UNK N   1      28.889  16.617   6.038  0.00  0.00    -0.267 OA
HETATM   12  C   UNK N   1      31.060  17.140   6.501  0.00  0.00     0.060 A 
HETATM   13  C   UNK N   1      31.525  16.839   5.213  0.00  0.00     0.019 A 
HETATM   14  C   UNK N   1      32.881  16.988   4.907  0.00  0.00     0.002 A 
HETATM   15  H   UNK N   1      32.146  18.201   9.415  0.00  0.00     0.184 HD
HETATM   16  H   UNK N   1      28.815  17.962  10.596  0.00  0.00     0.174 HD
HETATM   17  H   UNK N   1      30.411  18.375  11.030  0.00  0.00     0.174 HD
ENDROOT
TORSDOF 0
ENDMDL
MODEL 7
REMARK VINA RESULT:      -5.5      9.069     11.109
REMARK  0 active torsions:
REMARK  status: ('A' for Active; 'I' for Inactive)
REMARK       I    between atoms: C_6  and  N_7 
ROOT
HETATM    1  C   UNK N   1      31.283  16.822   3.479  0.00  0.00     0.009 A 
HETATM    2  C   UNK N   1      30.611  16.867   4.704  0.00  0.00    -0.034 A 
HETATM    3  C   UNK N   1      29.147  16.587   4.749  0.00  0.00     0.050 C 
HETATM    4  C   UNK N   1      31.318  17.175   5.876  0.00  0.00     0.070 A 
HETATM    5  N   UNK N   1      30.677  17.222   7.074  0.00  0.00    -0.191 N 
HETATM    6  C   UNK N   1      31.345  17.517   8.218  0.00  0.00     0.679 A 
HETATM    7  N   UNK N   1      30.649  17.557   9.442  0.00  0.00    -0.234 N 
HETATM    8  N   UNK N   1      32.679  17.774   8.185  0.00  0.00    -0.156 N 
ATOM      9  HN  UNK N   1      33.169  17.995   9.053  1.00  0.00     0.187 HD
HETATM   10  C   UNK N   1      33.376  17.741   7.005  0.00  0.00     0.272 A 
HETATM   11  O   UNK N   1      34.572  17.975   7.005  0.00  0.00    -0.267 OA
HETATM   12  C   UNK N   1      32.703  17.437   5.815  0.00  0.00     0.060 A 
HETATM   13  C   UNK N   1      33.367  17.389   4.580  0.00  0.00     0.019 A 
HETATM   14  C   UNK N   1      32.655  17.082   3.416  0.00  0.00     0.002 A 
HETATM   15  H   UNK N   1      29.711  17.038   7.112  0.00  0.00     0.184 HD
HETATM   16  H   UNK N   1      31.129  17.771  10.274  0.00  0.00     0.174 HD
HETATM   17  H   UNK N   1      29.683  17.371   9.465  0.00  0.00     0.174 HD
ENDROOT
TORSDOF 0
ENDMDL
MODEL 8
REMARK VINA RESULT:      -5.4     15.718     17.008
REMARK  0 active torsions:
REMARK  status: ('A' for Active; 'I' for Inactive)
REMARK       I    between atoms: C_6  and  N_7 
ROOT
HETATM    1  C   UNK N   1      40.788  21.495   2.253  0.00  0.00     0.009 A 
HETATM    2  C   UNK N   1      41.483  22.679   1.987  0.00  0.00    -0.034 A 
HETATM    3  C   UNK N   1      40.793  23.790   1.270  0.00  0.00     0.050 C 
HETATM    4  C   UNK N   1      42.819  22.809   2.394  0.00  0.00     0.070 A 
HETATM    5  N   UNK N   1      43.506  23.954   2.142  0.00  0.00    -0.191 N 
HETATM    6  C   UNK N   1      44.800  24.099   2.529  0.00  0.00     0.679 A 
HETATM    7  N   UNK N   1      45.482  25.299   2.252  0.00  0.00    -0.234 N 
HETATM    8  N   UNK N   1      45.435  23.091   3.182  0.00  0.00    -0.156 N 
ATOM      9  HN  UNK N   1      46.407  23.211   3.468  1.00  0.00     0.187 HD
HETATM   10  C   UNK N   1      44.790  21.913   3.463  0.00  0.00     0.272 A 
HETATM   11  O   UNK N   1      45.384  21.026   4.050  0.00  0.00    -0.267 OA
HETATM   12  C   UNK N   1      43.455  21.747   3.071  0.00  0.00     0.060 A 
HETATM   13  C   UNK N   1      42.748  20.565   3.333  0.00  0.00     0.019 A 
HETATM   14  C   UNK N   1      41.417  20.442   2.923  0.00  0.00     0.002 A 
HETATM   15  H   UNK N   1      43.058  24.692   1.670  0.00  0.00     0.184 HD
HETATM   16  H   UNK N   1      46.420  25.408   2.531  0.00  0.00     0.174 HD
HETATM   17  H   UNK N   1      45.021  26.029   1.779  0.00  0.00     0.174 HD
ENDROOT
TORSDOF 0
ENDMDL
MODEL 9
REMARK VINA RESULT:      -5.3     14.342     15.450
REMARK  0 active torsions:
REMARK  status: ('A' for Active; 'I' for Inactive)
REMARK       I    between atoms: C_6  and  N_7 
ROOT
HETATM    1  C   UNK N   1      22.612  11.882  10.518  0.00  0.00     0.009 A 
HETATM    2  C   UNK N   1      23.051  12.649   9.435  0.00  0.00    -0.034 A 
HETATM    3  C   UNK N   1      24.393  12.382   8.842  0.00  0.00     0.050 C 
HETATM    4  C   UNK N   1      22.227  13.660   8.917  0.00  0.00     0.070 A 
HETATM    5  N   UNK N   1      22.641  14.413   7.864  0.00  0.00    -0.191 N 
HETATM    6  C   UNK N   1      21.857  15.395   7.350  0.00  0.00     0.679 A 
HETATM    7  N   UNK N   1      22.318  16.156   6.259  0.00  0.00    -0.234 N 
HETATM    8  N   UNK N   1      20.633  15.644   7.885  0.00  0.00    -0.156 N 
ATOM      9  HN  UNK N   1      20.054  16.385   7.489  1.00  0.00     0.187 HD
HETATM   10  C   UNK N   1      20.165  14.915   8.948  0.00  0.00     0.272 A 
HETATM   11  O   UNK N   1      19.063  15.160   9.408  0.00  0.00    -0.267 OA
HETATM   12  C   UNK N   1      20.960  13.898   9.491  0.00  0.00     0.060 A 
HETATM   13  C   UNK N   1      20.531  13.122  10.577  0.00  0.00     0.019 A 
HETATM   14  C   UNK N   1      21.357  12.116  11.088  0.00  0.00     0.002 A 
HETATM   15  H   UNK N   1      23.526  14.243   7.467  0.00  0.00     0.184 HD
HETATM   16  H   UNK N   1      21.753  16.869   5.883  0.00  0.00     0.174 HD
HETATM   17  H   UNK N   1      23.205  15.975   5.872  0.00  0.00     0.174 HD
ENDROOT
TORSDOF 0
ENDMDL
