MODEL 1
REMARK VINA RESULT:      -5.6      0.000      0.000
REMARK  5 active torsions:
REMARK  status: ('A' for Active; 'I' for Inactive)
REMARK    1  A    between atoms: C_2  and  O_3 
REMARK    2  A    between atoms: C_4  and  C_2 
REMARK       I    between atoms: N_8  and  C_9 
REMARK    3  A    between atoms: C_9  and  C_11 
REMARK    4  A    between atoms: C_11  and  C_13 
REMARK    5  A    between atoms: C_13  and  S_14 
ROOT
HETATM    1  C   UNK N   1      33.563  17.495   8.887  0.00  0.00     0.185 C 
HETATM    2  C   UNK N   1      32.359  16.997   8.089  0.00  0.00     0.038 C 
HETATM    3  C   UNK N   1      32.087  15.577   8.557  0.00  0.00     0.022 C 
HETATM    4  C   UNK N   1      33.385  15.095   9.170  0.00  0.00     0.127 C 
HETATM    5  N   UNK N   1      34.141  16.284   9.447  0.00  0.00    -0.337 N 
HETATM    6  C   UNK N   1      35.269  16.251  10.231  0.00  0.00     0.225 C 
HETATM    7  O   UNK N   1      35.893  17.275  10.452  0.00  0.00    -0.273 OA
ENDROOT
BRANCH   1   8
HETATM    8  C   UNK N   1      34.501  18.286   7.990  0.00  0.00     0.163 C 
HETATM    9  O   UNK N   1      34.513  18.102   6.782  0.00  0.00    -0.648 OA
BRANCH   8  10
HETATM   10  O   UNK N   1      35.279  19.255   8.508  0.00  0.00    -0.775 OA
HETATM   11  H   UNK N   1      34.930  19.903   9.089  0.00  0.00     0.167 HD
ENDBRANCH   8  10
ENDBRANCH   1   8
BRANCH   6  12
HETATM   12  C   UNK N   1      35.753  14.943  10.843  0.00  0.00     0.083 C 
HETATM   13  C   UNK N   1      35.931  15.131  12.343  0.00  0.00     0.020 C 
BRANCH  12  14
HETATM   14  C   UNK N   1      37.081  14.489  10.234  0.00  0.00     0.084 C 
BRANCH  14  15
HETATM   15  S   UNK N   1      37.679  12.943  10.993  0.00  0.00    -0.181 SA
HETATM   16  H   UNK N   1      38.693  12.905  11.898  0.00  0.00     0.101 HD
ENDBRANCH  14  15
ENDBRANCH  12  14
ENDBRANCH   6  12
TORSDOF 5
ENDMDL
MODEL 2
REMARK VINA RESULT:      -4.9     13.642     15.107
REMARK  5 active torsions:
REMARK  status: ('A' for Active; 'I' for Inactive)
REMARK    1  A    between atoms: C_2  and  O_3 
REMARK    2  A    between atoms: C_4  and  C_2 
REMARK       I    between atoms: N_8  and  C_9 
REMARK    3  A    between atoms: C_9  and  C_11 
REMARK    4  A    between atoms: C_11  and  C_13 
REMARK    5  A    between atoms: C_13  and  S_14 
ROOT
HETATM    1  C   UNK N   1      20.377  16.522   8.640  0.00  0.00     0.185 C 
HETATM    2  C   UNK N   1      20.245  15.021   8.890  0.00  0.00     0.038 C 
HETATM    3  C   UNK N   1      21.039  14.328   7.796  0.00  0.00     0.022 C 
HETATM    4  C   UNK N   1      21.151  15.337   6.673  0.00  0.00     0.127 C 
HETATM    5  N   UNK N   1      20.870  16.611   7.275  0.00  0.00    -0.337 N 
HETATM    6  C   UNK N   1      21.120  17.788   6.612  0.00  0.00     0.225 C 
HETATM    7  O   UNK N   1      20.873  18.857   7.145  0.00  0.00    -0.273 OA
ENDROOT
BRANCH   1   8
HETATM    8  C   UNK N   1      19.046  17.217   8.876  0.00  0.00     0.163 C 
HETATM    9  O   UNK N   1      17.992  16.635   8.668  0.00  0.00    -0.648 OA
BRANCH   8  10
HETATM   10  O   UNK N   1      19.011  18.461   9.390  0.00  0.00    -0.775 OA
HETATM   11  H   UNK N   1      18.199  18.876   9.608  0.00  0.00     0.167 HD
ENDBRANCH   8  10
ENDBRANCH   1   8
BRANCH   6  12
HETATM   12  C   UNK N   1      21.715  17.781   5.210  0.00  0.00     0.083 C 
HETATM   13  C   UNK N   1      23.217  18.016   5.306  0.00  0.00     0.020 C 
BRANCH  12  14
HETATM   14  C   UNK N   1      21.093  18.862   4.324  0.00  0.00     0.084 C 
BRANCH  14  15
HETATM   15  S   UNK N   1      20.044  18.144   3.018  0.00  0.00    -0.181 SA
HETATM   16  H   UNK N   1      19.657  16.840   3.010  0.00  0.00     0.101 HD
ENDBRANCH  14  15
ENDBRANCH  12  14
ENDBRANCH   6  12
TORSDOF 5
ENDMDL
MODEL 3
REMARK VINA RESULT:      -4.6      1.982      2.094
REMARK  5 active torsions:
REMARK  status: ('A' for Active; 'I' for Inactive)
REMARK    1  A    between atoms: C_2  and  O_3 
REMARK    2  A    between atoms: C_4  and  C_2 
REMARK       I    between atoms: N_8  and  C_9 
REMARK    3  A    between atoms: C_9  and  C_11 
REMARK    4  A    between atoms: C_11  and  C_13 
REMARK    5  A    between atoms: C_13  and  S_14 
ROOT
HETATM    1  C   UNK N   1      33.394  17.531   8.829  0.00  0.00     0.185 C 
HETATM    2  C   UNK N   1      31.993  17.867   8.321  0.00  0.00     0.038 C 
HETATM    3  C   UNK N   1      31.183  16.583   8.401  0.00  0.00     0.022 C 
HETATM    4  C   UNK N   1      32.200  15.462   8.421  0.00  0.00     0.127 C 
HETATM    5  N   UNK N   1      33.441  16.078   8.800  0.00  0.00    -0.337 N 
HETATM    6  C   UNK N   1      34.534  15.327   9.159  0.00  0.00     0.225 C 
HETATM    7  O   UNK N   1      35.577  15.875   9.478  0.00  0.00    -0.273 OA
ENDROOT
BRANCH   1   8
HETATM    8  C   UNK N   1      34.446  18.213   7.971  0.00  0.00     0.163 C 
HETATM    9  O   UNK N   1      34.527  17.975   6.775  0.00  0.00    -0.648 OA
BRANCH   8  10
HETATM   10  O   UNK N   1      35.255  19.149   8.504  0.00  0.00    -0.775 OA
HETATM   11  H   UNK N   1      35.068  20.063   8.415  0.00  0.00     0.167 HD
ENDBRANCH   8  10
ENDBRANCH   1   8
BRANCH   6  12
HETATM   12  C   UNK N   1      34.463  13.807   9.176  0.00  0.00     0.083 C 
HETATM   13  C   UNK N   1      34.786  13.308  10.578  0.00  0.00     0.020 C 
BRANCH  12  14
HETATM   14  C   UNK N   1      35.444  13.181   8.183  0.00  0.00     0.084 C 
BRANCH  14  15
HETATM   15  S   UNK N   1      35.067  13.662   6.466  0.00  0.00    -0.181 SA
HETATM   16  H   UNK N   1      34.460  14.835   6.140  0.00  0.00     0.101 HD
ENDBRANCH  14  15
ENDBRANCH  12  14
ENDBRANCH   6  12
TORSDOF 5
ENDMDL
MODEL 4
REMARK VINA RESULT:      -4.4      2.588      4.906
REMARK  5 active torsions:
REMARK  status: ('A' for Active; 'I' for Inactive)
REMARK    1  A    between atoms: C_2  and  O_3 
REMARK    2  A    between atoms: C_4  and  C_2 
REMARK       I    between atoms: N_8  and  C_9 
REMARK    3  A    between atoms: C_9  and  C_11 
REMARK    4  A    between atoms: C_11  and  C_13 
REMARK    5  A    between atoms: C_13  and  S_14 
ROOT
HETATM    1  C   UNK N   1      36.421  14.765  10.753  0.00  0.00     0.185 C 
HETATM    2  C   UNK N   1      36.908  13.408  10.250  0.00  0.00     0.038 C 
HETATM    3  C   UNK N   1      36.706  13.406   8.744  0.00  0.00     0.022 C 
HETATM    4  C   UNK N   1      35.658  14.464   8.472  0.00  0.00     0.127 C 
HETATM    5  N   UNK N   1      35.640  15.292   9.646  0.00  0.00    -0.337 N 
HETATM    6  C   UNK N   1      34.985  16.500   9.661  0.00  0.00     0.225 C 
HETATM    7  O   UNK N   1      34.985  17.186  10.670  0.00  0.00    -0.273 OA
ENDROOT
BRANCH   1   8
HETATM    8  C   UNK N   1      35.646  14.602  12.050  0.00  0.00     0.163 C 
HETATM    9  O   UNK N   1      36.162  14.875  13.124  0.00  0.00    -0.648 OA
BRANCH   8  10
HETATM   10  O   UNK N   1      34.354  14.226  12.027  0.00  0.00    -0.775 OA
HETATM   11  H   UNK N   1      33.796  14.443  11.305  0.00  0.00     0.167 HD
ENDBRANCH   8  10
ENDBRANCH   1   8
BRANCH   6  12
HETATM   12  C   UNK N   1      34.260  17.008   8.423  0.00  0.00     0.083 C 
HETATM   13  C   UNK N   1      34.624  18.469   8.195  0.00  0.00     0.020 C 
BRANCH  12  14
HETATM   14  C   UNK N   1      32.741  16.887   8.564  0.00  0.00     0.084 C 
BRANCH  14  15
HETATM   15  S   UNK N   1      32.075  15.521   7.559  0.00  0.00    -0.181 SA
HETATM   16  H   UNK N   1      31.235  15.714   6.507  0.00  0.00     0.101 HD
ENDBRANCH  14  15
ENDBRANCH  12  14
ENDBRANCH   6  12
TORSDOF 5
ENDMDL
MODEL 5
REMARK VINA RESULT:      -4.4     19.336     20.428
REMARK  5 active torsions:
REMARK  status: ('A' for Active; 'I' for Inactive)
REMARK    1  A    between atoms: C_2  and  O_3 
REMARK    2  A    between atoms: C_4  and  C_2 
REMARK       I    between atoms: N_8  and  C_9 
REMARK    3  A    between atoms: C_9  and  C_11 
REMARK    4  A    between atoms: C_11  and  C_13 
REMARK    5  A    between atoms: C_13  and  S_14 
ROOT
HETATM    1  C   UNK N   1      25.971  27.520  -5.192  0.00  0.00     0.185 C 
HETATM    2  C   UNK N   1      26.973  28.651  -5.418  0.00  0.00     0.038 C 
HETATM    3  C   UNK N   1      27.701  28.331  -6.713  0.00  0.00     0.022 C 
HETATM    4  C   UNK N   1      27.528  26.841  -6.921  0.00  0.00     0.127 C 
HETATM    5  N   UNK N   1      26.418  26.467  -6.089  0.00  0.00    -0.337 N 
HETATM    6  C   UNK N   1      25.816  25.238  -6.208  0.00  0.00     0.225 C 
HETATM    7  O   UNK N   1      24.874  24.943  -5.491  0.00  0.00    -0.273 OA
ENDROOT
BRANCH   1   8
HETATM    8  C   UNK N   1      25.940  27.126  -3.724  0.00  0.00     0.163 C 
HETATM    9  O   UNK N   1      25.449  27.870  -2.888  0.00  0.00    -0.648 OA
BRANCH   8  10
HETATM   10  O   UNK N   1      26.384  25.916  -3.336  0.00  0.00    -0.775 OA
HETATM   11  H   UNK N   1      27.297  25.755  -3.192  0.00  0.00     0.167 HD
ENDBRANCH   8  10
ENDBRANCH   1   8
BRANCH   6  12
HETATM   12  C   UNK N   1      26.305  24.228  -7.237  0.00  0.00     0.083 C 
HETATM   13  C   UNK N   1      25.446  24.336  -8.489  0.00  0.00     0.020 C 
BRANCH  12  14
HETATM   14  C   UNK N   1      26.235  22.795  -6.704  0.00  0.00     0.084 C 
BRANCH  14  15
HETATM   15  S   UNK N   1      25.109  21.760  -7.696  0.00  0.00    -0.181 SA
HETATM   16  H   UNK N   1      24.234  20.877  -7.144  0.00  0.00     0.101 HD
ENDBRANCH  14  15
ENDBRANCH  12  14
ENDBRANCH   6  12
TORSDOF 5
ENDMDL
MODEL 6
REMARK VINA RESULT:      -4.3     13.280     14.963
REMARK  5 active torsions:
REMARK  status: ('A' for Active; 'I' for Inactive)
REMARK    1  A    between atoms: C_2  and  O_3 
REMARK    2  A    between atoms: C_4  and  C_2 
REMARK       I    between atoms: N_8  and  C_9 
REMARK    3  A    between atoms: C_9  and  C_11 
REMARK    4  A    between atoms: C_11  and  C_13 
REMARK    5  A    between atoms: C_13  and  S_14 
ROOT
HETATM    1  C   UNK N   1      20.278  19.182   2.240  0.00  0.00     0.185 C 
HETATM    2  C   UNK N   1      20.137  18.406   0.932  0.00  0.00     0.038 C 
HETATM    3  C   UNK N   1      20.250  16.933   1.288  0.00  0.00     0.022 C 
HETATM    4  C   UNK N   1      20.967  16.890   2.620  0.00  0.00     0.127 C 
HETATM    5  N   UNK N   1      20.833  18.211   3.169  0.00  0.00    -0.337 N 
HETATM    6  C   UNK N   1      21.147  18.478   4.479  0.00  0.00     0.225 C 
HETATM    7  O   UNK N   1      21.023  19.608   4.922  0.00  0.00    -0.273 OA
ENDROOT
BRANCH   1   8
HETATM    8  C   UNK N   1      21.138  20.418   2.032  0.00  0.00     0.163 C 
HETATM    9  O   UNK N   1      21.862  20.517   1.053  0.00  0.00    -0.648 OA
BRANCH   8  10
HETATM   10  O   UNK N   1      21.056  21.454   2.888  0.00  0.00    -0.775 OA
HETATM   11  H   UNK N   1      20.913  21.320   3.804  0.00  0.00     0.167 HD
ENDBRANCH   8  10
ENDBRANCH   1   8
BRANCH   6  12
HETATM   12  C   UNK N   1      21.646  17.374   5.401  0.00  0.00     0.083 C 
HETATM   13  C   UNK N   1      21.058  17.581   6.791  0.00  0.00     0.020 C 
BRANCH  12  14
HETATM   14  C   UNK N   1      23.173  17.362   5.500  0.00  0.00     0.084 C 
BRANCH  14  15
HETATM   15  S   UNK N   1      23.808  15.712   5.944  0.00  0.00    -0.181 SA
HETATM   16  H   UNK N   1      25.042  15.512   6.480  0.00  0.00     0.101 HD
ENDBRANCH  14  15
ENDBRANCH  12  14
ENDBRANCH   6  12
TORSDOF 5
ENDMDL
MODEL 7
REMARK VINA RESULT:      -4.2      5.567      7.435
REMARK  5 active torsions:
REMARK  status: ('A' for Active; 'I' for Inactive)
REMARK    1  A    between atoms: C_2  and  O_3 
REMARK    2  A    between atoms: C_4  and  C_2 
REMARK       I    between atoms: N_8  and  C_9 
REMARK    3  A    between atoms: C_9  and  C_11 
REMARK    4  A    between atoms: C_11  and  C_13 
REMARK    5  A    between atoms: C_13  and  S_14 
ROOT
HETATM    1  C   UNK N   1      35.830  12.064  12.991  0.00  0.00     0.185 C 
HETATM    2  C   UNK N   1      37.092  11.573  12.284  0.00  0.00     0.038 C 
HETATM    3  C   UNK N   1      37.873  10.762  13.304  0.00  0.00     0.022 C 
HETATM    4  C   UNK N   1      37.376  11.224  14.658  0.00  0.00     0.127 C 
HETATM    5  N   UNK N   1      36.117  11.868  14.403  0.00  0.00    -0.337 N 
HETATM    6  C   UNK N   1      35.259  12.193  15.425  0.00  0.00     0.225 C 
HETATM    7  O   UNK N   1      34.195  12.739  15.183  0.00  0.00    -0.273 OA
ENDROOT
BRANCH   1   8
HETATM    8  C   UNK N   1      35.531  13.502  12.603  0.00  0.00     0.163 C 
HETATM    9  O   UNK N   1      36.431  14.324  12.508  0.00  0.00    -0.648 OA
BRANCH   8  10
HETATM   10  O   UNK N   1      34.277  13.873  12.284  0.00  0.00    -0.775 OA
HETATM   11  H   UNK N   1      34.090  14.321  11.482  0.00  0.00     0.167 HD
ENDBRANCH   8  10
ENDBRANCH   1   8
BRANCH   6  12
HETATM   12  C   UNK N   1      35.612  11.873  16.871  0.00  0.00     0.083 C 
HETATM   13  C   UNK N   1      34.973  10.547  17.258  0.00  0.00     0.020 C 
BRANCH  12  14
HETATM   14  C   UNK N   1      35.125  12.963  17.829  0.00  0.00     0.084 C 
BRANCH  14  15
HETATM   15  S   UNK N   1      35.280  12.448  19.571  0.00  0.00    -0.181 SA
HETATM   16  H   UNK N   1      34.478  11.510  20.142  0.00  0.00     0.101 HD
ENDBRANCH  14  15
ENDBRANCH  12  14
ENDBRANCH   6  12
TORSDOF 5
ENDMDL
MODEL 8
REMARK VINA RESULT:      -4.2      4.852      6.175
REMARK  5 active torsions:
REMARK  status: ('A' for Active; 'I' for Inactive)
REMARK    1  A    between atoms: C_2  and  O_3 
REMARK    2  A    between atoms: C_4  and  C_2 
REMARK       I    between atoms: N_8  and  C_9 
REMARK    3  A    between atoms: C_9  and  C_11 
REMARK    4  A    between atoms: C_11  and  C_13 
REMARK    5  A    between atoms: C_13  and  S_14 
ROOT
HETATM    1  C   UNK N   1      28.192  17.897   6.550  0.00  0.00     0.185 C 
HETATM    2  C   UNK N   1      27.808  18.110   5.087  0.00  0.00     0.038 C 
HETATM    3  C   UNK N   1      28.921  17.498   4.253  0.00  0.00     0.022 C 
HETATM    4  C   UNK N   1      30.128  17.440   5.166  0.00  0.00     0.127 C 
HETATM    5  N   UNK N   1      29.605  17.557   6.499  0.00  0.00    -0.337 N 
HETATM    6  C   UNK N   1      30.384  17.298   7.600  0.00  0.00     0.225 C 
HETATM    7  O   UNK N   1      29.916  17.403   8.722  0.00  0.00    -0.273 OA
ENDROOT
BRANCH   1   8
HETATM    8  C   UNK N   1      27.872  19.137   7.368  0.00  0.00     0.163 C 
HETATM    9  O   UNK N   1      27.869  20.244   6.849  0.00  0.00    -0.648 OA
BRANCH   8  10
HETATM   10  O   UNK N   1      27.512  19.025   8.660  0.00  0.00    -0.775 OA
HETATM   11  H   UNK N   1      26.667  18.700   8.905  0.00  0.00     0.167 HD
ENDBRANCH   8  10
ENDBRANCH   1   8
BRANCH   6  12
HETATM   12  C   UNK N   1      31.836  16.867   7.443  0.00  0.00     0.083 C 
HETATM   13  C   UNK N   1      31.911  15.347   7.468  0.00  0.00     0.020 C 
BRANCH  12  14
HETATM   14  C   UNK N   1      32.720  17.431   8.558  0.00  0.00     0.084 C 
BRANCH  14  15
HETATM   15  S   UNK N   1      34.298  18.073   7.910  0.00  0.00    -0.181 SA
HETATM   16  H   UNK N   1      35.082  17.377   7.044  0.00  0.00     0.101 HD
ENDBRANCH  14  15
ENDBRANCH  12  14
ENDBRANCH   6  12
TORSDOF 5
ENDMDL
MODEL 9
REMARK VINA RESULT:      -4.2      2.784      3.714
REMARK  5 active torsions:
REMARK  status: ('A' for Active; 'I' for Inactive)
REMARK    1  A    between atoms: C_2  and  O_3 
REMARK    2  A    between atoms: C_4  and  C_2 
REMARK       I    between atoms: N_8  and  C_9 
REMARK    3  A    between atoms: C_9  and  C_11 
REMARK    4  A    between atoms: C_11  and  C_13 
REMARK    5  A    between atoms: C_13  and  S_14 
ROOT
HETATM    1  C   UNK N   1      34.753  15.027  10.275  0.00  0.00     0.185 C 
HETATM    2  C   UNK N   1      34.765  14.837   8.759  0.00  0.00     0.038 C 
HETATM    3  C   UNK N   1      34.766  13.338   8.509  0.00  0.00     0.022 C 
HETATM    4  C   UNK N   1      35.287  12.714   9.787  0.00  0.00     0.127 C 
HETATM    5  N   UNK N   1      35.131  13.724  10.797  0.00  0.00    -0.337 N 
HETATM    6  C   UNK N   1      35.269  13.430  12.132  0.00  0.00     0.225 C 
HETATM    7  O   UNK N   1      35.130  14.305  12.970  0.00  0.00    -0.273 OA
ENDROOT
BRANCH   1   8
HETATM    8  C   UNK N   1      35.684  16.160  10.674  0.00  0.00     0.163 C 
HETATM    9  O   UNK N   1      35.252  17.288  10.856  0.00  0.00    -0.648 OA
BRANCH   8  10
HETATM   10  O   UNK N   1      36.987  15.917  10.907  0.00  0.00    -0.775 OA
HETATM   11  H   UNK N   1      37.273  15.109  11.287  0.00  0.00     0.167 HD
ENDBRANCH   8  10
ENDBRANCH   1   8
BRANCH   6  12
HETATM   12  C   UNK N   1      35.586  12.013  12.588  0.00  0.00     0.083 C 
HETATM   13  C   UNK N   1      34.492  11.536  13.533  0.00  0.00     0.020 C 
BRANCH  12  14
HETATM   14  C   UNK N   1      36.936  11.936  13.306  0.00  0.00     0.084 C 
BRANCH  14  15
HETATM   15  S   UNK N   1      36.737  11.582  15.082  0.00  0.00    -0.181 SA
HETATM   16  H   UNK N   1      37.594  10.792  15.782  0.00  0.00     0.101 HD
ENDBRANCH  14  15
ENDBRANCH  12  14
ENDBRANCH   6  12
TORSDOF 5
ENDMDL
