MODEL 1
REMARK VINA RESULT:      -7.3      0.000      0.000
REMARK  6 active torsions:
REMARK  status: ('A' for Active; 'I' for Inactive)
REMARK    1  A    between atoms: N_5  and  C_8 
REMARK    2  A    between atoms: C_9  and  N_10 
REMARK       I    between atoms: N_10  and  C_11 
REMARK    3  A    between atoms: C_11  and  C_16 
REMARK    4  A    between atoms: C_22  and  N_23 
REMARK    5  A    between atoms: N_23  and  C_25 
REMARK    6  A    between atoms: N_23  and  C_27 
ROOT
HETATM    1  O   UNK N   1      25.316  17.462   4.616  0.00  0.00    -0.274 OA
HETATM    2  C   UNK N   1      24.268  17.923   3.947  0.00  0.00     0.304 A 
HETATM    3  O   UNK N   1      23.489  17.119   3.464  0.00  0.00    -0.259 OA
HETATM    4  C   UNK N   1      24.057  19.324   3.808  0.00  0.00     0.108 A 
HETATM    5  C   UNK N   1      24.996  20.189   4.378  0.00  0.00     0.037 A 
HETATM    6  C   UNK N   1      26.085  19.660   5.068  0.00  0.00    -0.001 A 
HETATM    7  C   UNK N   1      26.209  18.262   5.178  0.00  0.00     0.091 A 
HETATM    8  C   UNK N   1      27.044  20.491   5.650  0.00  0.00     0.016 A 
HETATM    9  C   UNK N   1      28.128  19.929   6.334  0.00  0.00     0.030 A 
HETATM   10  C   UNK N   1      28.252  18.531   6.463  0.00  0.00     0.032 A 
HETATM   11  C   UNK N   1      27.279  17.709   5.876  0.00  0.00     0.067 A 
ENDROOT
BRANCH   4  12
HETATM   12  C   UNK N   1      22.843  19.869   3.145  0.00  0.00     0.261 C 
HETATM   13  N   UNK N   1      21.668  19.250   3.371  0.00  0.00    -0.331 N 
HETATM   14  H   UNK N   1      21.712  18.383   3.834  0.00  0.00     0.168 HD
HETATM   15  O   UNK N   1      22.887  20.913   2.508  0.00  0.00    -0.267 OA
BRANCH  13  16
HETATM   16  C   UNK N   1      20.385  19.711   3.016  0.00  0.00     0.109 C 
HETATM   17  C   UNK N   1      19.585  18.864   2.348  0.00  0.00     0.120 C 
BRANCH  17  18
HETATM   18  N   UNK N   1      19.940  17.482   2.179  0.00  0.00    -0.262 N 
HETATM   19  C   UNK N   1      19.975  16.542   3.140  0.00  0.00     0.231 A 
HETATM   20  C   UNK N   1      20.420  15.206   2.639  0.00  0.00     0.113 A 
HETATM   21  O   UNK N   1      19.653  16.750   4.302  0.00  0.00    -0.273 OA
HETATM   22  C   UNK N   1      20.645  15.484   1.128  0.00  0.00     0.113 A 
HETATM   23  C   UNK N   1      20.293  16.935   1.013  0.00  0.00     0.231 A 
HETATM   24  O   UNK N   1      20.346  17.567  -0.031  0.00  0.00    -0.273 OA
ENDBRANCH  17  18
ENDBRANCH  13  16
ENDBRANCH   4  12
BRANCH  10  25
HETATM   25  N   UNK N   1      29.368  17.947   7.147  0.00  0.00    -0.382 N 
BRANCH  25  26
HETATM   26  C   UNK N   1      29.657  18.274   8.525  0.00  0.00     0.118 C 
HETATM   27  C   UNK N   1      28.487  17.925   9.427  0.00  0.00     0.026 C 
ENDBRANCH  25  26
BRANCH  25  28
HETATM   28  C   UNK N   1      30.318  17.112   6.444  0.00  0.00     0.118 C 
HETATM   29  C   UNK N   1      31.635  17.053   7.199  0.00  0.00     0.026 C 
ENDBRANCH  25  28
ENDBRANCH  10  25
TORSDOF 6
ENDMDL
MODEL 2
REMARK VINA RESULT:      -7.2      6.122     11.951
REMARK  6 active torsions:
REMARK  status: ('A' for Active; 'I' for Inactive)
REMARK    1  A    between atoms: N_5  and  C_8 
REMARK    2  A    between atoms: C_9  and  N_10 
REMARK       I    between atoms: N_10  and  C_11 
REMARK    3  A    between atoms: C_11  and  C_16 
REMARK    4  A    between atoms: C_22  and  N_23 
REMARK    5  A    between atoms: N_23  and  C_25 
REMARK    6  A    between atoms: N_23  and  C_27 
ROOT
HETATM    1  O   UNK N   1      32.283  17.237   5.589  0.00  0.00    -0.274 OA
HETATM    2  C   UNK N   1      33.327  17.402   6.391  0.00  0.00     0.304 A 
HETATM    3  O   UNK N   1      34.444  17.356   5.906  0.00  0.00    -0.259 OA
HETATM    4  C   UNK N   1      33.138  17.639   7.782  0.00  0.00     0.108 A 
HETATM    5  C   UNK N   1      31.829  17.669   8.272  0.00  0.00     0.037 A 
HETATM    6  C   UNK N   1      30.764  17.484   7.393  0.00  0.00    -0.001 A 
HETATM    7  C   UNK N   1      31.035  17.277   6.027  0.00  0.00     0.091 A 
HETATM    8  C   UNK N   1      29.443  17.506   7.844  0.00  0.00     0.016 A 
HETATM    9  C   UNK N   1      28.395  17.315   6.937  0.00  0.00     0.030 A 
HETATM   10  C   UNK N   1      28.656  17.122   5.566  0.00  0.00     0.032 A 
HETATM   11  C   UNK N   1      29.987  17.106   5.126  0.00  0.00     0.067 A 
ENDROOT
BRANCH   4  12
HETATM   12  C   UNK N   1      34.283  17.922   8.688  0.00  0.00     0.261 C 
HETATM   13  N   UNK N   1      34.506  17.072   9.708  0.00  0.00    -0.331 N 
HETATM   14  H   UNK N   1      33.804  16.405   9.884  0.00  0.00     0.168 HD
HETATM   15  O   UNK N   1      35.067  18.831   8.449  0.00  0.00    -0.267 OA
BRANCH  13  16
HETATM   16  C   UNK N   1      35.635  17.035  10.550  0.00  0.00     0.109 C 
HETATM   17  C   UNK N   1      36.068  15.829  10.954  0.00  0.00     0.120 C 
BRANCH  17  18
HETATM   18  N   UNK N   1      35.532  14.620  10.393  0.00  0.00    -0.262 N 
HETATM   19  C   UNK N   1      35.629  14.220   9.113  0.00  0.00     0.231 A 
HETATM   20  C   UNK N   1      34.931  12.926   8.846  0.00  0.00     0.113 A 
HETATM   21  O   UNK N   1      36.248  14.837   8.256  0.00  0.00    -0.273 OA
HETATM   22  C   UNK N   1      34.374  12.562  10.249  0.00  0.00     0.113 A 
HETATM   23  C   UNK N   1      34.846  13.710  11.088  0.00  0.00     0.231 A 
HETATM   24  O   UNK N   1      34.608  13.822  12.282  0.00  0.00    -0.273 OA
ENDBRANCH  17  18
ENDBRANCH  13  16
ENDBRANCH   4  12
BRANCH  10  25
HETATM   25  N   UNK N   1      27.589  16.908   4.632  0.00  0.00    -0.382 N 
BRANCH  25  26
HETATM   26  C   UNK N   1      26.636  17.953   4.332  0.00  0.00     0.118 C 
HETATM   27  C   UNK N   1      27.339  19.264   4.033  0.00  0.00     0.026 C 
ENDBRANCH  25  26
BRANCH  25  28
HETATM   28  C   UNK N   1      27.353  15.601   4.059  0.00  0.00     0.118 C 
HETATM   29  C   UNK N   1      27.181  15.704   2.553  0.00  0.00     0.026 C 
ENDBRANCH  25  28
ENDBRANCH  10  25
TORSDOF 6
ENDMDL
MODEL 3
REMARK VINA RESULT:      -7.1      9.859     14.117
REMARK  6 active torsions:
REMARK  status: ('A' for Active; 'I' for Inactive)
REMARK    1  A    between atoms: N_5  and  C_8 
REMARK    2  A    between atoms: C_9  and  N_10 
REMARK       I    between atoms: N_10  and  C_11 
REMARK    3  A    between atoms: C_11  and  C_16 
REMARK    4  A    between atoms: C_22  and  N_23 
REMARK    5  A    between atoms: N_23  and  C_25 
REMARK    6  A    between atoms: N_23  and  C_27 
ROOT
HETATM    1  O   UNK N   1      34.910  14.427  12.120  0.00  0.00    -0.274 OA
HETATM    2  C   UNK N   1      35.141  14.608  10.826  0.00  0.00     0.304 A 
HETATM    3  O   UNK N   1      34.500  15.460  10.236  0.00  0.00    -0.259 OA
HETATM    4  C   UNK N   1      36.123  13.829  10.151  0.00  0.00     0.108 A 
HETATM    5  C   UNK N   1      36.813  12.861  10.887  0.00  0.00     0.037 A 
HETATM    6  C   UNK N   1      36.533  12.703  12.243  0.00  0.00    -0.001 A 
HETATM    7  C   UNK N   1      35.562  13.529  12.840  0.00  0.00     0.091 A 
HETATM    8  C   UNK N   1      37.201  11.747  13.011  0.00  0.00     0.016 A 
HETATM    9  C   UNK N   1      36.896  11.611  14.371  0.00  0.00     0.030 A 
HETATM   10  C   UNK N   1      35.936  12.444  14.980  0.00  0.00     0.032 A 
HETATM   11  C   UNK N   1      35.277  13.402  14.197  0.00  0.00     0.067 A 
ENDROOT
BRANCH   4  12
HETATM   12  C   UNK N   1      36.469  14.073   8.726  0.00  0.00     0.261 C 
HETATM   13  N   UNK N   1      35.476  14.418   7.885  0.00  0.00    -0.331 N 
HETATM   14  H   UNK N   1      34.558  14.335   8.232  0.00  0.00     0.168 HD
HETATM   15  O   UNK N   1      37.634  14.073   8.351  0.00  0.00    -0.267 OA
BRANCH  13  16
HETATM   16  C   UNK N   1      35.609  14.887   6.562  0.00  0.00     0.109 C 
HETATM   17  C   UNK N   1      34.659  15.716   6.101  0.00  0.00     0.120 C 
BRANCH  17  18
HETATM   18  N   UNK N   1      33.660  16.265   6.975  0.00  0.00    -0.262 N 
HETATM   19  C   UNK N   1      32.557  15.638   7.423  0.00  0.00     0.231 A 
HETATM   20  C   UNK N   1      31.703  16.503   8.292  0.00  0.00     0.113 A 
HETATM   21  O   UNK N   1      32.290  14.472   7.168  0.00  0.00    -0.273 OA
HETATM   22  C   UNK N   1      32.510  17.828   8.327  0.00  0.00     0.113 A 
HETATM   23  C   UNK N   1      33.695  17.504   7.470  0.00  0.00     0.231 A 
HETATM   24  O   UNK N   1      34.593  18.296   7.223  0.00  0.00    -0.273 OA
ENDBRANCH  17  18
ENDBRANCH  13  16
ENDBRANCH   4  12
BRANCH  10  25
HETATM   25  N   UNK N   1      35.606  12.299  16.368  0.00  0.00    -0.382 N 
BRANCH  25  26
HETATM   26  C   UNK N   1      35.892  11.076  17.082  0.00  0.00     0.118 C 
HETATM   27  C   UNK N   1      34.787  10.055  16.883  0.00  0.00     0.026 C 
ENDBRANCH  25  26
BRANCH  25  28
HETATM   28  C   UNK N   1      34.858  13.324  17.065  0.00  0.00     0.118 C 
HETATM   29  C   UNK N   1      35.219  13.333  18.541  0.00  0.00     0.026 C 
ENDBRANCH  25  28
ENDBRANCH  10  25
TORSDOF 6
ENDMDL
MODEL 4
REMARK VINA RESULT:      -7.0      9.300     13.497
REMARK  6 active torsions:
REMARK  status: ('A' for Active; 'I' for Inactive)
REMARK    1  A    between atoms: N_5  and  C_8 
REMARK    2  A    between atoms: C_9  and  N_10 
REMARK       I    between atoms: N_10  and  C_11 
REMARK    3  A    between atoms: C_11  and  C_16 
REMARK    4  A    between atoms: C_22  and  N_23 
REMARK    5  A    between atoms: N_23  and  C_25 
REMARK    6  A    between atoms: N_23  and  C_27 
ROOT
HETATM    1  O   UNK N   1      35.014  13.028  11.218  0.00  0.00    -0.274 OA
HETATM    2  C   UNK N   1      34.823  14.075  10.426  0.00  0.00     0.304 A 
HETATM    3  O   UNK N   1      34.326  13.890   9.329  0.00  0.00    -0.259 OA
HETATM    4  C   UNK N   1      35.180  15.383  10.859  0.00  0.00     0.108 A 
HETATM    5  C   UNK N   1      35.755  15.522  12.126  0.00  0.00     0.037 A 
HETATM    6  C   UNK N   1      35.942  14.392  12.920  0.00  0.00    -0.001 A 
HETATM    7  C   UNK N   1      35.541  13.137  12.427  0.00  0.00     0.091 A 
HETATM    8  C   UNK N   1      36.513  14.490  14.191  0.00  0.00     0.016 A 
HETATM    9  C   UNK N   1      36.689  13.337  14.964  0.00  0.00     0.030 A 
HETATM   10  C   UNK N   1      36.277  12.078  14.484  0.00  0.00     0.032 A 
HETATM   11  C   UNK N   1      35.702  11.995  13.208  0.00  0.00     0.067 A 
ENDROOT
BRANCH   4  12
HETATM   12  C   UNK N   1      34.892  16.585  10.033  0.00  0.00     0.261 C 
HETATM   13  N   UNK N   1      33.748  16.603   9.322  0.00  0.00    -0.331 N 
HETATM   14  H   UNK N   1      33.250  15.755   9.270  0.00  0.00     0.168 HD
HETATM   15  O   UNK N   1      35.611  17.574  10.085  0.00  0.00    -0.267 OA
BRANCH  13  16
HETATM   16  C   UNK N   1      33.187  17.705   8.646  0.00  0.00     0.109 C 
HETATM   17  C   UNK N   1      32.887  17.547   7.346  0.00  0.00     0.120 C 
BRANCH  17  18
HETATM   18  N   UNK N   1      32.945  16.256   6.721  0.00  0.00    -0.262 N 
HETATM   19  C   UNK N   1      34.045  15.644   6.247  0.00  0.00     0.231 A 
HETATM   20  C   UNK N   1      33.757  14.318   5.622  0.00  0.00     0.113 A 
HETATM   21  O   UNK N   1      35.172  16.111   6.340  0.00  0.00    -0.273 OA
HETATM   22  C   UNK N   1      32.222  14.194   5.815  0.00  0.00     0.113 A 
HETATM   23  C   UNK N   1      31.883  15.472   6.519  0.00  0.00     0.231 A 
HETATM   24  O   UNK N   1      30.750  15.784   6.854  0.00  0.00    -0.273 OA
ENDBRANCH  17  18
ENDBRANCH  13  16
ENDBRANCH   4  12
BRANCH  10  25
HETATM   25  N   UNK N   1      36.470  10.889  15.263  0.00  0.00    -0.382 N 
BRANCH  25  26
HETATM   26  C   UNK N   1      36.138  10.853  16.669  0.00  0.00     0.118 C 
HETATM   27  C   UNK N   1      34.945   9.951  16.926  0.00  0.00     0.026 C 
ENDBRANCH  25  26
BRANCH  25  28
HETATM   28  C   UNK N   1      37.124   9.729  14.698  0.00  0.00     0.118 C 
HETATM   29  C   UNK N   1      38.628   9.937  14.650  0.00  0.00     0.026 C 
ENDBRANCH  25  28
ENDBRANCH  10  25
TORSDOF 6
ENDMDL
MODEL 5
REMARK VINA RESULT:      -6.8      8.718     12.681
REMARK  6 active torsions:
REMARK  status: ('A' for Active; 'I' for Inactive)
REMARK    1  A    between atoms: N_5  and  C_8 
REMARK    2  A    between atoms: C_9  and  N_10 
REMARK       I    between atoms: N_10  and  C_11 
REMARK    3  A    between atoms: C_11  and  C_16 
REMARK    4  A    between atoms: C_22  and  N_23 
REMARK    5  A    between atoms: N_23  and  C_25 
REMARK    6  A    between atoms: N_23  and  C_27 
ROOT
HETATM    1  O   UNK N   1      35.621  12.297   9.351  0.00  0.00    -0.274 OA
HETATM    2  C   UNK N   1      35.494  12.756   8.113  0.00  0.00     0.304 A 
HETATM    3  O   UNK N   1      35.387  11.951   7.204  0.00  0.00    -0.259 OA
HETATM    4  C   UNK N   1      35.473  14.156   7.859  0.00  0.00     0.108 A 
HETATM    5  C   UNK N   1      35.611  15.023   8.948  0.00  0.00     0.037 A 
HETATM    6  C   UNK N   1      35.748  14.495  10.230  0.00  0.00    -0.001 A 
HETATM    7  C   UNK N   1      35.737  13.098  10.398  0.00  0.00     0.091 A 
HETATM    8  C   UNK N   1      35.888  15.328  11.342  0.00  0.00     0.016 A 
HETATM    9  C   UNK N   1      36.026  14.768  12.617  0.00  0.00     0.030 A 
HETATM   10  C   UNK N   1      36.001  13.371  12.796  0.00  0.00     0.032 A 
HETATM   11  C   UNK N   1      35.855  12.547  11.671  0.00  0.00     0.067 A 
ENDROOT
BRANCH   4  12
HETATM   12  C   UNK N   1      35.238  14.700   6.495  0.00  0.00     0.261 C 
HETATM   13  N   UNK N   1      33.974  14.710   6.029  0.00  0.00    -0.331 N 
HETATM   14  H   UNK N   1      33.308  14.214   6.557  0.00  0.00     0.168 HD
HETATM   15  O   UNK N   1      36.142  15.225   5.861  0.00  0.00    -0.267 OA
BRANCH  13  16
HETATM   16  C   UNK N   1      33.504  15.356   4.868  0.00  0.00     0.109 C 
HETATM   17  C   UNK N   1      32.694  16.414   5.032  0.00  0.00     0.120 C 
BRANCH  17  18
HETATM   18  N   UNK N   1      32.477  16.991   6.329  0.00  0.00    -0.262 N 
HETATM   19  C   UNK N   1      33.353  17.730   7.033  0.00  0.00     0.231 A 
HETATM   20  C   UNK N   1      32.828  18.151   8.367  0.00  0.00     0.113 A 
HETATM   21  O   UNK N   1      34.459  18.048   6.617  0.00  0.00    -0.273 OA
HETATM   22  C   UNK N   1      31.401  17.538   8.364  0.00  0.00     0.113 A 
HETATM   23  C   UNK N   1      31.346  16.864   7.027  0.00  0.00     0.231 A 
HETATM   24  O   UNK N   1      30.378  16.239   6.620  0.00  0.00    -0.273 OA
ENDBRANCH  17  18
ENDBRANCH  13  16
ENDBRANCH   4  12
BRANCH  10  25
HETATM   25  N   UNK N   1      36.158  12.789  14.097  0.00  0.00    -0.382 N 
BRANCH  25  26
HETATM   26  C   UNK N   1      36.174  13.608  15.288  0.00  0.00     0.118 C 
HETATM   27  C   UNK N   1      35.189  13.091  16.320  0.00  0.00     0.026 C 
ENDBRANCH  25  26
BRANCH  25  28
HETATM   28  C   UNK N   1      36.436  11.377  14.252  0.00  0.00     0.118 C 
HETATM   29  C   UNK N   1      37.928  11.145  14.418  0.00  0.00     0.026 C 
ENDBRANCH  25  28
ENDBRANCH  10  25
TORSDOF 6
ENDMDL
MODEL 6
REMARK VINA RESULT:      -6.5      6.552     12.608
REMARK  6 active torsions:
REMARK  status: ('A' for Active; 'I' for Inactive)
REMARK    1  A    between atoms: N_5  and  C_8 
REMARK    2  A    between atoms: C_9  and  N_10 
REMARK       I    between atoms: N_10  and  C_11 
REMARK    3  A    between atoms: C_11  and  C_16 
REMARK    4  A    between atoms: C_22  and  N_23 
REMARK    5  A    between atoms: N_23  and  C_25 
REMARK    6  A    between atoms: N_23  and  C_27 
ROOT
HETATM    1  O   UNK N   1      31.952  16.736   8.178  0.00  0.00    -0.274 OA
HETATM    2  C   UNK N   1      33.186  16.248   8.159  0.00  0.00     0.304 A 
HETATM    3  O   UNK N   1      33.736  16.021   9.222  0.00  0.00    -0.259 OA
HETATM    4  C   UNK N   1      33.841  15.989   6.923  0.00  0.00     0.108 A 
HETATM    5  C   UNK N   1      33.156  16.284   5.740  0.00  0.00     0.037 A 
HETATM    6  C   UNK N   1      31.863  16.800   5.809  0.00  0.00    -0.001 A 
HETATM    7  C   UNK N   1      31.277  17.007   7.072  0.00  0.00     0.091 A 
HETATM    8  C   UNK N   1      31.146  17.108   4.652  0.00  0.00     0.016 A 
HETATM    9  C   UNK N   1      29.850  17.627   4.754  0.00  0.00     0.030 A 
HETATM   10  C   UNK N   1      29.250  17.823   6.013  0.00  0.00     0.032 A 
HETATM   11  C   UNK N   1      29.981  17.506   7.167  0.00  0.00     0.067 A 
ENDROOT
BRANCH   4  12
HETATM   12  C   UNK N   1      35.186  15.356   6.870  0.00  0.00     0.261 C 
HETATM   13  N   UNK N   1      35.564  14.588   7.909  0.00  0.00    -0.331 N 
HETATM   14  H   UNK N   1      34.991  14.621   8.709  0.00  0.00     0.168 HD
HETATM   15  O   UNK N   1      35.881  15.435   5.866  0.00  0.00    -0.267 OA
BRANCH  13  16
HETATM   16  C   UNK N   1      36.690  13.743   7.974  0.00  0.00     0.109 C 
HETATM   17  C   UNK N   1      37.155  13.424   9.193  0.00  0.00     0.120 C 
BRANCH  17  18
HETATM   18  N   UNK N   1      36.421  13.759  10.381  0.00  0.00    -0.262 N 
HETATM   19  C   UNK N   1      36.391  14.957  10.991  0.00  0.00     0.231 A 
HETATM   20  C   UNK N   1      35.556  14.965  12.231  0.00  0.00     0.113 A 
HETATM   21  O   UNK N   1      36.966  15.949  10.564  0.00  0.00    -0.273 OA
HETATM   22  C   UNK N   1      35.031  13.504  12.278  0.00  0.00     0.113 A 
HETATM   23  C   UNK N   1      35.654  12.900  11.057  0.00  0.00     0.231 A 
HETATM   24  O   UNK N   1      35.502  11.735  10.721  0.00  0.00    -0.273 OA
ENDBRANCH  17  18
ENDBRANCH  13  16
ENDBRANCH   4  12
BRANCH  10  25
HETATM   25  N   UNK N   1      27.930  18.370   6.127  0.00  0.00    -0.382 N 
BRANCH  25  26
HETATM   26  C   UNK N   1      27.665  19.523   6.957  0.00  0.00     0.118 C 
HETATM   27  C   UNK N   1      27.354  20.745   6.113  0.00  0.00     0.026 C 
ENDBRANCH  25  26
BRANCH  25  28
HETATM   28  C   UNK N   1      26.796  17.709   5.517  0.00  0.00     0.118 C 
HETATM   29  C   UNK N   1      26.598  16.329   6.120  0.00  0.00     0.026 C 
ENDBRANCH  25  28
ENDBRANCH  10  25
TORSDOF 6
ENDMDL
MODEL 7
REMARK VINA RESULT:      -6.5     13.896     17.432
REMARK  6 active torsions:
REMARK  status: ('A' for Active; 'I' for Inactive)
REMARK    1  A    between atoms: N_5  and  C_8 
REMARK    2  A    between atoms: C_9  and  N_10 
REMARK       I    between atoms: N_10  and  C_11 
REMARK    3  A    between atoms: C_11  and  C_16 
REMARK    4  A    between atoms: C_22  and  N_23 
REMARK    5  A    between atoms: N_23  and  C_25 
REMARK    6  A    between atoms: N_23  and  C_27 
ROOT
HETATM    1  O   UNK N   1      35.694  10.856  15.692  0.00  0.00    -0.274 OA
HETATM    2  C   UNK N   1      35.778  11.578  14.582  0.00  0.00     0.304 A 
HETATM    3  O   UNK N   1      35.945  10.998  13.524  0.00  0.00    -0.259 OA
HETATM    4  C   UNK N   1      35.664  12.996  14.633  0.00  0.00     0.108 A 
HETATM    5  C   UNK N   1      35.484  13.597  15.882  0.00  0.00     0.037 A 
HETATM    6  C   UNK N   1      35.407  12.798  17.021  0.00  0.00    -0.001 A 
HETATM    7  C   UNK N   1      35.508  11.401  16.883  0.00  0.00     0.091 A 
HETATM    8  C   UNK N   1      35.229  13.360  18.287  0.00  0.00     0.016 A 
HETATM    9  C   UNK N   1      35.158  12.532  19.412  0.00  0.00     0.030 A 
HETATM   10  C   UNK N   1      35.242  11.131  19.282  0.00  0.00     0.032 A 
HETATM   11  C   UNK N   1      35.418  10.580  18.004  0.00  0.00     0.067 A 
ENDROOT
BRANCH   4  12
HETATM   12  C   UNK N   1      35.659  13.824  13.397  0.00  0.00     0.261 C 
HETATM   13  N   UNK N   1      34.844  13.453  12.392  0.00  0.00    -0.331 N 
HETATM   14  H   UNK N   1      34.418  12.569  12.476  0.00  0.00     0.168 HD
HETATM   15  O   UNK N   1      36.289  14.871  13.337  0.00  0.00    -0.267 OA
BRANCH  13  16
HETATM   16  C   UNK N   1      34.534  14.194  11.234  0.00  0.00     0.109 C 
HETATM   17  C   UNK N   1      35.267  13.959  10.133  0.00  0.00     0.120 C 
BRANCH  17  18
HETATM   18  N   UNK N   1      36.190  12.860  10.074  0.00  0.00    -0.262 N 
HETATM   19  C   UNK N   1      35.876  11.553  10.028  0.00  0.00     0.231 A 
HETATM   20  C   UNK N   1      37.075  10.661  10.008  0.00  0.00     0.113 A 
HETATM   21  O   UNK N   1      34.728  11.134   9.981  0.00  0.00    -0.273 OA
HETATM   22  C   UNK N   1      38.243  11.685  10.030  0.00  0.00     0.113 A 
HETATM   23  C   UNK N   1      37.518  12.996  10.060  0.00  0.00     0.231 A 
HETATM   24  O   UNK N   1      38.078  14.082  10.094  0.00  0.00    -0.273 OA
ENDBRANCH  17  18
ENDBRANCH  13  16
ENDBRANCH   4  12
BRANCH  10  25
HETATM   25  N   UNK N   1      35.188  10.276  20.431  0.00  0.00    -0.382 N 
BRANCH  25  26
HETATM   26  C   UNK N   1      36.287   9.399  20.765  0.00  0.00     0.118 C 
HETATM   27  C   UNK N   1      37.549  10.189  21.055  0.00  0.00     0.026 C 
ENDBRANCH  25  26
BRANCH  25  28
HETATM   28  C   UNK N   1      33.980  10.169  21.221  0.00  0.00     0.118 C 
HETATM   29  C   UNK N   1      33.071   9.090  20.658  0.00  0.00     0.026 C 
ENDBRANCH  25  28
ENDBRANCH  10  25
TORSDOF 6
ENDMDL
MODEL 8
REMARK VINA RESULT:      -6.4     12.560     16.537
REMARK  6 active torsions:
REMARK  status: ('A' for Active; 'I' for Inactive)
REMARK    1  A    between atoms: N_5  and  C_8 
REMARK    2  A    between atoms: C_9  and  N_10 
REMARK       I    between atoms: N_10  and  C_11 
REMARK    3  A    between atoms: C_11  and  C_16 
REMARK    4  A    between atoms: C_22  and  N_23 
REMARK    5  A    between atoms: N_23  and  C_25 
REMARK    6  A    between atoms: N_23  and  C_27 
ROOT
HETATM    1  O   UNK N   1      36.050  10.925  14.752  0.00  0.00    -0.274 OA
HETATM    2  C   UNK N   1      36.021  11.769  13.729  0.00  0.00     0.304 A 
HETATM    3  O   UNK N   1      36.280  11.342  12.617  0.00  0.00    -0.259 OA
HETATM    4  C   UNK N   1      35.683  13.136  13.930  0.00  0.00     0.108 A 
HETATM    5  C   UNK N   1      35.407  13.561  15.234  0.00  0.00     0.037 A 
HETATM    6  C   UNK N   1      35.456  12.640  16.278  0.00  0.00    -0.001 A 
HETATM    7  C   UNK N   1      35.777  11.300  15.991  0.00  0.00     0.091 A 
HETATM    8  C   UNK N   1      35.188  13.024  17.593  0.00  0.00     0.016 A 
HETATM    9  C   UNK N   1      35.247  12.076  18.621  0.00  0.00     0.030 A 
HETATM   10  C   UNK N   1      35.553  10.729  18.341  0.00  0.00     0.032 A 
HETATM   11  C   UNK N   1      35.816  10.357  17.015  0.00  0.00     0.067 A 
ENDROOT
BRANCH   4  12
HETATM   12  C   UNK N   1      35.550  14.084  12.791  0.00  0.00     0.261 C 
HETATM   13  N   UNK N   1      34.584  13.847  11.883  0.00  0.00    -0.331 N 
HETATM   14  H   UNK N   1      34.129  12.977  11.943  0.00  0.00     0.168 HD
HETATM   15  O   UNK N   1      36.218  15.107  12.741  0.00  0.00    -0.267 OA
BRANCH  13  16
HETATM   16  C   UNK N   1      34.155  14.712  10.856  0.00  0.00     0.109 C 
HETATM   17  C   UNK N   1      34.316  14.298   9.589  0.00  0.00     0.120 C 
BRANCH  17  18
HETATM   18  N   UNK N   1      34.719  12.951   9.292  0.00  0.00    -0.262 N 
HETATM   19  C   UNK N   1      35.974  12.469   9.310  0.00  0.00     0.231 A 
HETATM   20  C   UNK N   1      36.057  11.030   8.916  0.00  0.00     0.113 A 
HETATM   21  O   UNK N   1      36.949  13.131   9.639  0.00  0.00    -0.273 OA
HETATM   22  C   UNK N   1      34.567  10.677   8.658  0.00  0.00     0.113 A 
HETATM   23  C   UNK N   1      33.876  11.975   8.946  0.00  0.00     0.231 A 
HETATM   24  O   UNK N   1      32.669  12.138   8.852  0.00  0.00    -0.273 OA
ENDBRANCH  17  18
ENDBRANCH  13  16
ENDBRANCH   4  12
BRANCH  10  25
HETATM   25  N   UNK N   1      35.632   9.756  19.391  0.00  0.00    -0.382 N 
BRANCH  25  26
HETATM   26  C   UNK N   1      34.486   9.447  20.215  0.00  0.00     0.118 C 
HETATM   27  C   UNK N   1      33.410   8.740  19.412  0.00  0.00     0.026 C 
ENDBRANCH  25  26
BRANCH  25  28
HETATM   28  C   UNK N   1      36.895   9.145  19.743  0.00  0.00     0.118 C 
HETATM   29  C   UNK N   1      37.608   9.970  20.802  0.00  0.00     0.026 C 
ENDBRANCH  25  28
ENDBRANCH  10  25
TORSDOF 6
ENDMDL
MODEL 9
REMARK VINA RESULT:      -6.4      8.564     14.402
REMARK  6 active torsions:
REMARK  status: ('A' for Active; 'I' for Inactive)
REMARK    1  A    between atoms: N_5  and  C_8 
REMARK    2  A    between atoms: C_9  and  N_10 
REMARK       I    between atoms: N_10  and  C_11 
REMARK    3  A    between atoms: C_11  and  C_16 
REMARK    4  A    between atoms: C_22  and  N_23 
REMARK    5  A    between atoms: N_23  and  C_25 
REMARK    6  A    between atoms: N_23  and  C_27 
ROOT
HETATM    1  O   UNK N   1      33.072  14.005   9.221  0.00  0.00    -0.274 OA
HETATM    2  C   UNK N   1      34.187  13.524   9.755  0.00  0.00     0.304 A 
HETATM    3  O   UNK N   1      34.243  12.333  10.007  0.00  0.00    -0.259 OA
HETATM    4  C   UNK N   1      35.292  14.383  10.015  0.00  0.00     0.108 A 
HETATM    5  C   UNK N   1      35.155  15.741   9.711  0.00  0.00     0.037 A 
HETATM    6  C   UNK N   1      33.963  16.201   9.156  0.00  0.00    -0.001 A 
HETATM    7  C   UNK N   1      32.925  15.283   8.910  0.00  0.00     0.091 A 
HETATM    8  C   UNK N   1      33.787  17.549   8.840  0.00  0.00     0.016 A 
HETATM    9  C   UNK N   1      32.577  17.982   8.285  0.00  0.00     0.030 A 
HETATM   10  C   UNK N   1      31.539  17.067   8.021  0.00  0.00     0.032 A 
HETATM   11  C   UNK N   1      31.730  15.715   8.341  0.00  0.00     0.067 A 
ENDROOT
BRANCH   4  12
HETATM   12  C   UNK N   1      36.586  13.857  10.525  0.00  0.00     0.261 C 
HETATM   13  N   UNK N   1      36.551  12.946  11.516  0.00  0.00    -0.331 N 
HETATM   14  H   UNK N   1      35.679  12.802  11.948  0.00  0.00     0.168 HD
HETATM   15  O   UNK N   1      37.644  14.154   9.986  0.00  0.00    -0.267 OA
BRANCH  13  16
HETATM   16  C   UNK N   1      37.629  12.177  12.000  0.00  0.00     0.109 C 
HETATM   17  C   UNK N   1      37.474  11.573  13.189  0.00  0.00     0.120 C 
BRANCH  17  18
HETATM   18  N   UNK N   1      36.197  11.540  13.847  0.00  0.00    -0.262 N 
HETATM   19  C   UNK N   1      35.198  10.672  13.611  0.00  0.00     0.231 A 
HETATM   20  C   UNK N   1      33.985  10.931  14.444  0.00  0.00     0.113 A 
HETATM   21  O   UNK N   1      35.279   9.746  12.814  0.00  0.00    -0.273 OA
HETATM   22  C   UNK N   1      34.429  12.153  15.293  0.00  0.00     0.113 A 
HETATM   23  C   UNK N   1      35.825  12.393  14.804  0.00  0.00     0.231 A 
HETATM   24  O   UNK N   1      36.544  13.290  15.215  0.00  0.00    -0.273 OA
ENDBRANCH  17  18
ENDBRANCH  13  16
ENDBRANCH   4  12
BRANCH  10  25
HETATM   25  N   UNK N   1      30.290  17.505   7.470  0.00  0.00    -0.382 N 
BRANCH  25  26
HETATM   26  C   UNK N   1      29.440  18.432   8.182  0.00  0.00     0.118 C 
HETATM   27  C   UNK N   1      29.029  17.872   9.531  0.00  0.00     0.026 C 
ENDBRANCH  25  26
BRANCH  25  28
HETATM   28  C   UNK N   1      29.778  16.934   6.243  0.00  0.00     0.118 C 
HETATM   29  C   UNK N   1      30.687  17.279   5.076  0.00  0.00     0.026 C 
ENDBRANCH  25  28
ENDBRANCH  10  25
TORSDOF 6
ENDMDL
