MODEL 1
REMARK VINA RESULT:      -6.4      0.000      0.000
REMARK  5 active torsions:
REMARK  status: ('A' for Active; 'I' for Inactive)
REMARK    1  A    between atoms: C_1  and  S_9 
REMARK    2  A    between atoms: C_4  and  O_7 
REMARK    3  A    between atoms: S_9  and  N_12 
REMARK    4  A    between atoms: C_13  and  C_21 
REMARK       I    between atoms: C_21  and  N_22 
REMARK    5  A    between atoms: N_22  and  O_23 
ROOT
HETATM    1  N   UNK N   1      34.675  15.926   8.483  0.00  0.00    -0.191 NA
HETATM    2  C   UNK N   1      34.081  14.582   8.783  0.00  0.00     0.186 C 
HETATM    3  C   UNK N   1      35.173  13.563   9.296  0.00  0.00     0.026 C 
HETATM    4  S   UNK N   1      35.798  13.883  10.983  0.00  0.00    -0.158 SA
HETATM    5  C   UNK N   1      36.433  15.539  10.662  0.00  0.00     0.076 C 
HETATM    6  C   UNK N   1      35.280  16.479  10.890  0.00  0.00     0.026 C 
HETATM    7  C   UNK N   1      34.564  16.879   9.601  0.00  0.00     0.109 C 
HETATM    8  C   UNK N   1      36.360  13.470   8.344  0.00  0.00     0.029 C 
HETATM    9  C   UNK N   1      34.577  12.162   9.399  0.00  0.00     0.029 C 
ENDROOT
BRANCH   1  10
HETATM   10  S   UNK N   1      34.074  16.804   7.024  0.00  0.00     0.244 S 
HETATM   11  O   UNK N   1      34.648  18.224   7.178  0.00  0.00    -0.206 OA
HETATM   12  O   UNK N   1      34.991  16.332   5.886  0.00  0.00    -0.206 OA
BRANCH  10  13
HETATM   13  C   UNK N   1      32.382  16.957   6.399  0.00  0.00     0.074 A 
HETATM   14  C   UNK N   1      31.314  17.084   7.297  0.00  0.00     0.027 A 
HETATM   15  C   UNK N   1      30.024  17.368   6.829  0.00  0.00     0.038 A 
HETATM   16  C   UNK N   1      29.791  17.545   5.460  0.00  0.00     0.068 A 
HETATM   17  C   UNK N   1      30.862  17.410   4.560  0.00  0.00     0.038 A 
HETATM   18  C   UNK N   1      32.148  17.131   5.031  0.00  0.00     0.027 A 
BRANCH  16  19
HETATM   19  O   UNK N   1      28.542  17.861   5.037  0.00  0.00    -0.356 OA
HETATM   20  C   UNK N   1      28.108  19.157   4.867  0.00  0.00     0.210 C 
ENDBRANCH  16  19
ENDBRANCH  10  13
ENDBRANCH   1  10
BRANCH   2  21
HETATM   21  C   UNK N   1      33.365  13.969   7.589  0.00  0.00     0.261 C 
HETATM   22  N   UNK N   1      34.046  13.664   6.458  0.00  0.00    -0.236 N 
HETATM   23  H   UNK N   1      35.008  13.866   6.400  0.00  0.00     0.197 HD
HETATM   24  O   UNK N   1      32.175  13.707   7.674  0.00  0.00    -0.270 OA
BRANCH  22  25
HETATM   25  O   UNK N   1      33.425  13.089   5.418  0.00  0.00    -0.287 OA
HETATM   26  H   UNK N   1      33.851  12.376   4.919  0.00  0.00     0.244 HD
ENDBRANCH  22  25
ENDBRANCH   2  21
TORSDOF 5
ENDMDL
MODEL 2
REMARK VINA RESULT:      -6.2      2.466      6.509
REMARK  5 active torsions:
REMARK  status: ('A' for Active; 'I' for Inactive)
REMARK    1  A    between atoms: C_1  and  S_9 
REMARK    2  A    between atoms: C_4  and  O_7 
REMARK    3  A    between atoms: S_9  and  N_12 
REMARK    4  A    between atoms: C_13  and  C_21 
REMARK       I    between atoms: C_21  and  N_22 
REMARK    5  A    between atoms: N_22  and  O_23 
ROOT
HETATM    1  N   UNK N   1      33.085  15.542   5.717  0.00  0.00    -0.191 NA
HETATM    2  C   UNK N   1      31.719  15.484   6.334  0.00  0.00     0.186 C 
HETATM    3  C   UNK N   1      30.620  16.086   5.374  0.00  0.00     0.026 C 
HETATM    4  S   UNK N   1      30.220  15.059   3.915  0.00  0.00    -0.158 SA
HETATM    5  C   UNK N   1      31.879  15.039   3.211  0.00  0.00     0.076 C 
HETATM    6  C   UNK N   1      32.592  13.881   3.855  0.00  0.00     0.026 C 
HETATM    7  C   UNK N   1      33.472  14.296   5.033  0.00  0.00     0.109 C 
HETATM    8  C   UNK N   1      30.981  17.489   4.900  0.00  0.00     0.029 C 
HETATM    9  C   UNK N   1      29.285  16.195   6.106  0.00  0.00     0.029 C 
ENDROOT
BRANCH   1  10
HETATM   10  S   UNK N   1      34.475  15.969   6.788  0.00  0.00     0.244 S 
HETATM   11  O   UNK N   1      35.716  15.610   5.953  0.00  0.00    -0.206 OA
HETATM   12  O   UNK N   1      34.586  17.497   6.680  0.00  0.00    -0.206 OA
BRANCH  10  13
HETATM   13  C   UNK N   1      34.795  15.469   8.498  0.00  0.00     0.074 A 
HETATM   14  C   UNK N   1      34.940  16.442   9.496  0.00  0.00     0.027 A 
HETATM   15  C   UNK N   1      35.022  16.068  10.844  0.00  0.00     0.038 A 
HETATM   16  C   UNK N   1      34.942  14.719  11.211  0.00  0.00     0.068 A 
HETATM   17  C   UNK N   1      34.803  13.744  10.208  0.00  0.00     0.038 A 
HETATM   18  C   UNK N   1      34.717  14.121   8.865  0.00  0.00     0.027 A 
BRANCH  16  19
HETATM   19  O   UNK N   1      34.982  14.388  12.524  0.00  0.00    -0.356 OA
HETATM   20  C   UNK N   1      36.137  14.414  13.276  0.00  0.00     0.210 C 
ENDBRANCH  16  19
ENDBRANCH  10  13
ENDBRANCH   1  10
BRANCH   2  21
HETATM   21  C   UNK N   1      31.642  16.202   7.673  0.00  0.00     0.261 C 
HETATM   22  N   UNK N   1      31.768  17.549   7.742  0.00  0.00    -0.236 N 
HETATM   23  H   UNK N   1      31.937  18.064   6.921  0.00  0.00     0.197 HD
HETATM   24  O   UNK N   1      31.416  15.557   8.686  0.00  0.00    -0.270 OA
BRANCH  22  25
HETATM   25  O   UNK N   1      31.663  18.187   8.916  0.00  0.00    -0.287 OA
HETATM   26  H   UNK N   1      31.259  19.067   8.969  0.00  0.00     0.244 HD
ENDBRANCH  22  25
ENDBRANCH   2  21
TORSDOF 5
ENDMDL
MODEL 3
REMARK VINA RESULT:      -6.0      4.002      5.451
REMARK  5 active torsions:
REMARK  status: ('A' for Active; 'I' for Inactive)
REMARK    1  A    between atoms: C_1  and  S_9 
REMARK    2  A    between atoms: C_4  and  O_7 
REMARK    3  A    between atoms: S_9  and  N_12 
REMARK    4  A    between atoms: C_13  and  C_21 
REMARK       I    between atoms: C_21  and  N_22 
REMARK    5  A    between atoms: N_22  and  O_23 
ROOT
HETATM    1  N   UNK N   1      30.370  17.427   6.756  0.00  0.00    -0.191 NA
HETATM    2  C   UNK N   1      30.729  16.182   5.999  0.00  0.00     0.186 C 
HETATM    3  C   UNK N   1      32.106  16.335   5.244  0.00  0.00     0.026 C 
HETATM    4  S   UNK N   1      33.582  16.341   6.322  0.00  0.00    -0.158 SA
HETATM    5  C   UNK N   1      33.120  17.780   7.304  0.00  0.00     0.076 C 
HETATM    6  C   UNK N   1      32.274  17.260   8.434  0.00  0.00     0.026 C 
HETATM    7  C   UNK N   1      30.774  17.388   8.172  0.00  0.00     0.109 C 
HETATM    8  C   UNK N   1      32.140  17.577   4.361  0.00  0.00     0.029 C 
HETATM    9  C   UNK N   1      32.341  15.136   4.331  0.00  0.00     0.029 C 
ENDROOT
BRANCH   1  10
HETATM   10  S   UNK N   1      28.641  17.947   6.750  0.00  0.00     0.244 S 
HETATM   11  O   UNK N   1      27.891  16.766   7.391  0.00  0.00    -0.206 OA
HETATM   12  O   UNK N   1      28.530  18.927   7.927  0.00  0.00    -0.206 OA
BRANCH  10  13
HETATM   13  C   UNK N   1      27.637  18.557   5.372  0.00  0.00     0.074 A 
HETATM   14  C   UNK N   1      26.428  17.924   5.054  0.00  0.00     0.027 A 
HETATM   15  C   UNK N   1      25.564  18.483   4.103  0.00  0.00     0.038 A 
HETATM   16  C   UNK N   1      25.891  19.688   3.471  0.00  0.00     0.068 A 
HETATM   17  C   UNK N   1      27.108  20.319   3.786  0.00  0.00     0.038 A 
HETATM   18  C   UNK N   1      27.964  19.761   4.739  0.00  0.00     0.027 A 
BRANCH  16  19
HETATM   19  O   UNK N   1      25.019  20.229   2.586  0.00  0.00    -0.356 OA
HETATM   20  C   UNK N   1      23.724  20.569   2.913  0.00  0.00     0.210 C 
ENDBRANCH  16  19
ENDBRANCH  10  13
ENDBRANCH   1  10
BRANCH   2  21
HETATM   21  C   UNK N   1      29.663  15.773   4.993  0.00  0.00     0.261 C 
HETATM   22  N   UNK N   1      28.805  14.762   5.269  0.00  0.00    -0.236 N 
HETATM   23  H   UNK N   1      28.890  14.270   6.118  0.00  0.00     0.197 HD
HETATM   24  O   UNK N   1      29.554  16.398   3.949  0.00  0.00    -0.270 OA
BRANCH  22  25
HETATM   25  O   UNK N   1      27.842  14.424   4.400  0.00  0.00    -0.287 OA
HETATM   26  H   UNK N   1      27.562  13.501   4.304  0.00  0.00     0.244 HD
ENDBRANCH  22  25
ENDBRANCH   2  21
TORSDOF 5
ENDMDL
MODEL 4
REMARK VINA RESULT:      -5.9     13.052     16.990
REMARK  5 active torsions:
REMARK  status: ('A' for Active; 'I' for Inactive)
REMARK    1  A    between atoms: C_1  and  S_9 
REMARK    2  A    between atoms: C_4  and  O_7 
REMARK    3  A    between atoms: S_9  and  N_12 
REMARK    4  A    between atoms: C_13  and  C_21 
REMARK       I    between atoms: C_21  and  N_22 
REMARK    5  A    between atoms: N_22  and  O_23 
ROOT
HETATM    1  N   UNK N   1      27.861  26.709  -4.448  0.00  0.00    -0.191 NA
HETATM    2  C   UNK N   1      28.810  27.596  -3.698  0.00  0.00     0.186 C 
HETATM    3  C   UNK N   1      28.624  29.113  -4.090  0.00  0.00     0.026 C 
HETATM    4  S   UNK N   1      27.093  29.891  -3.463  0.00  0.00    -0.158 SA
HETATM    5  C   UNK N   1      25.939  28.775  -4.282  0.00  0.00     0.076 C 
HETATM    6  C   UNK N   1      25.751  27.610  -3.349  0.00  0.00     0.026 C 
HETATM    7  C   UNK N   1      26.627  26.408  -3.702  0.00  0.00     0.109 C 
HETATM    8  C   UNK N   1      28.701  29.329  -5.597  0.00  0.00     0.029 C 
HETATM    9  C   UNK N   1      29.731  29.957  -3.464  0.00  0.00     0.029 C 
ENDROOT
BRANCH   1  10
HETATM   10  S   UNK N   1      28.481  25.119  -5.038  0.00  0.00     0.244 S 
HETATM   11  O   UNK N   1      27.216  24.363  -5.480  0.00  0.00    -0.206 OA
HETATM   12  O   UNK N   1      29.042  25.420  -6.436  0.00  0.00    -0.206 OA
BRANCH  10  13
HETATM   13  C   UNK N   1      29.569  23.937  -4.203  0.00  0.00     0.074 A 
HETATM   14  C   UNK N   1      30.768  23.541  -4.810  0.00  0.00     0.027 A 
HETATM   15  C   UNK N   1      31.694  22.760  -4.106  0.00  0.00     0.038 A 
HETATM   16  C   UNK N   1      31.439  22.379  -2.783  0.00  0.00     0.068 A 
HETATM   17  C   UNK N   1      30.232  22.771  -2.178  0.00  0.00     0.038 A 
HETATM   18  C   UNK N   1      29.313  23.554  -2.882  0.00  0.00     0.027 A 
BRANCH  16  19
HETATM   19  O   UNK N   1      32.370  21.659  -2.111  0.00  0.00    -0.356 OA
HETATM   20  C   UNK N   1      33.382  20.963  -2.735  0.00  0.00     0.210 C 
ENDBRANCH  16  19
ENDBRANCH  10  13
ENDBRANCH   1  10
BRANCH   2  21
HETATM   21  C   UNK N   1      30.268  27.214  -3.907  0.00  0.00     0.261 C 
HETATM   22  N   UNK N   1      30.840  27.318  -5.130  0.00  0.00    -0.236 N 
HETATM   23  H   UNK N   1      30.300  27.618  -5.896  0.00  0.00     0.197 HD
HETATM   24  O   UNK N   1      30.937  26.857  -2.949  0.00  0.00    -0.270 OA
BRANCH  22  25
HETATM   25  O   UNK N   1      32.135  27.019  -5.309  0.00  0.00    -0.287 OA
HETATM   26  H   UNK N   1      32.405  26.350  -5.957  0.00  0.00     0.244 HD
ENDBRANCH  22  25
ENDBRANCH   2  21
TORSDOF 5
ENDMDL
MODEL 5
REMARK VINA RESULT:      -5.9     15.886     17.817
REMARK  5 active torsions:
REMARK  status: ('A' for Active; 'I' for Inactive)
REMARK    1  A    between atoms: C_1  and  S_9 
REMARK    2  A    between atoms: C_4  and  O_7 
REMARK    3  A    between atoms: S_9  and  N_12 
REMARK    4  A    between atoms: C_13  and  C_21 
REMARK       I    between atoms: C_21  and  N_22 
REMARK    5  A    between atoms: N_22  and  O_23 
ROOT
HETATM    1  N   UNK N   1      28.585  26.371  -4.031  0.00  0.00    -0.191 NA
HETATM    2  C   UNK N   1      28.245  27.421  -5.047  0.00  0.00     0.186 C 
HETATM    3  C   UNK N   1      28.244  28.867  -4.414  0.00  0.00     0.026 C 
HETATM    4  S   UNK N   1      29.896  29.528  -3.995  0.00  0.00    -0.158 SA
HETATM    5  C   UNK N   1      30.359  28.223  -2.842  0.00  0.00     0.076 C 
HETATM    6  C   UNK N   1      30.985  27.135  -3.672  0.00  0.00     0.026 C 
HETATM    7  C   UNK N   1      30.013  26.008  -4.019  0.00  0.00     0.109 C 
HETATM    8  C   UNK N   1      27.355  28.950  -3.179  0.00  0.00     0.029 C 
HETATM    9  C   UNK N   1      27.703  29.880  -5.419  0.00  0.00     0.029 C 
ENDROOT
BRANCH   1  10
HETATM   10  S   UNK N   1      27.679  24.811  -4.096  0.00  0.00     0.244 S 
HETATM   11  O   UNK N   1      28.403  23.914  -3.077  0.00  0.00    -0.206 OA
HETATM   12  O   UNK N   1      26.406  25.071  -3.278  0.00  0.00    -0.206 OA
BRANCH  10  13
HETATM   13  C   UNK N   1      27.264  23.791  -5.533  0.00  0.00     0.074 A 
HETATM   14  C   UNK N   1      28.275  23.108  -6.221  0.00  0.00     0.027 A 
HETATM   15  C   UNK N   1      27.952  22.187  -7.227  0.00  0.00     0.038 A 
HETATM   16  C   UNK N   1      26.613  21.928  -7.546  0.00  0.00     0.068 A 
HETATM   17  C   UNK N   1      25.600  22.620  -6.860  0.00  0.00     0.038 A 
HETATM   18  C   UNK N   1      25.927  23.533  -5.854  0.00  0.00     0.027 A 
BRANCH  16  19
HETATM   19  O   UNK N   1      26.326  21.003  -8.494  0.00  0.00    -0.356 OA
HETATM   20  C   UNK N   1      25.913  21.330  -9.767  0.00  0.00     0.210 C 
ENDBRANCH  16  19
ENDBRANCH  10  13
ENDBRANCH   1  10
BRANCH   2  21
HETATM   21  C   UNK N   1      26.901  27.182  -5.719  0.00  0.00     0.261 C 
HETATM   22  N   UNK N   1      25.750  27.265  -5.009  0.00  0.00    -0.236 N 
HETATM   23  H   UNK N   1      25.786  27.456  -4.044  0.00  0.00     0.197 HD
HETATM   24  O   UNK N   1      26.862  26.962  -6.920  0.00  0.00    -0.270 OA
BRANCH  22  25
HETATM   25  O   UNK N   1      24.563  27.092  -5.606  0.00  0.00    -0.287 OA
HETATM   26  H   UNK N   1      24.085  26.252  -5.529  0.00  0.00     0.244 HD
ENDBRANCH  22  25
ENDBRANCH   2  21
TORSDOF 5
ENDMDL
MODEL 6
REMARK VINA RESULT:      -5.9      2.100      3.237
REMARK  5 active torsions:
REMARK  status: ('A' for Active; 'I' for Inactive)
REMARK    1  A    between atoms: C_1  and  S_9 
REMARK    2  A    between atoms: C_4  and  O_7 
REMARK    3  A    between atoms: S_9  and  N_12 
REMARK    4  A    between atoms: C_13  and  C_21 
REMARK       I    between atoms: C_21  and  N_22 
REMARK    5  A    between atoms: N_22  and  O_23 
ROOT
HETATM    1  N   UNK N   1      34.746  14.980   7.094  0.00  0.00    -0.191 NA
HETATM    2  C   UNK N   1      35.298  14.590   8.432  0.00  0.00     0.186 C 
HETATM    3  C   UNK N   1      35.084  13.054   8.726  0.00  0.00     0.026 C 
HETATM    4  S   UNK N   1      36.133  11.924   7.744  0.00  0.00    -0.158 SA
HETATM    5  C   UNK N   1      35.548  12.450   6.123  0.00  0.00     0.076 C 
HETATM    6  C   UNK N   1      36.406  13.621   5.728  0.00  0.00     0.026 C 
HETATM    7  C   UNK N   1      35.753  14.972   6.019  0.00  0.00     0.109 C 
HETATM    8  C   UNK N   1      33.627  12.638   8.559  0.00  0.00     0.029 C 
HETATM    9  C   UNK N   1      35.473  12.735  10.167  0.00  0.00     0.029 C 
ENDROOT
BRANCH   1  10
HETATM   10  S   UNK N   1      33.899  16.570   6.964  0.00  0.00     0.244 S 
HETATM   11  O   UNK N   1      34.852  17.560   7.656  0.00  0.00    -0.206 OA
HETATM   12  O   UNK N   1      34.147  17.020   5.516  0.00  0.00    -0.206 OA
BRANCH  10  13
HETATM   13  C   UNK N   1      32.208  17.005   7.441  0.00  0.00     0.074 A 
HETATM   14  C   UNK N   1      31.987  17.902   8.494  0.00  0.00     0.027 A 
HETATM   15  C   UNK N   1      30.696  18.374   8.765  0.00  0.00     0.038 A 
HETATM   16  C   UNK N   1      29.614  17.968   7.975  0.00  0.00     0.068 A 
HETATM   17  C   UNK N   1      29.835  17.062   6.923  0.00  0.00     0.038 A 
HETATM   18  C   UNK N   1      31.125  16.598   6.653  0.00  0.00     0.027 A 
BRANCH  16  19
HETATM   19  O   UNK N   1      28.382  18.472   8.232  0.00  0.00    -0.356 OA
HETATM   20  C   UNK N   1      27.801  19.468   7.477  0.00  0.00     0.210 C 
ENDBRANCH  16  19
ENDBRANCH  10  13
ENDBRANCH   1  10
BRANCH   2  21
HETATM   21  C   UNK N   1      34.701  15.394   9.578  0.00  0.00     0.261 C 
HETATM   22  N   UNK N   1      35.421  16.366  10.187  0.00  0.00    -0.236 N 
HETATM   23  H   UNK N   1      36.348  16.535   9.904  0.00  0.00     0.197 HD
HETATM   24  O   UNK N   1      33.544  15.190   9.913  0.00  0.00    -0.270 OA
BRANCH  22  25
HETATM   25  O   UNK N   1      34.884  17.102  11.171  0.00  0.00    -0.287 OA
HETATM   26  H   UNK N   1      35.423  17.737  11.667  0.00  0.00     0.244 HD
ENDBRANCH  22  25
ENDBRANCH   2  21
TORSDOF 5
ENDMDL
MODEL 7
REMARK VINA RESULT:      -5.9      4.759      6.965
REMARK  5 active torsions:
REMARK  status: ('A' for Active; 'I' for Inactive)
REMARK    1  A    between atoms: C_1  and  S_9 
REMARK    2  A    between atoms: C_4  and  O_7 
REMARK    3  A    between atoms: S_9  and  N_12 
REMARK    4  A    between atoms: C_13  and  C_21 
REMARK       I    between atoms: C_21  and  N_22 
REMARK    5  A    between atoms: N_22  and  O_23 
ROOT
HETATM    1  N   UNK N   1      36.415  11.115  12.330  0.00  0.00    -0.191 NA
HETATM    2  C   UNK N   1      36.333  11.566  13.758  0.00  0.00     0.186 C 
HETATM    3  C   UNK N   1      35.200  10.802  14.547  0.00  0.00     0.026 C 
HETATM    4  S   UNK N   1      35.563   9.048  14.916  0.00  0.00    -0.158 SA
HETATM    5  C   UNK N   1      35.758   8.510  13.207  0.00  0.00     0.076 C 
HETATM    6  C   UNK N   1      37.200   8.754  12.855  0.00  0.00     0.026 C 
HETATM    7  C   UNK N   1      37.423  10.066  12.104  0.00  0.00     0.109 C 
HETATM    8  C   UNK N   1      33.853  10.884  13.838  0.00  0.00     0.029 C 
HETATM    9  C   UNK N   1      35.012  11.422  15.929  0.00  0.00     0.029 C 
ENDROOT
BRANCH   1  10
HETATM   10  S   UNK N   1      36.716  12.370  11.067  0.00  0.00     0.244 S 
HETATM   11  O   UNK N   1      38.143  12.864  11.362  0.00  0.00    -0.206 OA
HETATM   12  O   UNK N   1      37.032  11.568   9.796  0.00  0.00    -0.206 OA
BRANCH  10  13
HETATM   13  C   UNK N   1      35.712  13.811  10.626  0.00  0.00     0.074 A 
HETATM   14  C   UNK N   1      36.239  15.101  10.771  0.00  0.00     0.027 A 
HETATM   15  C   UNK N   1      35.540  16.212  10.281  0.00  0.00     0.038 A 
HETATM   16  C   UNK N   1      34.314  16.044   9.626  0.00  0.00     0.068 A 
HETATM   17  C   UNK N   1      33.783  14.750   9.488  0.00  0.00     0.038 A 
HETATM   18  C   UNK N   1      34.486  13.644   9.974  0.00  0.00     0.027 A 
BRANCH  16  19
HETATM   19  O   UNK N   1      33.678  17.130   9.124  0.00  0.00    -0.356 OA
HETATM   20  C   UNK N   1      34.281  18.033   8.275  0.00  0.00     0.210 C 
ENDBRANCH  16  19
ENDBRANCH  10  13
ENDBRANCH   1  10
BRANCH   2  21
HETATM   21  C   UNK N   1      36.097  13.064  13.894  0.00  0.00     0.261 C 
HETATM   22  N   UNK N   1      37.125  13.901  14.172  0.00  0.00    -0.236 N 
HETATM   23  H   UNK N   1      38.027  13.534  14.314  0.00  0.00     0.197 HD
HETATM   24  O   UNK N   1      34.978  13.514  13.702  0.00  0.00    -0.270 OA
BRANCH  22  25
HETATM   25  O   UNK N   1      36.927  15.224  14.255  0.00  0.00    -0.287 OA
HETATM   26  H   UNK N   1      36.206  15.650  13.766  0.00  0.00     0.244 HD
ENDBRANCH  22  25
ENDBRANCH   2  21
TORSDOF 5
ENDMDL
MODEL 8
REMARK VINA RESULT:      -5.8      4.417      8.116
REMARK  5 active torsions:
REMARK  status: ('A' for Active; 'I' for Inactive)
REMARK    1  A    between atoms: C_1  and  S_9 
REMARK    2  A    between atoms: C_4  and  O_7 
REMARK    3  A    between atoms: S_9  and  N_12 
REMARK    4  A    between atoms: C_13  and  C_21 
REMARK       I    between atoms: C_21  and  N_22 
REMARK    5  A    between atoms: N_22  and  O_23 
ROOT
HETATM    1  N   UNK N   1      35.158  12.206   9.854  0.00  0.00    -0.191 NA
HETATM    2  C   UNK N   1      34.460  13.525   9.709  0.00  0.00     0.186 C 
HETATM    3  C   UNK N   1      34.482  14.036   8.216  0.00  0.00     0.026 C 
HETATM    4  S   UNK N   1      33.399  13.114   7.067  0.00  0.00    -0.158 SA
HETATM    5  C   UNK N   1      34.168  11.501   7.302  0.00  0.00     0.076 C 
HETATM    6  C   UNK N   1      33.476  10.878   8.484  0.00  0.00     0.026 C 
HETATM    7  C   UNK N   1      34.247  11.050   9.793  0.00  0.00     0.109 C 
HETATM    8  C   UNK N   1      35.893  14.064   7.641  0.00  0.00     0.029 C 
HETATM    9  C   UNK N   1      33.944  15.462   8.140  0.00  0.00     0.029 C 
ENDROOT
BRANCH   1  10
HETATM   10  S   UNK N   1      36.181  11.951  11.320  0.00  0.00     0.244 S 
HETATM   11  O   UNK N   1      36.702  10.511  11.168  0.00  0.00    -0.206 OA
HETATM   12  O   UNK N   1      37.495  12.682  11.004  0.00  0.00    -0.206 OA
BRANCH  10  13
HETATM   13  C   UNK N   1      35.762  12.207  13.063  0.00  0.00     0.074 A 
HETATM   14  C   UNK N   1      36.442  13.179  13.809  0.00  0.00     0.027 A 
HETATM   15  C   UNK N   1      36.017  13.502  15.105  0.00  0.00     0.038 A 
HETATM   16  C   UNK N   1      34.900  12.869  15.662  0.00  0.00     0.068 A 
HETATM   17  C   UNK N   1      34.224  11.889  14.915  0.00  0.00     0.038 A 
HETATM   18  C   UNK N   1      34.647  11.573  13.621  0.00  0.00     0.027 A 
BRANCH  16  19
HETATM   19  O   UNK N   1      34.485  13.229  16.902  0.00  0.00    -0.356 OA
HETATM   20  C   UNK N   1      35.283  13.907  17.798  0.00  0.00     0.210 C 
ENDBRANCH  16  19
ENDBRANCH  10  13
ENDBRANCH   1  10
BRANCH   2  21
HETATM   21  C   UNK N   1      35.046  14.608  10.603  0.00  0.00     0.261 C 
HETATM   22  N   UNK N   1      36.269  15.129  10.344  0.00  0.00    -0.236 N 
HETATM   23  H   UNK N   1      36.794  14.785   9.586  0.00  0.00     0.197 HD
HETATM   24  O   UNK N   1      34.382  15.041  11.533  0.00  0.00    -0.270 OA
BRANCH  22  25
HETATM   25  O   UNK N   1      36.772  16.110  11.108  0.00  0.00    -0.287 OA
HETATM   26  H   UNK N   1      36.354  16.984  11.132  0.00  0.00     0.244 HD
ENDBRANCH  22  25
ENDBRANCH   2  21
TORSDOF 5
ENDMDL
MODEL 9
REMARK VINA RESULT:      -5.8      2.428      6.536
REMARK  5 active torsions:
REMARK  status: ('A' for Active; 'I' for Inactive)
REMARK    1  A    between atoms: C_1  and  S_9 
REMARK    2  A    between atoms: C_4  and  O_7 
REMARK    3  A    between atoms: S_9  and  N_12 
REMARK    4  A    between atoms: C_13  and  C_21 
REMARK       I    between atoms: C_21  and  N_22 
REMARK    5  A    between atoms: N_22  and  O_23 
ROOT
HETATM    1  N   UNK N   1      31.238  16.626   6.619  0.00  0.00    -0.191 NA
HETATM    2  C   UNK N   1      32.131  16.961   5.462  0.00  0.00     0.186 C 
HETATM    3  C   UNK N   1      31.900  15.983   4.245  0.00  0.00     0.026 C 
HETATM    4  S   UNK N   1      30.324  16.220   3.350  0.00  0.00    -0.158 SA
HETATM    5  C   UNK N   1      29.237  15.914   4.754  0.00  0.00     0.076 C 
HETATM    6  C   UNK N   1      29.065  17.239   5.446  0.00  0.00     0.026 C 
HETATM    7  C   UNK N   1      29.994  17.416   6.647  0.00  0.00     0.109 C 
HETATM    8  C   UNK N   1      32.013  14.519   4.657  0.00  0.00     0.029 C 
HETATM    9  C   UNK N   1      32.956  16.223   3.170  0.00  0.00     0.029 C 
ENDROOT
BRANCH   1  10
HETATM   10  S   UNK N   1      31.933  16.743   8.281  0.00  0.00     0.244 S 
HETATM   11  O   UNK N   1      32.058  18.256   8.530  0.00  0.00    -0.206 OA
HETATM   12  O   UNK N   1      30.744  16.475   9.215  0.00  0.00    -0.206 OA
BRANCH  10  13
HETATM   13  C   UNK N   1      33.412  15.947   8.959  0.00  0.00     0.074 A 
HETATM   14  C   UNK N   1      34.456  16.729   9.468  0.00  0.00     0.027 A 
HETATM   15  C   UNK N   1      35.527  16.130  10.143  0.00  0.00     0.038 A 
HETATM   16  C   UNK N   1      35.558  14.743  10.331  0.00  0.00     0.068 A 
HETATM   17  C   UNK N   1      34.513  13.958   9.813  0.00  0.00     0.038 A 
HETATM   18  C   UNK N   1      33.444  14.560   9.145  0.00  0.00     0.027 A 
BRANCH  16  19
HETATM   19  O   UNK N   1      36.585  14.192  11.024  0.00  0.00    -0.356 OA
HETATM   20  C   UNK N   1      36.404  13.370  12.115  0.00  0.00     0.210 C 
ENDBRANCH  16  19
ENDBRANCH  10  13
ENDBRANCH   1  10
BRANCH   2  21
HETATM   21  C   UNK N   1      33.608  16.942   5.829  0.00  0.00     0.261 C 
HETATM   22  N   UNK N   1      34.302  15.779   5.838  0.00  0.00    -0.236 N 
HETATM   23  H   UNK N   1      33.840  14.935   5.633  0.00  0.00     0.197 HD
HETATM   24  O   UNK N   1      34.179  17.996   6.067  0.00  0.00    -0.270 OA
BRANCH  22  25
HETATM   25  O   UNK N   1      35.612  15.765   6.124  0.00  0.00    -0.287 OA
HETATM   26  H   UNK N   1      36.239  15.295   5.555  0.00  0.00     0.244 HD
ENDBRANCH  22  25
ENDBRANCH   2  21
TORSDOF 5
ENDMDL
