REMARK  5 active torsions:
REMARK  status: ('A' for Active; 'I' for Inactive)
REMARK    1  A    between atoms: C_1  and  S_9 
REMARK    2  A    between atoms: C_4  and  O_7 
REMARK    3  A    between atoms: S_9  and  N_12 
REMARK    4  A    between atoms: C_13  and  C_21 
REMARK       I    between atoms: C_21  and  N_22 
REMARK    5  A    between atoms: N_22  and  O_23 
ROOT
HETATM    1  N   UNK N   1       1.195   1.382   0.242  0.00  0.00    -0.191 NA
HETATM    2  C   UNK N   1      -0.008   1.676  -0.604  0.00  0.00     0.186 C 
HETATM    3  C   UNK N   1      -0.528   3.150  -0.386  0.00  0.00     0.026 C 
HETATM    4  S   UNK N   1       0.534   4.458  -1.095  0.00  0.00    -0.158 SA
HETATM    5  C   UNK N   1       2.018   4.057  -0.154  0.00  0.00     0.076 C 
HETATM    6  C   UNK N   1       2.746   3.008  -0.950  0.00  0.00     0.026 C 
HETATM    7  C   UNK N   1       2.472   1.585  -0.464  0.00  0.00     0.109 C 
HETATM    8  C   UNK N   1      -0.769   3.460   1.087  0.00  0.00     0.029 C 
HETATM    9  C   UNK N   1      -1.860   3.349  -1.104  0.00  0.00     0.029 C 
ENDROOT
BRANCH   1  10
HETATM   10  S   UNK N   1       1.308  -0.250   1.007  0.00  0.00     0.244 S 
HETATM   11  O   UNK N   1       2.741  -0.304   1.565  0.00  0.00    -0.206 OA
HETATM   12  O   UNK N   1       0.569  -0.099   2.345  0.00  0.00    -0.206 OA
BRANCH  10  13
HETATM   13  C   UNK N   1       0.929  -1.872   0.298  0.00  0.00     0.074 A 
HETATM   14  C   UNK N   1       1.956  -2.803   0.094  0.00  0.00     0.027 A 
HETATM   15  C   UNK N   1       1.656  -4.115  -0.296  0.00  0.00     0.038 A 
HETATM   16  C   UNK N   1       0.326  -4.515  -0.471  0.00  0.00     0.068 A 
HETATM   17  C   UNK N   1      -0.703  -3.578  -0.273  0.00  0.00     0.038 A 
HETATM   18  C   UNK N   1      -0.400  -2.272   0.121  0.00  0.00     0.027 A 
BRANCH  16  19
HETATM   19  O   UNK N   1       0.061  -5.801  -0.808  0.00  0.00    -0.356 OA
HETATM   20  C   UNK N   1      -1.217  -6.302  -0.929  0.00  0.00     0.210 C 
ENDBRANCH  16  19
ENDBRANCH  10  13
ENDBRANCH   1  10
BRANCH   2  21
HETATM   21  C   UNK N   1      -1.158   0.711  -0.355  0.00  0.00     0.261 C 
HETATM   22  N   UNK N   1      -1.762   0.656   0.856  0.00  0.00    -0.236 N 
HETATM   23  H   UNK N   1      -1.436   1.226   1.589  0.00  0.00     0.197 HD
HETATM   24  O   UNK N   1      -1.568   0.018  -1.274  0.00  0.00    -0.270 OA
BRANCH  22  25
HETATM   25  O   UNK N   1      -2.800  -0.166   1.067  0.00  0.00    -0.287 OA
HETATM   26  H   UNK N   1      -3.690   0.187   1.219  0.00  0.00     0.244 HD
ENDBRANCH  22  25
ENDBRANCH   2  21
TORSDOF 5
