MODEL 1
REMARK VINA RESULT:      -6.0      0.000      0.000
REMARK  3 active torsions:
REMARK  status: ('A' for Active; 'I' for Inactive)
REMARK    1  A    between atoms: C_1  and  S_14 
REMARK    2  A    between atoms: C_6  and  N_11 
REMARK    3  A    between atoms: S_14  and  N_17 
ROOT
HETATM    1  C   UNK N   1      32.590  17.522   7.328  0.00  0.00     0.090 A 
HETATM    2  C   UNK N   1      31.663  17.537   8.376  0.00  0.00     0.026 A 
HETATM    3  C   UNK N   1      30.308  17.371   8.123  0.00  0.00     0.003 A 
HETATM    4  C   UNK N   1      29.860  17.180   6.819  0.00  0.00     0.014 A 
HETATM    5  C   UNK N   1      30.754  17.143   5.737  0.00  0.00     0.002 A 
HETATM    6  C   UNK N   1      30.301  16.936   4.396  0.00  0.00     0.040 A 
HETATM    7  C   UNK N   1      31.267  16.908   3.371  0.00  0.00     0.030 A 
HETATM    8  C   UNK N   1      32.623  17.077   3.639  0.00  0.00     0.003 A 
HETATM    9  C   UNK N   1      33.059  17.281   4.944  0.00  0.00     0.014 A 
HETATM   10  C   UNK N   1      32.143  17.317   6.002  0.00  0.00    -0.000 A 
ENDROOT
BRANCH   1  11
HETATM   11  S   UNK N   1      34.332  17.745   7.744  0.00  0.00     0.257 S 
HETATM   12  O   UNK N   1      34.935  19.010   8.372  0.00  0.00    -0.201 OA
HETATM   13  O   UNK N   1      35.185  16.547   8.183  0.00  0.00    -0.201 OA
BRANCH  11  14
HETATM   14  N   UNK N   1      33.605  17.575   9.345  0.00  0.00    -0.324 N 
HETATM   15  H   UNK N   1      33.131  17.429  10.237  0.00  0.00     0.169 HD
HETATM   16  H   UNK N   1      34.303  18.184   9.770  0.00  0.00     0.169 HD
ENDBRANCH  11  14
ENDBRANCH   1  11
BRANCH   6  17
HETATM   17  N   UNK N   1      28.916  16.752   4.034  0.00  0.00    -0.389 N 
HETATM   18  C   UNK N   1      28.399  15.426   3.800  0.00  0.00     0.149 C 
HETATM   19  C   UNK N   1      27.986  17.844   3.880  0.00  0.00     0.149 C 
ENDBRANCH   6  17
TORSDOF 3
ENDMDL
MODEL 2
REMARK VINA RESULT:      -6.0      1.652      3.347
REMARK  3 active torsions:
REMARK  status: ('A' for Active; 'I' for Inactive)
REMARK    1  A    between atoms: C_1  and  S_14 
REMARK    2  A    between atoms: C_6  and  N_11 
REMARK    3  A    between atoms: S_14  and  N_17 
ROOT
HETATM    1  C   UNK N   1      32.409  17.553   7.344  0.00  0.00     0.090 A 
HETATM    2  C   UNK N   1      32.682  17.002   6.087  0.00  0.00     0.026 A 
HETATM    3  C   UNK N   1      31.649  16.609   5.247  0.00  0.00     0.003 A 
HETATM    4  C   UNK N   1      30.326  16.770   5.648  0.00  0.00     0.014 A 
HETATM    5  C   UNK N   1      30.002  17.331   6.893  0.00  0.00     0.002 A 
HETATM    6  C   UNK N   1      28.644  17.508   7.307  0.00  0.00     0.040 A 
HETATM    7  C   UNK N   1      28.409  18.085   8.570  0.00  0.00     0.030 A 
HETATM    8  C   UNK N   1      29.456  18.473   9.403  0.00  0.00     0.003 A 
HETATM    9  C   UNK N   1      30.775  18.296   8.998  0.00  0.00     0.014 A 
HETATM   10  C   UNK N   1      31.067  17.730   7.752  0.00  0.00    -0.000 A 
ENDROOT
BRANCH   1  11
HETATM   11  S   UNK N   1      33.810  18.037   8.372  0.00  0.00     0.257 S 
HETATM   12  O   UNK N   1      34.344  17.238   9.571  0.00  0.00    -0.201 OA
HETATM   13  O   UNK N   1      34.984  18.821   7.768  0.00  0.00    -0.201 OA
BRANCH  11  14
HETATM   14  N   UNK N   1      34.490  16.684   7.462  0.00  0.00    -0.324 N 
HETATM   15  H   UNK N   1      34.933  15.892   6.995  0.00  0.00     0.169 HD
HETATM   16  H   UNK N   1      33.831  16.817   6.695  0.00  0.00     0.169 HD
ENDBRANCH  11  14
ENDBRANCH   1  11
BRANCH   6  17
HETATM   17  N   UNK N   1      27.503  17.134   6.504  0.00  0.00    -0.389 N 
HETATM   18  C   UNK N   1      26.967  18.057   5.534  0.00  0.00     0.149 C 
HETATM   19  C   UNK N   1      26.840  15.859   6.617  0.00  0.00     0.149 C 
ENDBRANCH   6  17
TORSDOF 3
ENDMDL
MODEL 3
REMARK VINA RESULT:      -5.8     11.236     13.654
REMARK  3 active torsions:
REMARK  status: ('A' for Active; 'I' for Inactive)
REMARK    1  A    between atoms: C_1  and  S_14 
REMARK    2  A    between atoms: C_6  and  N_11 
REMARK    3  A    between atoms: S_14  and  N_17 
ROOT
HETATM    1  C   UNK N   1      35.318  11.981  15.357  0.00  0.00     0.090 A 
HETATM    2  C   UNK N   1      35.292  10.683  14.835  0.00  0.00     0.026 A 
HETATM    3  C   UNK N   1      35.251   9.582  15.679  0.00  0.00     0.003 A 
HETATM    4  C   UNK N   1      35.227   9.762  17.059  0.00  0.00     0.014 A 
HETATM    5  C   UNK N   1      35.238  11.044  17.629  0.00  0.00     0.002 A 
HETATM    6  C   UNK N   1      35.203  11.237  19.046  0.00  0.00     0.040 A 
HETATM    7  C   UNK N   1      35.210  12.558  19.533  0.00  0.00     0.030 A 
HETATM    8  C   UNK N   1      35.253  13.654  18.674  0.00  0.00     0.003 A 
HETATM    9  C   UNK N   1      35.290  13.463  17.297  0.00  0.00     0.014 A 
HETATM   10  C   UNK N   1      35.282  12.171  16.758  0.00  0.00    -0.000 A 
ENDROOT
BRANCH   1  11
HETATM   11  S   UNK N   1      35.371  13.356  14.189  0.00  0.00     0.257 S 
HETATM   12  O   UNK N   1      36.521  14.366  14.066  0.00  0.00    -0.201 OA
HETATM   13  O   UNK N   1      34.700  13.233  12.814  0.00  0.00    -0.201 OA
BRANCH  11  14
HETATM   14  N   UNK N   1      36.567  12.257  13.496  0.00  0.00    -0.324 N 
HETATM   15  H   UNK N   1      37.309  11.682  13.096  0.00  0.00     0.169 HD
HETATM   16  H   UNK N   1      35.908  11.478  13.493  0.00  0.00     0.169 HD
ENDBRANCH  11  14
ENDBRANCH   1  11
BRANCH   6  17
HETATM   17  N   UNK N   1      35.157  10.157  20.004  0.00  0.00    -0.389 N 
HETATM   18  C   UNK N   1      36.378   9.645  20.576  0.00  0.00     0.149 C 
HETATM   19  C   UNK N   1      33.931   9.532  20.435  0.00  0.00     0.149 C 
ENDBRANCH   6  17
TORSDOF 3
ENDMDL
MODEL 4
REMARK VINA RESULT:      -5.7     12.183     13.722
REMARK  3 active torsions:
REMARK  status: ('A' for Active; 'I' for Inactive)
REMARK    1  A    between atoms: C_1  and  S_14 
REMARK    2  A    between atoms: C_6  and  N_11 
REMARK    3  A    between atoms: S_14  and  N_17 
ROOT
HETATM    1  C   UNK N   1      29.403  23.197  -4.448  0.00  0.00     0.090 A 
HETATM    2  C   UNK N   1      30.123  22.294  -5.238  0.00  0.00     0.026 A 
HETATM    3  C   UNK N   1      29.576  21.788  -6.410  0.00  0.00     0.003 A 
HETATM    4  C   UNK N   1      28.304  22.183  -6.813  0.00  0.00     0.014 A 
HETATM    5  C   UNK N   1      27.549  23.097  -6.060  0.00  0.00     0.002 A 
HETATM    6  C   UNK N   1      26.245  23.515  -6.475  0.00  0.00     0.040 A 
HETATM    7  C   UNK N   1      25.560  24.440  -5.663  0.00  0.00     0.030 A 
HETATM    8  C   UNK N   1      26.121  24.939  -4.489  0.00  0.00     0.003 A 
HETATM    9  C   UNK N   1      27.387  24.528  -4.089  0.00  0.00     0.014 A 
HETATM   10  C   UNK N   1      28.114  23.612  -4.858  0.00  0.00    -0.000 A 
ENDROOT
BRANCH   1  11
HETATM   11  S   UNK N   1      30.188  23.806  -2.942  0.00  0.00     0.257 S 
HETATM   12  O   UNK N   1      30.845  22.925  -1.869  0.00  0.00    -0.201 OA
HETATM   13  O   UNK N   1      30.894  25.170  -2.930  0.00  0.00    -0.201 OA
BRANCH  11  14
HETATM   14  N   UNK N   1      31.589  23.299  -3.890  0.00  0.00    -0.324 N 
HETATM   15  H   UNK N   1      32.433  23.074  -4.417  0.00  0.00     0.169 HD
HETATM   16  H   UNK N   1      31.140  22.423  -4.157  0.00  0.00     0.169 HD
ENDBRANCH  11  14
ENDBRANCH   1  11
BRANCH   6  17
HETATM   17  N   UNK N   1      25.594  23.047  -7.675  0.00  0.00    -0.389 N 
HETATM   18  C   UNK N   1      25.618  23.852  -8.872  0.00  0.00     0.149 C 
HETATM   19  C   UNK N   1      24.894  21.789  -7.758  0.00  0.00     0.149 C 
ENDBRANCH   6  17
TORSDOF 3
ENDMDL
MODEL 5
REMARK VINA RESULT:      -5.6     11.794     14.047
REMARK  3 active torsions:
REMARK  status: ('A' for Active; 'I' for Inactive)
REMARK    1  A    between atoms: C_1  and  S_14 
REMARK    2  A    between atoms: C_6  and  N_11 
REMARK    3  A    between atoms: S_14  and  N_17 
ROOT
HETATM    1  C   UNK N   1      35.489  12.550  16.261  0.00  0.00     0.090 A 
HETATM    2  C   UNK N   1      35.478  13.759  16.966  0.00  0.00     0.026 A 
HETATM    3  C   UNK N   1      35.347  13.769  18.349  0.00  0.00     0.003 A 
HETATM    4  C   UNK N   1      35.235  12.571  19.047  0.00  0.00     0.014 A 
HETATM    5  C   UNK N   1      35.255  11.334  18.385  0.00  0.00     0.002 A 
HETATM    6  C   UNK N   1      35.150  10.098  19.098  0.00  0.00     0.040 A 
HETATM    7  C   UNK N   1      35.186   8.902  18.355  0.00  0.00     0.030 A 
HETATM    8  C   UNK N   1      35.315   8.906  16.968  0.00  0.00     0.003 A 
HETATM    9  C   UNK N   1      35.414  10.110  16.278  0.00  0.00     0.014 A 
HETATM   10  C   UNK N   1      35.387  11.328  16.966  0.00  0.00    -0.000 A 
ENDROOT
BRANCH   1  11
HETATM   11  S   UNK N   1      35.662  12.626  14.467  0.00  0.00     0.257 S 
HETATM   12  O   UNK N   1      35.182  13.786  13.581  0.00  0.00    -0.201 OA
HETATM   13  O   UNK N   1      36.864  11.969  13.773  0.00  0.00    -0.201 OA
BRANCH  11  14
HETATM   14  N   UNK N   1      36.854  13.821  14.988  0.00  0.00    -0.324 N 
HETATM   15  H   UNK N   1      37.599  14.458  15.269  0.00  0.00     0.169 HD
HETATM   16  H   UNK N   1      36.130  14.496  15.231  0.00  0.00     0.169 HD
ENDBRANCH  11  14
ENDBRANCH   1  11
BRANCH   6  17
HETATM   17  N   UNK N   1      35.014  10.006  20.533  0.00  0.00    -0.389 N 
HETATM   18  C   UNK N   1      36.185   9.867  21.363  0.00  0.00     0.149 C 
HETATM   19  C   UNK N   1      33.742  10.040  21.211  0.00  0.00     0.149 C 
ENDBRANCH   6  17
TORSDOF 3
ENDMDL
MODEL 6
REMARK VINA RESULT:      -5.6      7.350      9.460
REMARK  3 active torsions:
REMARK  status: ('A' for Active; 'I' for Inactive)
REMARK    1  A    between atoms: C_1  and  S_14 
REMARK    2  A    between atoms: C_6  and  N_11 
REMARK    3  A    between atoms: S_14  and  N_17 
ROOT
HETATM    1  C   UNK N   1      22.773  19.081   3.723  0.00  0.00     0.090 A 
HETATM    2  C   UNK N   1      22.333  17.952   4.424  0.00  0.00     0.026 A 
HETATM    3  C   UNK N   1      23.243  17.102   5.038  0.00  0.00     0.003 A 
HETATM    4  C   UNK N   1      24.606  17.370   4.965  0.00  0.00     0.014 A 
HETATM    5  C   UNK N   1      25.094  18.497   4.285  0.00  0.00     0.002 A 
HETATM    6  C   UNK N   1      26.494  18.785   4.216  0.00  0.00     0.040 A 
HETATM    7  C   UNK N   1      26.897  19.940   3.518  0.00  0.00     0.030 A 
HETATM    8  C   UNK N   1      25.973  20.784   2.906  0.00  0.00     0.003 A 
HETATM    9  C   UNK N   1      24.613  20.499   2.973  0.00  0.00     0.014 A 
HETATM   10  C   UNK N   1      24.156  19.366   3.655  0.00  0.00    -0.000 A 
ENDROOT
BRANCH   1  11
HETATM   11  S   UNK N   1      21.524  20.133   2.956  0.00  0.00     0.257 S 
HETATM   12  O   UNK N   1      21.095  20.065   1.483  0.00  0.00    -0.201 OA
HETATM   13  O   UNK N   1      20.328  20.641   3.773  0.00  0.00    -0.201 OA
BRANCH  11  14
HETATM   14  N   UNK N   1      20.680  18.583   3.035  0.00  0.00    -0.324 N 
HETATM   15  H   UNK N   1      20.149  17.712   3.020  0.00  0.00     0.169 HD
HETATM   16  H   UNK N   1      21.246  18.271   3.824  0.00  0.00     0.169 HD
ENDBRANCH  11  14
ENDBRANCH   1  11
BRANCH   6  17
HETATM   17  N   UNK N   1      27.515  17.963   4.822  0.00  0.00    -0.389 N 
HETATM   18  C   UNK N   1      27.959  18.235   6.167  0.00  0.00     0.149 C 
HETATM   19  C   UNK N   1      28.145  16.856   4.146  0.00  0.00     0.149 C 
ENDBRANCH   6  17
TORSDOF 3
ENDMDL
MODEL 7
REMARK VINA RESULT:      -5.3     12.019     13.739
REMARK  3 active torsions:
REMARK  status: ('A' for Active; 'I' for Inactive)
REMARK    1  A    between atoms: C_1  and  S_14 
REMARK    2  A    between atoms: C_6  and  N_11 
REMARK    3  A    between atoms: S_14  and  N_17 
ROOT
HETATM    1  C   UNK N   1      29.997  24.419  -3.478  0.00  0.00     0.090 A 
HETATM    2  C   UNK N   1      31.085  25.300  -3.472  0.00  0.00     0.026 A 
HETATM    3  C   UNK N   1      30.911  26.640  -3.790  0.00  0.00     0.003 A 
HETATM    4  C   UNK N   1      29.646  27.122  -4.112  0.00  0.00     0.014 A 
HETATM    5  C   UNK N   1      28.523  26.280  -4.118  0.00  0.00     0.002 A 
HETATM    6  C   UNK N   1      27.218  26.772  -4.437  0.00  0.00     0.040 A 
HETATM    7  C   UNK N   1      26.145  25.859  -4.413  0.00  0.00     0.030 A 
HETATM    8  C   UNK N   1      26.334  24.517  -4.094  0.00  0.00     0.003 A 
HETATM    9  C   UNK N   1      27.604  24.043  -3.786  0.00  0.00     0.014 A 
HETATM   10  C   UNK N   1      28.707  24.905  -3.793  0.00  0.00    -0.000 A 
ENDROOT
BRANCH   1  11
HETATM   11  S   UNK N   1      30.310  22.694  -3.052  0.00  0.00     0.257 S 
HETATM   12  O   UNK N   1      30.160  21.505  -4.013  0.00  0.00    -0.201 OA
HETATM   13  O   UNK N   1      31.385  22.332  -2.018  0.00  0.00    -0.201 OA
BRANCH  11  14
HETATM   14  N   UNK N   1      31.695  23.060  -4.086  0.00  0.00    -0.324 N 
HETATM   15  H   UNK N   1      32.443  23.281  -4.742  0.00  0.00     0.169 HD
HETATM   16  H   UNK N   1      32.352  22.933  -3.317  0.00  0.00     0.169 HD
ENDBRANCH  11  14
ENDBRANCH   1  11
BRANCH   6  17
HETATM   17  N   UNK N   1      26.937  28.146  -4.778  0.00  0.00    -0.389 N 
HETATM   18  C   UNK N   1      26.273  29.006  -3.830  0.00  0.00     0.149 C 
HETATM   19  C   UNK N   1      27.284  28.734  -6.049  0.00  0.00     0.149 C 
ENDBRANCH   6  17
TORSDOF 3
ENDMDL
MODEL 8
REMARK VINA RESULT:      -5.2     11.410     13.253
REMARK  3 active torsions:
REMARK  status: ('A' for Active; 'I' for Inactive)
REMARK    1  A    between atoms: C_1  and  S_14 
REMARK    2  A    between atoms: C_6  and  N_11 
REMARK    3  A    between atoms: S_14  and  N_17 
ROOT
HETATM    1  C   UNK N   1      35.537  11.587  18.319  0.00  0.00     0.090 A 
HETATM    2  C   UNK N   1      35.073  12.906  18.261  0.00  0.00     0.026 A 
HETATM    3  C   UNK N   1      34.967  13.565  17.043  0.00  0.00     0.003 A 
HETATM    4  C   UNK N   1      35.317  12.913  15.865  0.00  0.00     0.014 A 
HETATM    5  C   UNK N   1      35.775  11.586  15.871  0.00  0.00     0.002 A 
HETATM    6  C   UNK N   1      36.125  10.906  14.662  0.00  0.00     0.040 A 
HETATM    7  C   UNK N   1      36.569   9.573  14.760  0.00  0.00     0.030 A 
HETATM    8  C   UNK N   1      36.672   8.925  15.988  0.00  0.00     0.003 A 
HETATM    9  C   UNK N   1      36.332   9.590  17.162  0.00  0.00     0.014 A 
HETATM   10  C   UNK N   1      35.883  10.915  17.124  0.00  0.00    -0.000 A 
ENDROOT
BRANCH   1  11
HETATM   11  S   UNK N   1      35.644  10.805  19.941  0.00  0.00     0.257 S 
HETATM   12  O   UNK N   1      36.903  10.760  20.820  0.00  0.00    -0.201 OA
HETATM   13  O   UNK N   1      34.420  10.768  20.867  0.00  0.00    -0.201 OA
BRANCH  11  14
HETATM   14  N   UNK N   1      35.683  12.518  20.371  0.00  0.00    -0.324 N 
HETATM   15  H   UNK N   1      35.774  13.493  20.656  0.00  0.00     0.169 HD
HETATM   16  H   UNK N   1      34.801  12.699  19.893  0.00  0.00     0.169 HD
ENDBRANCH  11  14
ENDBRANCH   1  11
BRANCH   6  17
HETATM   17  N   UNK N   1      36.047  11.506  13.351  0.00  0.00    -0.389 N 
HETATM   18  C   UNK N   1      34.833  11.404  12.580  0.00  0.00     0.149 C 
HETATM   19  C   UNK N   1      37.142  12.217  12.739  0.00  0.00     0.149 C 
ENDBRANCH   6  17
TORSDOF 3
ENDMDL
MODEL 9
REMARK VINA RESULT:      -5.2      2.737      3.613
REMARK  3 active torsions:
REMARK  status: ('A' for Active; 'I' for Inactive)
REMARK    1  A    between atoms: C_1  and  S_14 
REMARK    2  A    between atoms: C_6  and  N_11 
REMARK    3  A    between atoms: S_14  and  N_17 
ROOT
HETATM    1  C   UNK N   1      34.614  16.260   8.777  0.00  0.00     0.090 A 
HETATM    2  C   UNK N   1      34.546  17.655   8.695  0.00  0.00     0.026 A 
HETATM    3  C   UNK N   1      33.904  18.270   7.629  0.00  0.00     0.003 A 
HETATM    4  C   UNK N   1      33.312  17.500   6.633  0.00  0.00     0.014 A 
HETATM    5  C   UNK N   1      33.342  16.097   6.679  0.00  0.00     0.002 A 
HETATM    6  C   UNK N   1      32.726  15.299   5.664  0.00  0.00     0.040 A 
HETATM    7  C   UNK N   1      32.798  13.899   5.791  0.00  0.00     0.030 A 
HETATM    8  C   UNK N   1      33.447  13.295   6.866  0.00  0.00     0.003 A 
HETATM    9  C   UNK N   1      34.047  14.074   7.849  0.00  0.00     0.014 A 
HETATM   10  C   UNK N   1      34.005  15.471   7.774  0.00  0.00    -0.000 A 
ENDROOT
BRANCH   1  11
HETATM   11  S   UNK N   1      35.467  15.542  10.195  0.00  0.00     0.257 S 
HETATM   12  O   UNK N   1      36.851  15.972  10.705  0.00  0.00    -0.201 OA
HETATM   13  O   UNK N   1      34.669  15.005  11.392  0.00  0.00    -0.201 OA
BRANCH  11  14
HETATM   14  N   UNK N   1      34.995  17.121  10.829  0.00  0.00    -0.324 N 
HETATM   15  H   UNK N   1      34.748  18.009  11.266  0.00  0.00     0.169 HD
HETATM   16  H   UNK N   1      34.678  17.438   9.914  0.00  0.00     0.169 HD
ENDBRANCH  11  14
ENDBRANCH   1  11
BRANCH   6  17
HETATM   17  N   UNK N   1      32.035  15.846   4.520  0.00  0.00    -0.389 N 
HETATM   18  C   UNK N   1      32.750  16.094   3.293  0.00  0.00     0.149 C 
HETATM   19  C   UNK N   1      30.631  16.175   4.527  0.00  0.00     0.149 C 
ENDBRANCH   6  17
TORSDOF 3
ENDMDL
