MODEL 1
REMARK VINA RESULT:      -7.2      0.000      0.000
REMARK  3 active torsions:
REMARK  status: ('A' for Active; 'I' for Inactive)
REMARK    1  A    between atoms: C_1  and  O_16 
REMARK    2  A    between atoms: C_11  and  O_17 
REMARK    3  A    between atoms: C_14  and  N_18 
ROOT
HETATM    1  C   UNK N   1      28.171  17.798   7.536  0.00  0.00     0.082 A 
HETATM    2  C   UNK N   1      29.393  17.560   6.856  0.00  0.00     0.082 A 
HETATM    3  C   UNK N   1      30.593  17.573   7.601  0.00  0.00     0.093 A 
HETATM    4  C   UNK N   1      30.574  17.814   8.975  0.00  0.00     0.038 A 
HETATM    5  C   UNK N   1      29.368  18.046   9.631  0.00  0.00     0.006 A 
HETATM    6  C   UNK N   1      28.172  18.038   8.914  0.00  0.00     0.037 A 
HETATM    7  O   UNK N   1      31.754  17.357   7.014  0.00  0.00    -0.306 OA
HETATM    8  C   UNK N   1      31.886  17.118   5.717  0.00  0.00     0.126 A 
HETATM    9  C   UNK N   1      30.742  17.083   4.877  0.00  0.00     0.085 A 
HETATM   10  C   UNK N   1      29.474  17.310   5.467  0.00  0.00     0.203 A 
HETATM   11  C   UNK N   1      30.914  16.825   3.494  0.00  0.00     0.082 A 
HETATM   12  C   UNK N   1      32.194  16.611   2.980  0.00  0.00     0.040 A 
HETATM   13  C   UNK N   1      33.311  16.647   3.813  0.00  0.00     0.042 A 
HETATM   14  C   UNK N   1      33.175  16.899   5.184  0.00  0.00     0.137 A 
HETATM   15  O   UNK N   1      28.462  17.290   4.784  0.00  0.00    -0.286 OA
ENDROOT
BRANCH  14  16
HETATM   16  N   UNK N   1      34.341  16.930   6.013  0.00  0.00    -0.113 N 
HETATM   17  O   UNK N   1      34.599  17.992   6.747  0.00  0.00    -0.532 OA
HETATM   18  O   UNK N   1      35.092  16.003   6.054  0.00  0.00    -0.532 OA
ENDBRANCH  14  16
BRANCH  11  19
HETATM   19  O   UNK N   1      29.865  16.781   2.653  0.00  0.00    -0.360 OA
HETATM   20  H   UNK N   1      29.771  17.434   1.987  0.00  0.00     0.217 HD
ENDBRANCH  11  19
BRANCH   1  21
HETATM   21  O   UNK N   1      26.996  17.798   6.882  0.00  0.00    -0.360 OA
HETATM   22  H   UNK N   1      26.908  18.269   6.076  0.00  0.00     0.217 HD
ENDBRANCH   1  21
TORSDOF 3
ENDMDL
MODEL 2
REMARK VINA RESULT:      -7.0      7.432     10.054
REMARK  3 active torsions:
REMARK  status: ('A' for Active; 'I' for Inactive)
REMARK    1  A    between atoms: C_1  and  O_16 
REMARK    2  A    between atoms: C_11  and  O_17 
REMARK    3  A    between atoms: C_14  and  N_18 
ROOT
HETATM    1  C   UNK N   1      25.763  18.680   4.876  0.00  0.00     0.082 A 
HETATM    2  C   UNK N   1      24.500  18.885   4.266  0.00  0.00     0.082 A 
HETATM    3  C   UNK N   1      24.381  19.891   3.281  0.00  0.00     0.093 A 
HETATM    4  C   UNK N   1      25.484  20.664   2.918  0.00  0.00     0.038 A 
HETATM    5  C   UNK N   1      26.719  20.454   3.524  0.00  0.00     0.006 A 
HETATM    6  C   UNK N   1      26.858  19.466   4.498  0.00  0.00     0.037 A 
HETATM    7  O   UNK N   1      23.226  20.120   2.685  0.00  0.00    -0.306 OA
HETATM    8  C   UNK N   1      22.117  19.445   2.953  0.00  0.00     0.126 A 
HETATM    9  C   UNK N   1      22.128  18.412   3.927  0.00  0.00     0.085 A 
HETATM   10  C   UNK N   1      23.347  18.134   4.592  0.00  0.00     0.203 A 
HETATM   11  C   UNK N   1      20.926  17.708   4.193  0.00  0.00     0.082 A 
HETATM   12  C   UNK N   1      19.760  18.036   3.500  0.00  0.00     0.040 A 
HETATM   13  C   UNK N   1      19.760  19.052   2.545  0.00  0.00     0.042 A 
HETATM   14  C   UNK N   1      20.930  19.766   2.260  0.00  0.00     0.137 A 
HETATM   15  O   UNK N   1      23.404  17.255   5.437  0.00  0.00    -0.286 OA
ENDROOT
BRANCH  14  16
HETATM   16  N   UNK N   1      20.899  20.804   1.274  0.00  0.00    -0.113 N 
HETATM   17  O   UNK N   1      21.103  20.513   0.006  0.00  0.00    -0.532 OA
HETATM   18  O   UNK N   1      20.689  21.938   1.581  0.00  0.00    -0.532 OA
ENDBRANCH  14  16
BRANCH  11  19
HETATM   19  O   UNK N   1      20.880  16.721   5.106  0.00  0.00    -0.360 OA
HETATM   20  H   UNK N   1      21.669  16.285   5.365  0.00  0.00     0.217 HD
ENDBRANCH  11  19
BRANCH   1  21
HETATM   21  O   UNK N   1      25.939  17.739   5.819  0.00  0.00    -0.360 OA
HETATM   22  H   UNK N   1      25.434  16.949   5.794  0.00  0.00     0.217 HD
ENDBRANCH   1  21
TORSDOF 3
ENDMDL
MODEL 3
REMARK VINA RESULT:      -6.7      1.849      2.212
REMARK  3 active torsions:
REMARK  status: ('A' for Active; 'I' for Inactive)
REMARK    1  A    between atoms: C_1  and  O_16 
REMARK    2  A    between atoms: C_11  and  O_17 
REMARK    3  A    between atoms: C_14  and  N_18 
ROOT
HETATM    1  C   UNK N   1      28.438  17.177   7.428  0.00  0.00     0.082 A 
HETATM    2  C   UNK N   1      29.854  17.140   7.352  0.00  0.00     0.082 A 
HETATM    3  C   UNK N   1      30.601  17.815   8.343  0.00  0.00     0.093 A 
HETATM    4  C   UNK N   1      29.958  18.502   9.373  0.00  0.00     0.038 A 
HETATM    5  C   UNK N   1      28.568  18.531   9.437  0.00  0.00     0.006 A 
HETATM    6  C   UNK N   1      27.812  17.871   8.468  0.00  0.00     0.037 A 
HETATM    7  O   UNK N   1      31.920  17.810   8.315  0.00  0.00    -0.306 OA
HETATM    8  C   UNK N   1      32.630  17.190   7.383  0.00  0.00     0.126 A 
HETATM    9  C   UNK N   1      31.977  16.481   6.341  0.00  0.00     0.085 A 
HETATM   10  C   UNK N   1      30.561  16.461   6.333  0.00  0.00     0.203 A 
HETATM   11  C   UNK N   1      32.764  15.828   5.358  0.00  0.00     0.082 A 
HETATM   12  C   UNK N   1      34.156  15.889   5.428  0.00  0.00     0.040 A 
HETATM   13  C   UNK N   1      34.788  16.587   6.456  0.00  0.00     0.042 A 
HETATM   14  C   UNK N   1      34.040  17.243   7.442  0.00  0.00     0.137 A 
HETATM   15  O   UNK N   1      29.956  15.865   5.455  0.00  0.00    -0.286 OA
ENDROOT
BRANCH  14  16
HETATM   16  N   UNK N   1      34.718  17.952   8.484  0.00  0.00    -0.113 N 
HETATM   17  O   UNK N   1      34.905  17.379   9.655  0.00  0.00    -0.532 OA
HETATM   18  O   UNK N   1      35.120  19.063   8.313  0.00  0.00    -0.532 OA
ENDBRANCH  14  16
BRANCH  11  19
HETATM   19  O   UNK N   1      32.196  15.143   4.349  0.00  0.00    -0.360 OA
HETATM   20  H   UNK N   1      32.346  14.221   4.267  0.00  0.00     0.217 HD
ENDBRANCH  11  19
BRANCH   1  21
HETATM   21  O   UNK N   1      27.673  16.555   6.514  0.00  0.00    -0.360 OA
HETATM   22  H   UNK N   1      28.008  15.813   6.050  0.00  0.00     0.217 HD
ENDBRANCH   1  21
TORSDOF 3
ENDMDL
MODEL 4
REMARK VINA RESULT:      -6.7      2.433      4.172
REMARK  3 active torsions:
REMARK  status: ('A' for Active; 'I' for Inactive)
REMARK    1  A    between atoms: C_1  and  O_16 
REMARK    2  A    between atoms: C_11  and  O_17 
REMARK    3  A    between atoms: C_14  and  N_18 
ROOT
HETATM    1  C   UNK N   1      26.854  20.205   6.726  0.00  0.00     0.082 A 
HETATM    2  C   UNK N   1      27.910  19.282   6.517  0.00  0.00     0.082 A 
HETATM    3  C   UNK N   1      28.296  18.987   5.190  0.00  0.00     0.093 A 
HETATM    4  C   UNK N   1      27.649  19.591   4.111  0.00  0.00     0.038 A 
HETATM    5  C   UNK N   1      26.614  20.495   4.329  0.00  0.00     0.006 A 
HETATM    6  C   UNK N   1      26.218  20.801   5.631  0.00  0.00     0.037 A 
HETATM    7  O   UNK N   1      29.273  18.135   4.945  0.00  0.00    -0.306 OA
HETATM    8  C   UNK N   1      29.951  17.506   5.894  0.00  0.00     0.126 A 
HETATM    9  C   UNK N   1      29.644  17.732   7.261  0.00  0.00     0.085 A 
HETATM   10  C   UNK N   1      28.601  18.640   7.569  0.00  0.00     0.203 A 
HETATM   11  C   UNK N   1      30.388  17.045   8.254  0.00  0.00     0.082 A 
HETATM   12  C   UNK N   1      31.402  16.164   7.877  0.00  0.00     0.040 A 
HETATM   13  C   UNK N   1      31.697  15.949   6.532  0.00  0.00     0.042 A 
HETATM   14  C   UNK N   1      30.981  16.612   5.527  0.00  0.00     0.137 A 
HETATM   15  O   UNK N   1      28.301  18.865   8.732  0.00  0.00    -0.286 OA
ENDROOT
BRANCH  14  16
HETATM   16  N   UNK N   1      31.307  16.370   4.154  0.00  0.00    -0.113 N 
HETATM   17  O   UNK N   1      32.124  17.184   3.519  0.00  0.00    -0.532 OA
HETATM   18  O   UNK N   1      30.848  15.437   3.568  0.00  0.00    -0.532 OA
ENDBRANCH  14  16
BRANCH  11  19
HETATM   19  O   UNK N   1      30.138  17.221   9.564  0.00  0.00    -0.360 OA
HETATM   20  H   UNK N   1      29.324  17.598   9.838  0.00  0.00     0.217 HD
ENDBRANCH  11  19
BRANCH   1  21
HETATM   21  O   UNK N   1      26.442  20.527   7.964  0.00  0.00    -0.360 OA
HETATM   22  H   UNK N   1      25.525  20.580   8.155  0.00  0.00     0.217 HD
ENDBRANCH   1  21
TORSDOF 3
ENDMDL
MODEL 5
REMARK VINA RESULT:      -6.6     11.729     13.599
REMARK  3 active torsions:
REMARK  status: ('A' for Active; 'I' for Inactive)
REMARK    1  A    between atoms: C_1  and  O_16 
REMARK    2  A    between atoms: C_11  and  O_17 
REMARK    3  A    between atoms: C_14  and  N_18 
ROOT
HETATM    1  C   UNK N   1      26.100  25.905  -6.660  0.00  0.00     0.082 A 
HETATM    2  C   UNK N   1      26.963  25.053  -5.924  0.00  0.00     0.082 A 
HETATM    3  C   UNK N   1      27.070  25.243  -4.529  0.00  0.00     0.093 A 
HETATM    4  C   UNK N   1      26.343  26.248  -3.891  0.00  0.00     0.038 A 
HETATM    5  C   UNK N   1      25.500  27.079  -4.623  0.00  0.00     0.006 A 
HETATM    6  C   UNK N   1      25.379  26.907  -6.002  0.00  0.00     0.037 A 
HETATM    7  O   UNK N   1      27.860  24.476  -3.802  0.00  0.00    -0.306 OA
HETATM    8  C   UNK N   1      28.593  23.494  -4.306  0.00  0.00     0.126 A 
HETATM    9  C   UNK N   1      28.559  23.218  -5.698  0.00  0.00     0.085 A 
HETATM   10  C   UNK N   1      27.724  24.019  -6.516  0.00  0.00     0.203 A 
HETATM   11  C   UNK N   1      29.355  22.161  -6.208  0.00  0.00     0.082 A 
HETATM   12  C   UNK N   1      30.154  21.413  -5.343  0.00  0.00     0.040 A 
HETATM   13  C   UNK N   1      30.181  21.692  -3.977  0.00  0.00     0.042 A 
HETATM   14  C   UNK N   1      29.407  22.728  -3.442  0.00  0.00     0.137 A 
HETATM   15  O   UNK N   1      27.662  23.818  -7.719  0.00  0.00    -0.286 OA
ENDROOT
BRANCH  14  16
HETATM   16  N   UNK N   1      29.456  22.990  -2.035  0.00  0.00    -0.113 N 
HETATM   17  O   UNK N   1      28.345  23.001  -1.330  0.00  0.00    -0.532 OA
HETATM   18  O   UNK N   1      30.495  23.200  -1.484  0.00  0.00    -0.532 OA
ENDBRANCH  14  16
BRANCH  11  19
HETATM   19  O   UNK N   1      29.359  21.858  -7.518  0.00  0.00    -0.360 OA
HETATM   20  H   UNK N   1      28.549  21.750  -7.977  0.00  0.00     0.217 HD
ENDBRANCH  11  19
BRANCH   1  21
HETATM   21  O   UNK N   1      25.956  25.774  -7.990  0.00  0.00    -0.360 OA
HETATM   22  H   UNK N   1      25.111  25.591  -8.354  0.00  0.00     0.217 HD
ENDBRANCH   1  21
TORSDOF 3
ENDMDL
MODEL 6
REMARK VINA RESULT:      -6.5      7.724     10.272
REMARK  3 active torsions:
REMARK  status: ('A' for Active; 'I' for Inactive)
REMARK    1  A    between atoms: C_1  and  O_16 
REMARK    2  A    between atoms: C_11  and  O_17 
REMARK    3  A    between atoms: C_14  and  N_18 
ROOT
HETATM    1  C   UNK N   1      23.840  12.328  11.182  0.00  0.00     0.082 A 
HETATM    2  C   UNK N   1      23.357  12.955  10.005  0.00  0.00     0.082 A 
HETATM    3  C   UNK N   1      21.961  13.058   9.818  0.00  0.00     0.093 A 
HETATM    4  C   UNK N   1      21.078  12.551  10.772  0.00  0.00     0.038 A 
HETATM    5  C   UNK N   1      21.562  11.938  11.923  0.00  0.00     0.006 A 
HETATM    6  C   UNK N   1      22.938  11.826  12.126  0.00  0.00     0.037 A 
HETATM    7  O   UNK N   1      21.464  13.633   8.740  0.00  0.00    -0.306 OA
HETATM    8  C   UNK N   1      22.212  14.146   7.773  0.00  0.00     0.126 A 
HETATM    9  C   UNK N   1      23.628  14.096   7.862  0.00  0.00     0.085 A 
HETATM   10  C   UNK N   1      24.203  13.486   9.004  0.00  0.00     0.203 A 
HETATM   11  C   UNK N   1      24.401  14.653   6.812  0.00  0.00     0.082 A 
HETATM   12  C   UNK N   1      23.767  15.238   5.716  0.00  0.00     0.040 A 
HETATM   13  C   UNK N   1      22.376  15.282   5.638  0.00  0.00     0.042 A 
HETATM   14  C   UNK N   1      21.583  14.741   6.658  0.00  0.00     0.137 A 
HETATM   15  O   UNK N   1      25.417  13.420   9.124  0.00  0.00    -0.286 OA
ENDROOT
BRANCH  14  16
HETATM   16  N   UNK N   1      20.157  14.802   6.549  0.00  0.00    -0.113 N 
HETATM   17  O   UNK N   1      19.481  15.687   7.250  0.00  0.00    -0.532 OA
HETATM   18  O   UNK N   1      19.562  14.059   5.828  0.00  0.00    -0.532 OA
ENDBRANCH  14  16
BRANCH  11  19
HETATM   19  O   UNK N   1      25.746  14.632   6.846  0.00  0.00    -0.360 OA
HETATM   20  H   UNK N   1      26.190  14.202   7.551  0.00  0.00     0.217 HD
ENDBRANCH  11  19
BRANCH   1  21
HETATM   21  O   UNK N   1      25.157  12.200  11.416  0.00  0.00    -0.360 OA
HETATM   22  H   UNK N   1      25.595  11.398  11.208  0.00  0.00     0.217 HD
ENDBRANCH   1  21
TORSDOF 3
ENDMDL
MODEL 7
REMARK VINA RESULT:      -6.5      4.665      6.600
REMARK  3 active torsions:
REMARK  status: ('A' for Active; 'I' for Inactive)
REMARK    1  A    between atoms: C_1  and  O_16 
REMARK    2  A    between atoms: C_11  and  O_17 
REMARK    3  A    between atoms: C_14  and  N_18 
ROOT
HETATM    1  C   UNK N   1      35.787  14.696  11.745  0.00  0.00     0.082 A 
HETATM    2  C   UNK N   1      35.181  15.016  10.504  0.00  0.00     0.082 A 
HETATM    3  C   UNK N   1      34.531  13.989   9.785  0.00  0.00     0.093 A 
HETATM    4  C   UNK N   1      34.488  12.688  10.287  0.00  0.00     0.038 A 
HETATM    5  C   UNK N   1      35.086  12.385  11.506  0.00  0.00     0.006 A 
HETATM    6  C   UNK N   1      35.733  13.385  12.232  0.00  0.00     0.037 A 
HETATM    7  O   UNK N   1      33.952  14.238   8.625  0.00  0.00    -0.306 OA
HETATM    8  C   UNK N   1      33.934  15.436   8.058  0.00  0.00     0.126 A 
HETATM    9  C   UNK N   1      34.559  16.538   8.698  0.00  0.00     0.085 A 
HETATM   10  C   UNK N   1      35.193  16.315   9.945  0.00  0.00     0.203 A 
HETATM   11  C   UNK N   1      34.523  17.808   8.067  0.00  0.00     0.082 A 
HETATM   12  C   UNK N   1      33.881  17.955   6.837  0.00  0.00     0.040 A 
HETATM   13  C   UNK N   1      33.270  16.866   6.217  0.00  0.00     0.042 A 
HETATM   14  C   UNK N   1      33.288  15.600   6.814  0.00  0.00     0.137 A 
HETATM   15  O   UNK N   1      35.743  17.234  10.532  0.00  0.00    -0.286 OA
ENDROOT
BRANCH  14  16
HETATM   16  N   UNK N   1      32.652  14.501   6.152  0.00  0.00    -0.113 N 
HETATM   17  O   UNK N   1      31.401  14.201   6.430  0.00  0.00    -0.532 OA
HETATM   18  O   UNK N   1      33.239  13.844   5.346  0.00  0.00    -0.532 OA
ENDBRANCH  14  16
BRANCH  11  19
HETATM   19  O   UNK N   1      35.099  18.886   8.629  0.00  0.00    -0.360 OA
HETATM   20  H   UNK N   1      34.627  19.393   9.261  0.00  0.00     0.217 HD
ENDBRANCH  11  19
BRANCH   1  21
HETATM   21  O   UNK N   1      36.421  15.630  12.476  0.00  0.00    -0.360 OA
HETATM   22  H   UNK N   1      37.174  16.067  12.128  0.00  0.00     0.217 HD
ENDBRANCH   1  21
TORSDOF 3
ENDMDL
MODEL 8
REMARK VINA RESULT:      -6.4      8.768     10.616
REMARK  3 active torsions:
REMARK  status: ('A' for Active; 'I' for Inactive)
REMARK    1  A    between atoms: C_1  and  O_16 
REMARK    2  A    between atoms: C_11  and  O_17 
REMARK    3  A    between atoms: C_14  and  N_18 
ROOT
HETATM    1  C   UNK N   1      23.288  12.148   9.071  0.00  0.00     0.082 A 
HETATM    2  C   UNK N   1      22.683  13.350   8.625  0.00  0.00     0.082 A 
HETATM    3  C   UNK N   1      21.590  13.868   9.356  0.00  0.00     0.093 A 
HETATM    4  C   UNK N   1      21.119  13.209  10.492  0.00  0.00     0.038 A 
HETATM    5  C   UNK N   1      21.721  12.029  10.920  0.00  0.00     0.006 A 
HETATM    6  C   UNK N   1      22.801  11.502  10.212  0.00  0.00     0.037 A 
HETATM    7  O   UNK N   1      20.994  14.984   8.980  0.00  0.00    -0.306 OA
HETATM    8  C   UNK N   1      21.360  15.688   7.919  0.00  0.00     0.126 A 
HETATM    9  C   UNK N   1      22.447  15.255   7.115  0.00  0.00     0.085 A 
HETATM   10  C   UNK N   1      23.116  14.062   7.482  0.00  0.00     0.203 A 
HETATM   11  C   UNK N   1      22.815  16.030   5.986  0.00  0.00     0.082 A 
HETATM   12  C   UNK N   1      22.112  17.196   5.682  0.00  0.00     0.040 A 
HETATM   13  C   UNK N   1      21.046  17.612   6.478  0.00  0.00     0.042 A 
HETATM   14  C   UNK N   1      20.657  16.870   7.600  0.00  0.00     0.137 A 
HETATM   15  O   UNK N   1      24.056  13.651   6.820  0.00  0.00    -0.286 OA
ENDROOT
BRANCH  14  16
HETATM   16  N   UNK N   1      19.558  17.323   8.398  0.00  0.00    -0.113 N 
HETATM   17  O   UNK N   1      18.382  16.742   8.289  0.00  0.00    -0.532 OA
HETATM   18  O   UNK N   1      19.688  18.227   9.168  0.00  0.00    -0.532 OA
ENDBRANCH  14  16
BRANCH  11  19
HETATM   19  O   UNK N   1      23.837  15.666   5.190  0.00  0.00    -0.360 OA
HETATM   20  H   UNK N   1      24.637  15.354   5.568  0.00  0.00     0.217 HD
ENDBRANCH  11  19
BRANCH   1  21
HETATM   21  O   UNK N   1      24.331  11.606   8.418  0.00  0.00    -0.360 OA
HETATM   22  H   UNK N   1      24.261  11.411   7.503  0.00  0.00     0.217 HD
ENDBRANCH   1  21
TORSDOF 3
ENDMDL
MODEL 9
REMARK VINA RESULT:      -6.3      8.270     10.155
REMARK  3 active torsions:
REMARK  status: ('A' for Active; 'I' for Inactive)
REMARK    1  A    between atoms: C_1  and  O_16 
REMARK    2  A    between atoms: C_11  and  O_17 
REMARK    3  A    between atoms: C_14  and  N_18 
ROOT
HETATM    1  C   UNK N   1      21.465  12.650  10.606  0.00  0.00     0.082 A 
HETATM    2  C   UNK N   1      21.676  13.455   9.458  0.00  0.00     0.082 A 
HETATM    3  C   UNK N   1      22.947  13.434   8.843  0.00  0.00     0.093 A 
HETATM    4  C   UNK N   1      23.971  12.637   9.355  0.00  0.00     0.038 A 
HETATM    5  C   UNK N   1      23.753  11.851  10.482  0.00  0.00     0.006 A 
HETATM    6  C   UNK N   1      22.505  11.857  11.105  0.00  0.00     0.037 A 
HETATM    7  O   UNK N   1      23.192  14.167   7.772  0.00  0.00    -0.306 OA
HETATM    8  C   UNK N   1      22.292  14.957   7.205  0.00  0.00     0.126 A 
HETATM    9  C   UNK N   1      20.982  15.052   7.745  0.00  0.00     0.085 A 
HETATM   10  C   UNK N   1      20.677  14.282   8.894  0.00  0.00     0.203 A 
HETATM   11  C   UNK N   1      20.042  15.906   7.116  0.00  0.00     0.082 A 
HETATM   12  C   UNK N   1      20.411  16.636   5.985  0.00  0.00     0.040 A 
HETATM   13  C   UNK N   1      21.700  16.536   5.463  0.00  0.00     0.042 A 
HETATM   14  C   UNK N   1      22.652  15.701   6.061  0.00  0.00     0.137 A 
HETATM   15  O   UNK N   1      19.563  14.331   9.393  0.00  0.00    -0.286 OA
ENDROOT
BRANCH  14  16
HETATM   16  N   UNK N   1      23.968  15.620   5.501  0.00  0.00    -0.113 N 
HETATM   17  O   UNK N   1      24.264  14.657   4.655  0.00  0.00    -0.532 OA
HETATM   18  O   UNK N   1      24.809  16.417   5.789  0.00  0.00    -0.532 OA
ENDBRANCH  14  16
BRANCH  11  19
HETATM   19  O   UNK N   1      18.787  16.033   7.586  0.00  0.00    -0.360 OA
HETATM   20  H   UNK N   1      18.217  15.289   7.604  0.00  0.00     0.217 HD
ENDBRANCH  11  19
BRANCH   1  21
HETATM   21  O   UNK N   1      20.277  12.627  11.236  0.00  0.00    -0.360 OA
HETATM   22  H   UNK N   1      19.971  11.834  11.630  0.00  0.00     0.217 HD
ENDBRANCH   1  21
TORSDOF 3
ENDMDL
