REMARK  4 active torsions:
REMARK  status: ('A' for Active; 'I' for Inactive)
REMARK    1  A    between atoms: C_3  and  N_9 
REMARK       I    between atoms: C_6  and  N_14 
REMARK    2  A    between atoms: C_13  and  O_15 
REMARK    3  A    between atoms: O_15  and  C_16 
REMARK    4  A    between atoms: C_19  and  O_22 
ROOT
HETATM    1  C   UNK N   1      -1.773  -2.579   0.091  0.00  0.00     0.066 A 
HETATM    2  C   UNK N   1      -1.634  -1.169   0.035  0.00  0.00     0.069 A 
HETATM    3  C   UNK N   1      -2.816  -0.407  -0.109  0.00  0.00     0.130 A 
HETATM    4  N   UNK N   1      -4.018  -1.038  -0.191  0.00  0.00    -0.176 N 
ATOM      5  HN  UNK N   1      -4.866  -0.482  -0.295  1.00  0.00     0.186 HD
HETATM    6  C   UNK N   1      -4.114  -2.392  -0.137  0.00  0.00     0.677 A 
HETATM    7  N   UNK N   1      -2.999  -3.149   0.004  0.00  0.00    -0.191 N 
ATOM      8  HN  UNK N   1      -3.085  -4.165   0.045  1.00  0.00     0.184 HD
HETATM    9  C   UNK N   1      -0.654  -3.397   0.239  0.00  0.00     0.031 A 
HETATM   10  C   UNK N   1       0.614  -2.839   0.336  0.00  0.00     0.005 A 
HETATM   11  C   UNK N   1       0.770  -1.458   0.282  0.00  0.00     0.038 A 
HETATM   12  C   UNK N   1      -0.334  -0.598   0.124  0.00  0.00     0.092 A 
HETATM   13  N   UNK N   1      -5.375  -3.012  -0.227  0.00  0.00    -0.234 N 
HETATM   14  H   UNK N   1      -6.191  -2.466  -0.290  0.00  0.00     0.174 HD
HETATM   15  H   UNK N   1      -5.440  -3.995  -0.227  0.00  0.00     0.174 HD
ENDROOT
BRANCH  12  16
HETATM   16  O   UNK N   1      -0.156   0.758   0.096  0.00  0.00    -0.310 OA
BRANCH  16  17
HETATM   17  C   UNK N   1       1.034   1.413  -0.029  0.00  0.00     0.076 A 
HETATM   18  C   UNK N   1       1.157   2.713   0.475  0.00  0.00     0.040 A 
HETATM   19  C   UNK N   1       2.387   3.380   0.414  0.00  0.00     0.039 A 
HETATM   20  C   UNK N   1       3.506   2.757  -0.169  0.00  0.00     0.068 A 
HETATM   21  C   UNK N   1       3.371   1.479  -0.711  0.00  0.00     0.039 A 
HETATM   22  C   UNK N   1       2.149   0.813  -0.642  0.00  0.00     0.040 A 
BRANCH  20  23
HETATM   23  O   UNK N   1       4.720   3.355  -0.208  0.00  0.00    -0.356 OA
HETATM   24  C   UNK N   1       4.982   4.570   0.382  0.00  0.00     0.210 C 
ENDBRANCH  20  23
ENDBRANCH  16  17
ENDBRANCH  12  16
BRANCH   3  25
HETATM   25  N   UNK N   1      -2.781   1.002  -0.172  0.00  0.00    -0.384 N 
HETATM   26  H   UNK N   1      -1.918   1.473  -0.216  0.00  0.00     0.157 HD
HETATM   27  H   UNK N   1      -3.622   1.515  -0.172  0.00  0.00     0.157 HD
ENDBRANCH   3  25
TORSDOF 4
