MODEL 1
REMARK VINA RESULT:      -6.8      0.000      0.000
REMARK  4 active torsions:
REMARK  status: ('A' for Active; 'I' for Inactive)
REMARK    1  A    between atoms: C_3  and  N_9 
REMARK       I    between atoms: C_6  and  N_14 
REMARK    2  A    between atoms: C_13  and  O_15 
REMARK    3  A    between atoms: O_15  and  C_16 
REMARK    4  A    between atoms: C_19  and  O_22 
ROOT
HETATM    1  C   UNK N   1      32.819  17.313   6.343  0.00  0.00     0.066 A 
HETATM    2  C   UNK N   1      31.430  17.289   6.625  0.00  0.00     0.069 A 
HETATM    3  C   UNK N   1      31.046  17.247   7.985  0.00  0.00     0.130 A 
HETATM    4  N   UNK N   1      32.000  17.228   8.954  0.00  0.00    -0.176 N 
ATOM      5  HN  UNK N   1      31.716  17.197   9.932  1.00  0.00     0.186 HD
HETATM    6  C   UNK N   1      33.323  17.248   8.647  0.00  0.00     0.677 A 
HETATM    7  N   UNK N   1      33.722  17.291   7.353  0.00  0.00    -0.191 N 
ATOM      8  HN  UNK N   1      34.719  17.308   7.136  1.00  0.00     0.184 HD
HETATM    9  C   UNK N   1      33.275  17.361   5.027  0.00  0.00     0.031 A 
HETATM   10  C   UNK N   1      32.371  17.389   3.973  0.00  0.00     0.005 A 
HETATM   11  C   UNK N   1      31.005  17.366   4.230  0.00  0.00     0.038 A 
HETATM   12  C   UNK N   1      30.504  17.308   5.545  0.00  0.00     0.092 A 
HETATM   13  N   UNK N   1      34.284  17.224   9.676  0.00  0.00    -0.234 N 
HETATM   14  H   UNK N   1      34.000  17.232  10.618  0.00  0.00     0.174 HD
HETATM   15  H   UNK N   1      35.243  17.200   9.452  0.00  0.00     0.174 HD
ENDROOT
BRANCH  12  16
HETATM   16  O   UNK N   1      29.155  17.308   5.772  0.00  0.00    -0.310 OA
BRANCH  16  17
HETATM   17  C   UNK N   1      28.228  18.073   5.127  0.00  0.00     0.076 A 
HETATM   18  C   UNK N   1      28.269  19.464   5.269  0.00  0.00     0.040 A 
HETATM   19  C   UNK N   1      27.367  20.272   4.565  0.00  0.00     0.039 A 
HETATM   20  C   UNK N   1      26.401  19.692   3.722  0.00  0.00     0.068 A 
HETATM   21  C   UNK N   1      26.333  18.303   3.615  0.00  0.00     0.039 A 
HETATM   22  C   UNK N   1      27.236  17.501   4.309  0.00  0.00     0.040 A 
BRANCH  20  23
HETATM   23  O   UNK N   1      25.541  20.444   2.994  0.00  0.00    -0.356 OA
HETATM   24  C   UNK N   1      24.173  20.339   3.099  0.00  0.00     0.210 C 
ENDBRANCH  20  23
ENDBRANCH  16  17
ENDBRANCH  12  16
BRANCH   3  25
HETATM   25  N   UNK N   1      29.688  17.224   8.367  0.00  0.00    -0.384 N 
HETATM   26  H   UNK N   1      29.105  16.488   8.072  0.00  0.00     0.157 HD
HETATM   27  H   UNK N   1      29.322  17.946   8.929  0.00  0.00     0.157 HD
ENDBRANCH   3  25
TORSDOF 4
ENDMDL
MODEL 2
REMARK VINA RESULT:      -6.7      8.187     10.639
REMARK  4 active torsions:
REMARK  status: ('A' for Active; 'I' for Inactive)
REMARK    1  A    between atoms: C_3  and  N_9 
REMARK       I    between atoms: C_6  and  N_14 
REMARK    2  A    between atoms: C_13  and  O_15 
REMARK    3  A    between atoms: O_15  and  C_16 
REMARK    4  A    between atoms: C_19  and  O_22 
ROOT
HETATM    1  C   UNK N   1      22.337  19.544   3.098  0.00  0.00     0.066 A 
HETATM    2  C   UNK N   1      21.467  18.515   3.537  0.00  0.00     0.069 A 
HETATM    3  C   UNK N   1      20.192  18.442   2.929  0.00  0.00     0.130 A 
HETATM    4  N   UNK N   1      19.852  19.343   1.969  0.00  0.00    -0.176 N 
ATOM      5  HN  UNK N   1      18.931  19.284   1.535  1.00  0.00     0.186 HD
HETATM    6  C   UNK N   1      20.711  20.318   1.575  0.00  0.00     0.677 A 
HETATM    7  N   UNK N   1      21.940  20.412   2.137  0.00  0.00    -0.191 N 
ATOM      8  HN  UNK N   1      22.576  21.148   1.830  1.00  0.00     0.184 HD
HETATM    9  C   UNK N   1      23.613  19.676   3.645  0.00  0.00     0.031 A 
HETATM   10  C   UNK N   1      24.048  18.797   4.629  0.00  0.00     0.005 A 
HETATM   11  C   UNK N   1      23.207  17.782   5.073  0.00  0.00     0.038 A 
HETATM   12  C   UNK N   1      21.908  17.621   4.552  0.00  0.00     0.092 A 
HETATM   13  N   UNK N   1      20.324  21.236   0.579  0.00  0.00    -0.234 N 
HETATM   14  H   UNK N   1      19.448  21.148   0.140  0.00  0.00     0.174 HD
HETATM   15  H   UNK N   1      20.932  21.966   0.321  0.00  0.00     0.174 HD
ENDROOT
BRANCH  12  16
HETATM   16  O   UNK N   1      21.109  16.601   4.990  0.00  0.00    -0.310 OA
BRANCH  16  17
HETATM   17  C   UNK N   1      21.147  16.019   6.223  0.00  0.00     0.076 A 
HETATM   18  C   UNK N   1      20.637  16.715   7.325  0.00  0.00     0.040 A 
HETATM   19  C   UNK N   1      20.608  16.111   8.589  0.00  0.00     0.039 A 
HETATM   20  C   UNK N   1      21.106  14.807   8.766  0.00  0.00     0.068 A 
HETATM   21  C   UNK N   1      21.655  14.132   7.676  0.00  0.00     0.039 A 
HETATM   22  C   UNK N   1      21.675  14.730   6.418  0.00  0.00     0.040 A 
BRANCH  20  23
HETATM   23  O   UNK N   1      21.056  14.178   9.964  0.00  0.00    -0.356 OA
HETATM   24  C   UNK N   1      21.878  13.126  10.298  0.00  0.00     0.210 C 
ENDBRANCH  20  23
ENDBRANCH  16  17
ENDBRANCH  12  16
BRANCH   3  25
HETATM   25  N   UNK N   1      19.257  17.452   3.297  0.00  0.00    -0.384 N 
HETATM   26  H   UNK N   1      18.764  16.956   2.604  0.00  0.00     0.157 HD
HETATM   27  H   UNK N   1      19.096  17.256   4.249  0.00  0.00     0.157 HD
ENDBRANCH   3  25
TORSDOF 4
ENDMDL
MODEL 3
REMARK VINA RESULT:      -6.6      1.493      2.861
REMARK  4 active torsions:
REMARK  status: ('A' for Active; 'I' for Inactive)
REMARK    1  A    between atoms: C_3  and  N_9 
REMARK       I    between atoms: C_6  and  N_14 
REMARK    2  A    between atoms: C_13  and  O_15 
REMARK    3  A    between atoms: O_15  and  C_16 
REMARK    4  A    between atoms: C_19  and  O_22 
ROOT
HETATM    1  C   UNK N   1      30.600  17.641   8.648  0.00  0.00     0.066 A 
HETATM    2  C   UNK N   1      30.288  17.429   7.281  0.00  0.00     0.069 A 
HETATM    3  C   UNK N   1      31.365  17.158   6.406  0.00  0.00     0.130 A 
HETATM    4  N   UNK N   1      32.634  17.116   6.893  0.00  0.00    -0.176 N 
ATOM      5  HN  UNK N   1      33.406  16.921   6.256  1.00  0.00     0.186 HD
HETATM    6  C   UNK N   1      32.897  17.328   8.209  0.00  0.00     0.677 A 
HETATM    7  N   UNK N   1      31.885  17.586   9.073  0.00  0.00    -0.191 N 
ATOM      8  HN  UNK N   1      32.095  17.742  10.059  1.00  0.00     0.184 HD
HETATM    9  C   UNK N   1      29.591  17.906   9.572  0.00  0.00     0.031 A 
HETATM   10  C   UNK N   1      28.264  17.963   9.165  0.00  0.00     0.005 A 
HETATM   11  C   UNK N   1      27.940  17.758   7.828  0.00  0.00     0.038 A 
HETATM   12  C   UNK N   1      28.931  17.497   6.862  0.00  0.00     0.092 A 
HETATM   13  N   UNK N   1      34.223  17.279   8.679  0.00  0.00    -0.234 N 
HETATM   14  H   UNK N   1      34.957  17.053   8.064  0.00  0.00     0.174 HD
HETATM   15  H   UNK N   1      34.417  17.471   9.626  0.00  0.00     0.174 HD
ENDROOT
BRANCH  12  16
HETATM   16  O   UNK N   1      28.583  17.277   5.557  0.00  0.00    -0.310 OA
BRANCH  16  17
HETATM   17  C   UNK N   1      27.742  18.045   4.806  0.00  0.00     0.076 A 
HETATM   18  C   UNK N   1      26.585  17.469   4.269  0.00  0.00     0.040 A 
HETATM   19  C   UNK N   1      25.676  18.254   3.549  0.00  0.00     0.039 A 
HETATM   20  C   UNK N   1      25.925  19.623   3.342  0.00  0.00     0.068 A 
HETATM   21  C   UNK N   1      27.100  20.186   3.839  0.00  0.00     0.039 A 
HETATM   22  C   UNK N   1      28.000  19.406   4.564  0.00  0.00     0.040 A 
BRANCH  20  23
HETATM   23  O   UNK N   1      25.049  20.420   2.687  0.00  0.00    -0.356 OA
HETATM   24  C   UNK N   1      23.710  20.484   2.995  0.00  0.00     0.210 C 
ENDBRANCH  20  23
ENDBRANCH  16  17
ENDBRANCH  12  16
BRANCH   3  25
HETATM   25  N   UNK N   1      31.157  16.931   5.029  0.00  0.00    -0.384 N 
HETATM   26  H   UNK N   1      30.242  16.879   4.670  0.00  0.00     0.157 HD
HETATM   27  H   UNK N   1      31.928  16.823   4.427  0.00  0.00     0.157 HD
ENDBRANCH   3  25
TORSDOF 4
ENDMDL
MODEL 4
REMARK VINA RESULT:      -6.5      3.229      7.563
REMARK  4 active torsions:
REMARK  status: ('A' for Active; 'I' for Inactive)
REMARK    1  A    between atoms: C_3  and  N_9 
REMARK       I    between atoms: C_6  and  N_14 
REMARK    2  A    between atoms: C_13  and  O_15 
REMARK    3  A    between atoms: O_15  and  C_16 
REMARK    4  A    between atoms: C_19  and  O_22 
ROOT
HETATM    1  C   UNK N   1      28.173  18.769   6.837  0.00  0.00     0.066 A 
HETATM    2  C   UNK N   1      29.309  17.990   6.501  0.00  0.00     0.069 A 
HETATM    3  C   UNK N   1      29.626  17.865   5.129  0.00  0.00     0.130 A 
HETATM    4  N   UNK N   1      28.846  18.478   4.199  0.00  0.00    -0.176 N 
ATOM      5  HN  UNK N   1      29.080  18.383   3.212  1.00  0.00     0.186 HD
HETATM    6  C   UNK N   1      27.761  19.214   4.556  0.00  0.00     0.677 A 
HETATM    7  N   UNK N   1      27.434  19.355   5.864  0.00  0.00    -0.191 N 
ATOM      8  HN  UNK N   1      26.618  19.912   6.119  1.00  0.00     0.184 HD
HETATM    9  C   UNK N   1      27.801  18.944   8.169  0.00  0.00     0.031 A 
HETATM   10  C   UNK N   1      28.543  18.359   9.186  0.00  0.00     0.005 A 
HETATM   11  C   UNK N   1      29.661  17.591   8.876  0.00  0.00     0.038 A 
HETATM   12  C   UNK N   1      30.063  17.382   7.543  0.00  0.00     0.092 A 
HETATM   13  N   UNK N   1      26.974  19.833   3.567  0.00  0.00    -0.234 N 
HETATM   14  H   UNK N   1      27.229  19.767   2.619  0.00  0.00     0.174 HD
HETATM   15  H   UNK N   1      26.166  20.334   3.824  0.00  0.00     0.174 HD
ENDROOT
BRANCH  12  16
HETATM   16  O   UNK N   1      31.179  16.641   7.266  0.00  0.00    -0.310 OA
BRANCH  16  17
HETATM   17  C   UNK N   1      32.351  16.655   7.963  0.00  0.00     0.076 A 
HETATM   18  C   UNK N   1      33.215  17.748   7.828  0.00  0.00     0.040 A 
HETATM   19  C   UNK N   1      34.394  17.813   8.583  0.00  0.00     0.039 A 
HETATM   20  C   UNK N   1      34.728  16.774   9.470  0.00  0.00     0.068 A 
HETATM   21  C   UNK N   1      33.889  15.665   9.571  0.00  0.00     0.039 A 
HETATM   22  C   UNK N   1      32.713  15.605   8.826  0.00  0.00     0.040 A 
BRANCH  20  23
HETATM   23  O   UNK N   1      35.837  16.823  10.246  0.00  0.00    -0.356 OA
HETATM   24  C   UNK N   1      36.246  15.780  11.044  0.00  0.00     0.210 C 
ENDBRANCH  20  23
ENDBRANCH  16  17
ENDBRANCH  12  16
BRANCH   3  25
HETATM   25  N   UNK N   1      30.739  17.113   4.696  0.00  0.00    -0.384 N 
HETATM   26  H   UNK N   1      31.186  17.337   3.848  0.00  0.00     0.157 HD
HETATM   27  H   UNK N   1      31.068  16.363   5.242  0.00  0.00     0.157 HD
ENDBRANCH   3  25
TORSDOF 4
ENDMDL
MODEL 5
REMARK VINA RESULT:      -6.4     10.858     13.884
REMARK  4 active torsions:
REMARK  status: ('A' for Active; 'I' for Inactive)
REMARK    1  A    between atoms: C_3  and  N_9 
REMARK       I    between atoms: C_6  and  N_14 
REMARK    2  A    between atoms: C_13  and  O_15 
REMARK    3  A    between atoms: O_15  and  C_16 
REMARK    4  A    between atoms: C_19  and  O_22 
ROOT
HETATM    1  C   UNK N   1      35.374  11.816  12.103  0.00  0.00     0.066 A 
HETATM    2  C   UNK N   1      35.584  12.573  13.283  0.00  0.00     0.069 A 
HETATM    3  C   UNK N   1      36.497  13.649  13.207  0.00  0.00     0.130 A 
HETATM    4  N   UNK N   1      37.132  13.913  12.033  0.00  0.00    -0.176 N 
ATOM      5  HN  UNK N   1      37.789  14.690  11.986  1.00  0.00     0.186 HD
HETATM    6  C   UNK N   1      36.908  13.164  10.922  0.00  0.00     0.677 A 
HETATM    7  N   UNK N   1      36.036  12.128  10.963  0.00  0.00    -0.191 N 
ATOM      8  HN  UNK N   1      35.876  11.574  10.121  1.00  0.00     0.184 HD
HETATM    9  C   UNK N   1      34.483  10.744  12.098  0.00  0.00     0.031 A 
HETATM   10  C   UNK N   1      33.786  10.405  13.251  0.00  0.00     0.005 A 
HETATM   11  C   UNK N   1      33.981  11.136  14.418  0.00  0.00     0.038 A 
HETATM   12  C   UNK N   1      34.879  12.220  14.467  0.00  0.00     0.092 A 
HETATM   13  N   UNK N   1      37.584  13.464   9.724  0.00  0.00    -0.234 N 
HETATM   14  H   UNK N   1      38.189  14.238   9.678  0.00  0.00     0.174 HD
HETATM   15  H   UNK N   1      37.451  12.896   8.930  0.00  0.00     0.174 HD
ENDROOT
BRANCH  12  16
HETATM   16  O   UNK N   1      35.035  12.937  15.621  0.00  0.00    -0.310 OA
BRANCH  16  17
HETATM   17  C   UNK N   1      35.297  12.426  16.859  0.00  0.00     0.076 A 
HETATM   18  C   UNK N   1      35.056  13.214  17.990  0.00  0.00     0.040 A 
HETATM   19  C   UNK N   1      35.258  12.688  19.273  0.00  0.00     0.039 A 
HETATM   20  C   UNK N   1      35.720  11.369  19.436  0.00  0.00     0.068 A 
HETATM   21  C   UNK N   1      36.002  10.600  18.307  0.00  0.00     0.039 A 
HETATM   22  C   UNK N   1      35.793  11.121  17.032  0.00  0.00     0.040 A 
BRANCH  20  23
HETATM   23  O   UNK N   1      35.887  10.814  20.659  0.00  0.00    -0.356 OA
HETATM   24  C   UNK N   1      35.227   9.678  21.069  0.00  0.00     0.210 C 
ENDBRANCH  20  23
ENDBRANCH  16  17
ENDBRANCH  12  16
BRANCH   3  25
HETATM   25  N   UNK N   1      36.772  14.463  14.327  0.00  0.00    -0.384 N 
HETATM   26  H   UNK N   1      37.421  14.167  15.005  0.00  0.00     0.157 HD
HETATM   27  H   UNK N   1      36.313  15.329  14.429  0.00  0.00     0.157 HD
ENDBRANCH   3  25
TORSDOF 4
ENDMDL
MODEL 6
REMARK VINA RESULT:      -6.3      7.319     10.739
REMARK  4 active torsions:
REMARK  status: ('A' for Active; 'I' for Inactive)
REMARK    1  A    between atoms: C_3  and  N_9 
REMARK       I    between atoms: C_6  and  N_14 
REMARK    2  A    between atoms: C_13  and  O_15 
REMARK    3  A    between atoms: O_15  and  C_16 
REMARK    4  A    between atoms: C_19  and  O_22 
ROOT
HETATM    1  C   UNK N   1      34.727  12.158  15.493  0.00  0.00     0.066 A 
HETATM    2  C   UNK N   1      35.569  12.988  14.710  0.00  0.00     0.069 A 
HETATM    3  C   UNK N   1      36.289  14.001  15.385  0.00  0.00     0.130 A 
HETATM    4  N   UNK N   1      36.149  14.144  16.730  0.00  0.00    -0.176 N 
ATOM      5  HN  UNK N   1      36.671  14.877  17.209  1.00  0.00     0.186 HD
HETATM    6  C   UNK N   1      35.330  13.332  17.449  0.00  0.00     0.677 A 
HETATM    7  N   UNK N   1      34.630  12.350  16.830  0.00  0.00    -0.191 N 
ATOM      8  HN  UNK N   1      34.020  11.746  17.382  1.00  0.00     0.184 HD
HETATM    9  C   UNK N   1      33.992  11.133  14.900  0.00  0.00     0.031 A 
HETATM   10  C   UNK N   1      34.077  10.910  13.532  0.00  0.00     0.005 A 
HETATM   11  C   UNK N   1      34.896  11.714  12.748  0.00  0.00     0.038 A 
HETATM   12  C   UNK N   1      35.648  12.766  13.307  0.00  0.00     0.092 A 
HETATM   13  N   UNK N   1      35.208  13.510  18.840  0.00  0.00    -0.234 N 
HETATM   14  H   UNK N   1      35.743  14.196  19.300  0.00  0.00     0.174 HD
HETATM   15  H   UNK N   1      34.585  12.947  19.354  0.00  0.00     0.174 HD
ENDROOT
BRANCH  12  16
HETATM   16  O   UNK N   1      36.464  13.529  12.517  0.00  0.00    -0.310 OA
BRANCH  16  17
HETATM   17  C   UNK N   1      36.072  14.311  11.471  0.00  0.00     0.076 A 
HETATM   18  C   UNK N   1      36.250  13.846  10.163  0.00  0.00     0.040 A 
HETATM   19  C   UNK N   1      35.798  14.605   9.076  0.00  0.00     0.039 A 
HETATM   20  C   UNK N   1      35.176  15.849   9.287  0.00  0.00     0.068 A 
HETATM   21  C   UNK N   1      35.039  16.332  10.589  0.00  0.00     0.039 A 
HETATM   22  C   UNK N   1      35.482  15.572  11.669  0.00  0.00     0.040 A 
BRANCH  20  23
HETATM   23  O   UNK N   1      34.689  16.590   8.264  0.00  0.00    -0.356 OA
HETATM   24  C   UNK N   1      34.506  17.951   8.339  0.00  0.00     0.210 C 
ENDBRANCH  20  23
ENDBRANCH  16  17
ENDBRANCH  12  16
BRANCH   3  25
HETATM   25  N   UNK N   1      37.154  14.875  14.693  0.00  0.00    -0.384 N 
HETATM   26  H   UNK N   1      38.129  14.757  14.756  0.00  0.00     0.157 HD
HETATM   27  H   UNK N   1      36.781  15.605  14.147  0.00  0.00     0.157 HD
ENDBRANCH   3  25
TORSDOF 4
ENDMDL
MODEL 7
REMARK VINA RESULT:      -6.2      9.821     11.680
REMARK  4 active torsions:
REMARK  status: ('A' for Active; 'I' for Inactive)
REMARK    1  A    between atoms: C_3  and  N_9 
REMARK       I    between atoms: C_6  and  N_14 
REMARK    2  A    between atoms: C_13  and  O_15 
REMARK    3  A    between atoms: O_15  and  C_16 
REMARK    4  A    between atoms: C_19  and  O_22 
ROOT
HETATM    1  C   UNK N   1      20.725  17.566   4.131  0.00  0.00     0.066 A 
HETATM    2  C   UNK N   1      20.197  16.383   4.709  0.00  0.00     0.069 A 
HETATM    3  C   UNK N   1      19.559  15.468   3.841  0.00  0.00     0.130 A 
HETATM    4  N   UNK N   1      19.471  15.747   2.513  0.00  0.00    -0.176 N 
ATOM      5  HN  UNK N   1      19.009  15.082   1.894  1.00  0.00     0.186 HD
HETATM    6  C   UNK N   1      19.985  16.892   1.994  0.00  0.00     0.677 A 
HETATM    7  N   UNK N   1      20.606  17.788   2.799  0.00  0.00    -0.191 N 
ATOM      8  HN  UNK N   1      20.989  18.643   2.396  1.00  0.00     0.184 HD
HETATM    9  C   UNK N   1      21.374  18.513   4.921  0.00  0.00     0.031 A 
HETATM   10  C   UNK N   1      21.515  18.309   6.287  0.00  0.00     0.005 A 
HETATM   11  C   UNK N   1      21.003  17.155   6.872  0.00  0.00     0.038 A 
HETATM   12  C   UNK N   1      20.333  16.179   6.110  0.00  0.00     0.092 A 
HETATM   13  N   UNK N   1      19.874  17.151   0.614  0.00  0.00    -0.234 N 
HETATM   14  H   UNK N   1      19.460  16.486   0.018  0.00  0.00     0.174 HD
HETATM   15  H   UNK N   1      20.213  17.999   0.244  0.00  0.00     0.174 HD
ENDROOT
BRANCH  12  16
HETATM   16  O   UNK N   1      19.858  15.043   6.706  0.00  0.00    -0.310 OA
BRANCH  16  17
HETATM   17  C   UNK N   1      20.537  14.246   7.580  0.00  0.00     0.076 A 
HETATM   18  C   UNK N   1      20.458  14.510   8.952  0.00  0.00     0.040 A 
HETATM   19  C   UNK N   1      21.096  13.667   9.871  0.00  0.00     0.039 A 
HETATM   20  C   UNK N   1      21.836  12.557   9.424  0.00  0.00     0.068 A 
HETATM   21  C   UNK N   1      21.952  12.321   8.054  0.00  0.00     0.039 A 
HETATM   22  C   UNK N   1      21.310  13.155   7.141  0.00  0.00     0.040 A 
BRANCH  20  23
HETATM   23  O   UNK N   1      22.431  11.698  10.284  0.00  0.00    -0.356 OA
HETATM   24  C   UNK N   1      22.688  12.006  11.601  0.00  0.00     0.210 C 
ENDBRANCH  20  23
ENDBRANCH  16  17
ENDBRANCH  12  16
BRANCH   3  25
HETATM   25  N   UNK N   1      19.005  14.262   4.321  0.00  0.00    -0.384 N 
HETATM   26  H   UNK N   1      19.581  13.593   4.756  0.00  0.00     0.157 HD
HETATM   27  H   UNK N   1      18.040  14.091   4.221  0.00  0.00     0.157 HD
ENDBRANCH   3  25
TORSDOF 4
ENDMDL
MODEL 8
REMARK VINA RESULT:      -6.2      2.194      3.498
REMARK  4 active torsions:
REMARK  status: ('A' for Active; 'I' for Inactive)
REMARK    1  A    between atoms: C_3  and  N_9 
REMARK       I    between atoms: C_6  and  N_14 
REMARK    2  A    between atoms: C_13  and  O_15 
REMARK    3  A    between atoms: O_15  and  C_16 
REMARK    4  A    between atoms: C_19  and  O_22 
ROOT
HETATM    1  C   UNK N   1      29.475  17.231   5.931  0.00  0.00     0.066 A 
HETATM    2  C   UNK N   1      28.401  18.106   6.235  0.00  0.00     0.069 A 
HETATM    3  C   UNK N   1      28.328  18.607   7.555  0.00  0.00     0.130 A 
HETATM    4  N   UNK N   1      29.266  18.237   8.468  0.00  0.00    -0.176 N 
ATOM      5  HN  UNK N   1      29.207  18.602   9.418  1.00  0.00     0.186 HD
HETATM    6  C   UNK N   1      30.280  17.394   8.143  0.00  0.00     0.677 A 
HETATM    7  N   UNK N   1      30.378  16.900   6.884  0.00  0.00    -0.191 N 
ATOM      8  HN  UNK N   1      31.146  16.269   6.652  1.00  0.00     0.184 HD
HETATM    9  C   UNK N   1      29.617  16.702   4.649  0.00  0.00     0.031 A 
HETATM   10  C   UNK N   1      28.709  17.029   3.651  0.00  0.00     0.005 A 
HETATM   11  C   UNK N   1      27.649  17.885   3.931  0.00  0.00     0.038 A 
HETATM   12  C   UNK N   1      27.464  18.432   5.215  0.00  0.00     0.092 A 
HETATM   13  N   UNK N   1      31.232  17.031   9.114  0.00  0.00    -0.234 N 
HETATM   14  H   UNK N   1      31.189  17.417  10.018  0.00  0.00     0.174 HD
HETATM   15  H   UNK N   1      31.945  16.389   8.888  0.00  0.00     0.174 HD
ENDROOT
BRANCH  12  16
HETATM   16  O   UNK N   1      26.426  19.289   5.459  0.00  0.00    -0.310 OA
BRANCH  16  17
HETATM   17  C   UNK N   1      25.295  19.420   4.709  0.00  0.00     0.076 A 
HETATM   18  C   UNK N   1      24.210  18.568   4.950  0.00  0.00     0.040 A 
HETATM   19  C   UNK N   1      23.017  18.726   4.235  0.00  0.00     0.039 A 
HETATM   20  C   UNK N   1      22.901  19.730   3.256  0.00  0.00     0.068 A 
HETATM   21  C   UNK N   1      23.997  20.550   2.985  0.00  0.00     0.039 A 
HETATM   22  C   UNK N   1      25.181  20.397   3.704  0.00  0.00     0.040 A 
BRANCH  20  23
HETATM   23  O   UNK N   1      21.750  19.939   2.575  0.00  0.00    -0.356 OA
HETATM   24  C   UNK N   1      20.791  18.968   2.399  0.00  0.00     0.210 C 
ENDBRANCH  20  23
ENDBRANCH  16  17
ENDBRANCH  12  16
BRANCH   3  25
HETATM   25  N   UNK N   1      27.299  19.485   7.954  0.00  0.00    -0.384 N 
HETATM   26  H   UNK N   1      27.327  19.909   8.842  0.00  0.00     0.157 HD
HETATM   27  H   UNK N   1      26.550  19.674   7.342  0.00  0.00     0.157 HD
ENDBRANCH   3  25
TORSDOF 4
ENDMDL
MODEL 9
REMARK VINA RESULT:      -6.2      3.556      5.972
REMARK  4 active torsions:
REMARK  status: ('A' for Active; 'I' for Inactive)
REMARK    1  A    between atoms: C_3  and  N_9 
REMARK       I    between atoms: C_6  and  N_14 
REMARK    2  A    between atoms: C_13  and  O_15 
REMARK    3  A    between atoms: O_15  and  C_16 
REMARK    4  A    between atoms: C_19  and  O_22 
ROOT
HETATM    1  C   UNK N   1      36.093  13.675   9.997  0.00  0.00     0.066 A 
HETATM    2  C   UNK N   1      35.583  14.963   9.696  0.00  0.00     0.069 A 
HETATM    3  C   UNK N   1      35.539  15.905  10.750  0.00  0.00     0.130 A 
HETATM    4  N   UNK N   1      35.974  15.549  11.989  0.00  0.00    -0.176 N 
ATOM      5  HN  UNK N   1      35.939  16.233  12.744  1.00  0.00     0.186 HD
HETATM    6  C   UNK N   1      36.453  14.304  12.242  0.00  0.00     0.677 A 
HETATM    7  N   UNK N   1      36.511  13.381  11.252  0.00  0.00    -0.191 N 
ATOM      8  HN  UNK N   1      36.875  12.450  11.455  1.00  0.00     0.184 HD
HETATM    9  C   UNK N   1      36.174  12.695   9.008  0.00  0.00     0.031 A 
HETATM   10  C   UNK N   1      35.757  12.971   7.713  0.00  0.00     0.005 A 
HETATM   11  C   UNK N   1      35.253  14.229   7.399  0.00  0.00     0.038 A 
HETATM   12  C   UNK N   1      35.146  15.243   8.371  0.00  0.00     0.092 A 
HETATM   13  N   UNK N   1      36.893  13.969  13.537  0.00  0.00    -0.234 N 
HETATM   14  H   UNK N   1      36.890  14.647  14.251  0.00  0.00     0.174 HD
HETATM   15  H   UNK N   1      37.204  13.055  13.730  0.00  0.00     0.174 HD
ENDROOT
BRANCH  12  16
HETATM   16  O   UNK N   1      34.668  16.478   8.032  0.00  0.00    -0.310 OA
BRANCH  16  17
HETATM   17  C   UNK N   1      33.605  16.736   7.217  0.00  0.00     0.076 A 
HETATM   18  C   UNK N   1      33.833  17.240   5.932  0.00  0.00     0.040 A 
HETATM   19  C   UNK N   1      32.760  17.452   5.056  0.00  0.00     0.039 A 
HETATM   20  C   UNK N   1      31.443  17.177   5.466  0.00  0.00     0.068 A 
HETATM   21  C   UNK N   1      31.212  16.717   6.762  0.00  0.00     0.039 A 
HETATM   22  C   UNK N   1      32.281  16.498   7.629  0.00  0.00     0.040 A 
BRANCH  20  23
HETATM   23  O   UNK N   1      30.386  17.330   4.633  0.00  0.00    -0.356 OA
HETATM   24  C   UNK N   1      29.218  17.955   5.003  0.00  0.00     0.210 C 
ENDBRANCH  20  23
ENDBRANCH  16  17
ENDBRANCH  12  16
BRANCH   3  25
HETATM   25  N   UNK N   1      35.051  17.213  10.549  0.00  0.00    -0.384 N 
HETATM   26  H   UNK N   1      35.172  17.657   9.680  0.00  0.00     0.157 HD
HETATM   27  H   UNK N   1      34.587  17.682  11.281  0.00  0.00     0.157 HD
ENDBRANCH   3  25
TORSDOF 4
ENDMDL
