REMARK  5 active torsions:
REMARK  status: ('A' for Active; 'I' for Inactive)
REMARK    1  A    between atoms: C_8  and  N_13 
REMARK    2  A    between atoms: C_10  and  O_22 
REMARK    3  A    between atoms: C_11  and  O_24 
REMARK    4  A    between atoms: N_13  and  C_14 
REMARK    5  A    between atoms: C_16  and  S_20 
ROOT
HETATM    1  N   UNK N   1      -1.507  -1.311  -0.014  0.00  0.00    -0.338 N 
ATOM      2  HN  UNK N   1      -2.426  -0.870  -0.018  1.00  0.00     0.168 HD
HETATM    3  C   UNK N   1      -1.424  -2.666  -0.005  0.00  0.00     0.182 A 
HETATM    4  N   UNK N   1      -0.212  -3.275   0.000  0.00  0.00    -0.351 N 
ATOM      5  HN  UNK N   1      -0.159  -4.294   0.006  1.00  0.00     0.166 HD
HETATM    6  C   UNK N   1       0.931  -2.543  -0.002  0.00  0.00     0.050 A 
HETATM    7  C   UNK N   1       0.867  -1.139  -0.010  0.00  0.00     0.038 A 
HETATM    8  C   UNK N   1      -0.393  -0.526  -0.016  0.00  0.00     0.119 A 
HETATM    9  C   UNK N   1       2.167  -3.185   0.004  0.00  0.00     0.070 A 
HETATM   10  C   UNK N   1       3.360  -2.454   0.003  0.00  0.00     0.103 A 
HETATM   11  C   UNK N   1       3.303  -1.031  -0.004  0.00  0.00     0.102 A 
HETATM   12  C   UNK N   1       2.048  -0.392  -0.010  0.00  0.00     0.057 A 
ENDROOT
BRANCH   8  13
HETATM   13  N   UNK N   1      -0.501   0.898  -0.025  0.00  0.00    -0.342 N 
HETATM   14  H   UNK N   1       0.336   1.416  -0.044  0.00  0.00     0.167 HD
BRANCH  13  15
HETATM   15  C   UNK N   1      -1.723   1.630  -0.010  0.00  0.00     0.034 A 
HETATM   16  C   UNK N   1      -2.964   0.981   0.027  0.00  0.00     0.048 A 
HETATM   17  C   UNK N   1      -4.156   1.699   0.054  0.00  0.00     0.002 A 
HETATM   18  C   UNK N   1      -4.112   3.100   0.048  0.00  0.00     0.018 A 
HETATM   19  C   UNK N   1      -2.879   3.763   0.006  0.00  0.00     0.004 A 
HETATM   20  C   UNK N   1      -1.688   3.029  -0.021  0.00  0.00     0.029 A 
BRANCH  17  21
HETATM   21  S   UNK N   1      -5.700   0.771   0.133  0.00  0.00    -0.134 SA
HETATM   22  C   UNK N   1      -6.840   2.155  -0.160  0.00  0.00     0.095 C 
ENDBRANCH  17  21
ENDBRANCH  13  15
ENDBRANCH   8  13
BRANCH  11  23
HETATM   23  O   UNK N   1       4.443  -0.296  -0.003  0.00  0.00    -0.353 OA
HETATM   24  C   UNK N   1       4.459   1.081  -0.005  0.00  0.00     0.210 C 
ENDBRANCH  11  23
BRANCH  10  25
HETATM   25  O   UNK N   1       4.522  -3.159   0.008  0.00  0.00    -0.353 OA
HETATM   26  C   UNK N   1       5.787  -2.619   0.004  0.00  0.00     0.210 C 
ENDBRANCH  10  25
TORSDOF 5
