MODEL 1
REMARK VINA RESULT:      -6.6      0.000      0.000
REMARK  5 active torsions:
REMARK  status: ('A' for Active; 'I' for Inactive)
REMARK    1  A    between atoms: C_8  and  N_13 
REMARK    2  A    between atoms: C_10  and  O_22 
REMARK    3  A    between atoms: C_11  and  O_24 
REMARK    4  A    between atoms: N_13  and  C_14 
REMARK    5  A    between atoms: C_16  and  S_20 
ROOT
HETATM    1  N   UNK N   1      27.643  17.543   8.150  0.00  0.00    -0.338 N 
ATOM      2  HN  UNK N   1      26.624  17.526   8.115  1.00  0.00     0.168 HD
HETATM    3  C   UNK N   1      28.260  17.770   9.337  0.00  0.00     0.182 A 
HETATM    4  N   UNK N   1      29.615  17.797   9.408  0.00  0.00    -0.351 N 
ATOM      5  HN  UNK N   1      30.070  17.967  10.305  1.00  0.00     0.166 HD
HETATM    6  C   UNK N   1      30.370  17.600   8.297  0.00  0.00     0.050 A 
HETATM    7  C   UNK N   1      29.750  17.365   7.058  0.00  0.00     0.038 A 
HETATM    8  C   UNK N   1      28.351  17.340   7.003  0.00  0.00     0.119 A 
HETATM    9  C   UNK N   1      31.759  17.632   8.388  0.00  0.00     0.070 A 
HETATM   10  C   UNK N   1      32.561  17.434   7.258  0.00  0.00     0.103 A 
HETATM   11  C   UNK N   1      31.940  17.196   5.999  0.00  0.00     0.102 A 
HETATM   12  C   UNK N   1      30.535  17.166   5.918  0.00  0.00     0.057 A 
ENDROOT
BRANCH   8  13
HETATM   13  N   UNK N   1      27.683  17.104   5.763  0.00  0.00    -0.342 N 
HETATM   14  H   UNK N   1      27.702  16.186   5.405  0.00  0.00     0.167 HD
BRANCH  13  15
HETATM   15  C   UNK N   1      26.990  18.088   5.002  0.00  0.00     0.034 A 
HETATM   16  C   UNK N   1      25.601  18.032   4.824  0.00  0.00     0.048 A 
HETATM   17  C   UNK N   1      24.925  19.002   4.090  0.00  0.00     0.002 A 
HETATM   18  C   UNK N   1      25.649  20.059   3.521  0.00  0.00     0.018 A 
HETATM   19  C   UNK N   1      27.039  20.125   3.685  0.00  0.00     0.004 A 
HETATM   20  C   UNK N   1      27.706  19.143   4.425  0.00  0.00     0.029 A 
BRANCH  17  21
HETATM   21  S   UNK N   1      23.133  18.858   3.947  0.00  0.00    -0.134 SA
HETATM   22  C   UNK N   1      22.847  17.825   5.414  0.00  0.00     0.095 C 
ENDBRANCH  17  21
ENDBRANCH  13  15
ENDBRANCH   8  13
BRANCH  11  23
HETATM   23  O   UNK N   1      32.692  17.003   4.886  0.00  0.00    -0.353 OA
HETATM   24  C   UNK N   1      32.264  17.318   3.616  0.00  0.00     0.210 C 
ENDBRANCH  11  23
BRANCH  10  25
HETATM   25  O   UNK N   1      33.908  17.480   7.435  0.00  0.00    -0.353 OA
HETATM   26  C   UNK N   1      34.585  18.401   8.200  0.00  0.00     0.210 C 
ENDBRANCH  10  25
TORSDOF 5
ENDMDL
MODEL 2
REMARK VINA RESULT:      -6.2      1.717      3.157
REMARK  5 active torsions:
REMARK  status: ('A' for Active; 'I' for Inactive)
REMARK    1  A    between atoms: C_8  and  N_13 
REMARK    2  A    between atoms: C_10  and  O_22 
REMARK    3  A    between atoms: C_11  and  O_24 
REMARK    4  A    between atoms: N_13  and  C_14 
REMARK    5  A    between atoms: C_16  and  S_20 
ROOT
HETATM    1  N   UNK N   1      30.121  16.820   3.140  0.00  0.00    -0.338 N 
ATOM      2  HN  UNK N   1      29.473  16.682   2.366  1.00  0.00     0.168 HD
HETATM    3  C   UNK N   1      31.454  16.867   2.887  0.00  0.00     0.182 A 
HETATM    4  N   UNK N   1      32.335  17.050   3.901  0.00  0.00    -0.351 N 
ATOM      5  HN  UNK N   1      33.335  17.085   3.701  1.00  0.00     0.166 HD
HETATM    6  C   UNK N   1      31.901  17.187   5.180  0.00  0.00     0.050 A 
HETATM    7  C   UNK N   1      30.526  17.140   5.464  0.00  0.00     0.038 A 
HETATM    8  C   UNK N   1      29.629  16.951   4.404  0.00  0.00     0.119 A 
HETATM    9  C   UNK N   1      32.821  17.373   6.209  0.00  0.00     0.070 A 
HETATM   10  C   UNK N   1      32.399  17.516   7.536  0.00  0.00     0.103 A 
HETATM   11  C   UNK N   1      31.007  17.469   7.832  0.00  0.00     0.102 A 
HETATM   12  C   UNK N   1      30.086  17.280   6.783  0.00  0.00     0.057 A 
ENDROOT
BRANCH   8  13
HETATM   13  N   UNK N   1      28.223  16.898   4.651  0.00  0.00    -0.342 N 
HETATM   14  H   UNK N   1      27.857  16.058   5.010  0.00  0.00     0.167 HD
BRANCH  13  15
HETATM   15  C   UNK N   1      27.307  17.965   4.421  0.00  0.00     0.034 A 
HETATM   16  C   UNK N   1      25.925  17.744   4.368  0.00  0.00     0.048 A 
HETATM   17  C   UNK N   1      25.032  18.790   4.155  0.00  0.00     0.002 A 
HETATM   18  C   UNK N   1      25.527  20.092   3.995  0.00  0.00     0.018 A 
HETATM   19  C   UNK N   1      26.907  20.328   4.040  0.00  0.00     0.004 A 
HETATM   20  C   UNK N   1      27.794  19.267   4.255  0.00  0.00     0.029 A 
BRANCH  17  21
HETATM   21  S   UNK N   1      23.270  18.407   4.136  0.00  0.00    -0.134 SA
HETATM   22  C   UNK N   1      23.313  16.972   5.249  0.00  0.00     0.095 C 
ENDBRANCH  17  21
ENDBRANCH  13  15
ENDBRANCH   8  13
BRANCH  11  23
HETATM   23  O   UNK N   1      30.569  17.602   9.109  0.00  0.00    -0.353 OA
HETATM   24  C   UNK N   1      29.698  18.588   9.514  0.00  0.00     0.210 C 
ENDBRANCH  11  23
BRANCH  10  25
HETATM   25  O   UNK N   1      33.362  17.695   8.479  0.00  0.00    -0.353 OA
HETATM   26  C   UNK N   1      34.583  18.294   8.273  0.00  0.00     0.210 C 
ENDBRANCH  10  25
TORSDOF 5
ENDMDL
MODEL 3
REMARK VINA RESULT:      -6.0      3.820      7.334
REMARK  5 active torsions:
REMARK  status: ('A' for Active; 'I' for Inactive)
REMARK    1  A    between atoms: C_8  and  N_13 
REMARK    2  A    between atoms: C_10  and  O_22 
REMARK    3  A    between atoms: C_11  and  O_24 
REMARK    4  A    between atoms: N_13  and  C_14 
REMARK    5  A    between atoms: C_16  and  S_20 
ROOT
HETATM    1  N   UNK N   1      29.640  17.658   9.120  0.00  0.00    -0.338 N 
ATOM      2  HN  UNK N   1      30.212  17.378   9.916  1.00  0.00     0.168 HD
HETATM    3  C   UNK N   1      28.579  18.480   9.324  0.00  0.00     0.182 A 
HETATM    4  N   UNK N   1      27.805  18.866   8.280  0.00  0.00    -0.351 N 
ATOM      5  HN  UNK N   1      27.010  19.485   8.443  1.00  0.00     0.166 HD
HETATM    6  C   UNK N   1      28.075  18.437   7.021  0.00  0.00     0.050 A 
HETATM    7  C   UNK N   1      29.168  17.585   6.788  0.00  0.00     0.038 A 
HETATM    8  C   UNK N   1      29.959  17.196   7.878  0.00  0.00     0.119 A 
HETATM    9  C   UNK N   1      27.269  18.843   5.961  0.00  0.00     0.070 A 
HETATM   10  C   UNK N   1      27.525  18.415   4.654  0.00  0.00     0.103 A 
HETATM   11  C   UNK N   1      28.630  17.550   4.410  0.00  0.00     0.102 A 
HETATM   12  C   UNK N   1      29.439  17.145   5.490  0.00  0.00     0.057 A 
ENDROOT
BRANCH   8  13
HETATM   13  N   UNK N   1      31.078  16.331   7.684  0.00  0.00    -0.342 N 
HETATM   14  H   UNK N   1      30.957  15.561   7.082  0.00  0.00     0.167 HD
BRANCH  13  15
HETATM   15  C   UNK N   1      32.358  16.494   8.289  0.00  0.00     0.034 A 
HETATM   16  C   UNK N   1      32.869  15.545   9.183  0.00  0.00     0.048 A 
HETATM   17  C   UNK N   1      34.125  15.701   9.763  0.00  0.00     0.002 A 
HETATM   18  C   UNK N   1      34.893  16.828   9.442  0.00  0.00     0.018 A 
HETATM   19  C   UNK N   1      34.393  17.788   8.553  0.00  0.00     0.004 A 
HETATM   20  C   UNK N   1      33.129  17.619   7.977  0.00  0.00     0.029 A 
BRANCH  17  21
HETATM   21  S   UNK N   1      34.707  14.408  10.878  0.00  0.00    -0.134 SA
HETATM   22  C   UNK N   1      35.864  15.417  11.850  0.00  0.00     0.095 C 
ENDBRANCH  17  21
ENDBRANCH  13  15
ENDBRANCH   8  13
BRANCH  11  23
HETATM   23  O   UNK N   1      28.902  17.116   3.154  0.00  0.00    -0.353 OA
HETATM   24  C   UNK N   1      29.649  15.992   2.883  0.00  0.00     0.210 C 
ENDBRANCH  11  23
BRANCH  10  25
HETATM   25  O   UNK N   1      26.690  18.859   3.678  0.00  0.00    -0.353 OA
HETATM   26  C   UNK N   1      25.432  19.378   3.875  0.00  0.00     0.210 C 
ENDBRANCH  10  25
TORSDOF 5
ENDMDL
MODEL 4
REMARK VINA RESULT:      -5.9      7.389     11.080
REMARK  5 active torsions:
REMARK  status: ('A' for Active; 'I' for Inactive)
REMARK    1  A    between atoms: C_8  and  N_13 
REMARK    2  A    between atoms: C_10  and  O_22 
REMARK    3  A    between atoms: C_11  and  O_24 
REMARK    4  A    between atoms: N_13  and  C_14 
REMARK    5  A    between atoms: C_16  and  S_20 
ROOT
HETATM    1  N   UNK N   1      37.967  13.401  11.234  0.00  0.00    -0.338 N 
ATOM      2  HN  UNK N   1      38.402  13.193  12.131  1.00  0.00     0.168 HD
HETATM    3  C   UNK N   1      38.478  12.845  10.106  0.00  0.00     0.182 A 
HETATM    4  N   UNK N   1      37.915  13.107   8.900  0.00  0.00    -0.351 N 
ATOM      5  HN  UNK N   1      38.305  12.684   8.058  1.00  0.00     0.166 HD
HETATM    6  C   UNK N   1      36.838  13.928   8.802  0.00  0.00     0.050 A 
HETATM    7  C   UNK N   1      36.294  14.515   9.958  0.00  0.00     0.038 A 
HETATM    8  C   UNK N   1      36.888  14.233  11.195  0.00  0.00     0.119 A 
HETATM    9  C   UNK N   1      36.273  14.187   7.556  0.00  0.00     0.070 A 
HETATM   10  C   UNK N   1      35.164  15.030   7.428  0.00  0.00     0.103 A 
HETATM   11  C   UNK N   1      34.608  15.630   8.594  0.00  0.00     0.102 A 
HETATM   12  C   UNK N   1      35.187  15.361   9.849  0.00  0.00     0.057 A 
ENDROOT
BRANCH   8  13
HETATM   13  N   UNK N   1      36.365  14.809  12.393  0.00  0.00    -0.342 N 
HETATM   14  H   UNK N   1      36.187  15.777  12.390  0.00  0.00     0.167 HD
BRANCH  13  15
HETATM   15  C   UNK N   1      36.080  14.095  13.592  0.00  0.00     0.034 A 
HETATM   16  C   UNK N   1      35.201  13.004  13.603  0.00  0.00     0.048 A 
HETATM   17  C   UNK N   1      34.934  12.301  14.774  0.00  0.00     0.002 A 
HETATM   18  C   UNK N   1      35.560  12.691  15.965  0.00  0.00     0.018 A 
HETATM   19  C   UNK N   1      36.437  13.784  15.972  0.00  0.00     0.004 A 
HETATM   20  C   UNK N   1      36.697  14.482  14.787  0.00  0.00     0.029 A 
BRANCH  17  21
HETATM   21  S   UNK N   1      33.813  10.892  14.676  0.00  0.00    -0.134 SA
HETATM   22  C   UNK N   1      34.131  10.438  12.946  0.00  0.00     0.095 C 
ENDBRANCH  17  21
ENDBRANCH  13  15
ENDBRANCH   8  13
BRANCH  11  23
HETATM   23  O   UNK N   1      33.534  16.453   8.500  0.00  0.00    -0.353 OA
HETATM   24  C   UNK N   1      32.236  16.032   8.687  0.00  0.00     0.210 C 
ENDBRANCH  11  23
BRANCH  10  25
HETATM   25  O   UNK N   1      34.674  15.229   6.176  0.00  0.00    -0.353 OA
HETATM   26  C   UNK N   1      34.162  14.253   5.352  0.00  0.00     0.210 C 
ENDBRANCH  10  25
TORSDOF 5
ENDMDL
MODEL 5
REMARK VINA RESULT:      -5.9      3.754      7.075
REMARK  5 active torsions:
REMARK  status: ('A' for Active; 'I' for Inactive)
REMARK    1  A    between atoms: C_8  and  N_13 
REMARK    2  A    between atoms: C_10  and  O_22 
REMARK    3  A    between atoms: C_11  and  O_24 
REMARK    4  A    between atoms: N_13  and  C_14 
REMARK    5  A    between atoms: C_16  and  S_20 
ROOT
HETATM    1  N   UNK N   1      29.065  15.346   3.123  0.00  0.00    -0.338 N 
ATOM      2  HN  UNK N   1      29.942  14.857   2.947  1.00  0.00     0.168 HD
HETATM    3  C   UNK N   1      27.896  14.662   3.032  0.00  0.00     0.182 A 
HETATM    4  N   UNK N   1      26.717  15.293   3.262  0.00  0.00    -0.351 N 
ATOM      5  HN  UNK N   1      25.843  14.771   3.192  1.00  0.00     0.166 HD
HETATM    6  C   UNK N   1      26.688  16.612   3.582  0.00  0.00     0.050 A 
HETATM    7  C   UNK N   1      27.887  17.338   3.680  0.00  0.00     0.038 A 
HETATM    8  C   UNK N   1      29.096  16.671   3.441  0.00  0.00     0.119 A 
HETATM    9  C   UNK N   1      25.469  17.244   3.814  0.00  0.00     0.070 A 
HETATM   10  C   UNK N   1      25.411  18.602   4.145  0.00  0.00     0.103 A 
HETATM   11  C   UNK N   1      26.622  19.345   4.245  0.00  0.00     0.102 A 
HETATM   12  C   UNK N   1      27.850  18.696   4.009  0.00  0.00     0.057 A 
ENDROOT
BRANCH   8  13
HETATM   13  N   UNK N   1      30.336  17.374   3.531  0.00  0.00    -0.342 N 
HETATM   14  H   UNK N   1      30.605  17.920   2.758  0.00  0.00     0.167 HD
BRANCH  13  15
HETATM   15  C   UNK N   1      31.216  17.348   4.651  0.00  0.00     0.034 A 
HETATM   16  C   UNK N   1      30.737  17.153   5.953  0.00  0.00     0.048 A 
HETATM   17  C   UNK N   1      31.600  17.116   7.044  0.00  0.00     0.002 A 
HETATM   18  C   UNK N   1      32.977  17.274   6.834  0.00  0.00     0.018 A 
HETATM   19  C   UNK N   1      33.470  17.475   5.539  0.00  0.00     0.004 A 
HETATM   20  C   UNK N   1      32.591  17.510   4.451  0.00  0.00     0.029 A 
BRANCH  17  21
HETATM   21  S   UNK N   1      30.888  16.827   8.676  0.00  0.00    -0.134 SA
HETATM   22  C   UNK N   1      30.382  18.535   9.035  0.00  0.00     0.095 C 
ENDBRANCH  17  21
ENDBRANCH  13  15
ENDBRANCH   8  13
BRANCH  11  23
HETATM   23  O   UNK N   1      26.597  20.663   4.562  0.00  0.00    -0.353 OA
HETATM   24  C   UNK N   1      26.902  21.149   5.814  0.00  0.00     0.210 C 
ENDBRANCH  11  23
BRANCH  10  25
HETATM   25  O   UNK N   1      24.181  19.139   4.356  0.00  0.00    -0.353 OA
HETATM   26  C   UNK N   1      23.384  19.718   3.396  0.00  0.00     0.210 C 
ENDBRANCH  10  25
TORSDOF 5
ENDMDL
MODEL 6
REMARK VINA RESULT:      -5.9      4.275      8.263
REMARK  5 active torsions:
REMARK  status: ('A' for Active; 'I' for Inactive)
REMARK    1  A    between atoms: C_8  and  N_13 
REMARK    2  A    between atoms: C_10  and  O_22 
REMARK    3  A    between atoms: C_11  and  O_24 
REMARK    4  A    between atoms: N_13  and  C_14 
REMARK    5  A    between atoms: C_16  and  S_20 
ROOT
HETATM    1  N   UNK N   1      27.470  19.511   4.509  0.00  0.00    -0.338 N 
ATOM      2  HN  UNK N   1      28.431  19.403   4.831  1.00  0.00     0.168 HD
HETATM    3  C   UNK N   1      27.196  20.415   3.534  0.00  0.00     0.182 A 
HETATM    4  N   UNK N   1      25.925  20.575   3.090  0.00  0.00    -0.351 N 
ATOM      5  HN  UNK N   1      25.728  21.256   2.356  1.00  0.00     0.166 HD
HETATM    6  C   UNK N   1      24.911  19.839   3.612  0.00  0.00     0.050 A 
HETATM    7  C   UNK N   1      25.172  18.899   4.624  0.00  0.00     0.038 A 
HETATM    8  C   UNK N   1      26.492  18.746   5.070  0.00  0.00     0.119 A 
HETATM    9  C   UNK N   1      23.611  20.017   3.145  0.00  0.00     0.070 A 
HETATM   10  C   UNK N   1      22.548  19.273   3.667  0.00  0.00     0.103 A 
HETATM   11  C   UNK N   1      22.805  18.319   4.693  0.00  0.00     0.102 A 
HETATM   12  C   UNK N   1      24.123  18.147   5.158  0.00  0.00     0.057 A 
ENDROOT
BRANCH   8  13
HETATM   13  N   UNK N   1      26.799  17.800   6.096  0.00  0.00    -0.342 N 
HETATM   14  H   UNK N   1      26.134  17.099   6.281  0.00  0.00     0.167 HD
BRANCH  13  15
HETATM   15  C   UNK N   1      27.994  17.789   6.872  0.00  0.00     0.034 A 
HETATM   16  C   UNK N   1      29.104  17.023   6.495  0.00  0.00     0.048 A 
HETATM   17  C   UNK N   1      30.274  17.024   7.249  0.00  0.00     0.002 A 
HETATM   18  C   UNK N   1      30.342  17.811   8.407  0.00  0.00     0.018 A 
HETATM   19  C   UNK N   1      29.238  18.578   8.800  0.00  0.00     0.004 A 
HETATM   20  C   UNK N   1      28.068  18.568   8.033  0.00  0.00     0.029 A 
BRANCH  17  21
HETATM   21  S   UNK N   1      31.659  16.029   6.662  0.00  0.00    -0.134 SA
HETATM   22  C   UNK N   1      32.973  17.260   6.903  0.00  0.00     0.095 C 
ENDBRANCH  17  21
ENDBRANCH  13  15
ENDBRANCH   8  13
BRANCH  11  23
HETATM   23  O   UNK N   1      21.794  17.584   5.220  0.00  0.00    -0.353 OA
HETATM   24  C   UNK N   1      21.253  17.819   6.464  0.00  0.00     0.210 C 
ENDBRANCH  11  23
BRANCH  10  25
HETATM   25  O   UNK N   1      21.311  19.508   3.154  0.00  0.00    -0.353 OA
HETATM   26  C   UNK N   1      20.903  20.675   2.550  0.00  0.00     0.210 C 
ENDBRANCH  10  25
TORSDOF 5
ENDMDL
MODEL 7
REMARK VINA RESULT:      -5.9      7.519      9.312
REMARK  5 active torsions:
REMARK  status: ('A' for Active; 'I' for Inactive)
REMARK    1  A    between atoms: C_8  and  N_13 
REMARK    2  A    between atoms: C_10  and  O_22 
REMARK    3  A    between atoms: C_11  and  O_24 
REMARK    4  A    between atoms: N_13  and  C_14 
REMARK    5  A    between atoms: C_16  and  S_20 
ROOT
HETATM    1  N   UNK N   1      23.857  15.695   5.825  0.00  0.00    -0.338 N 
ATOM      2  HN  UNK N   1      24.400  16.188   5.117  1.00  0.00     0.168 HD
HETATM    3  C   UNK N   1      24.294  14.489   6.271  0.00  0.00     0.182 A 
HETATM    4  N   UNK N   1      23.589  13.814   7.213  0.00  0.00    -0.351 N 
ATOM      5  HN  UNK N   1      23.926  12.909   7.543  1.00  0.00     0.166 HD
HETATM    6  C   UNK N   1      22.441  14.330   7.720  0.00  0.00     0.050 A 
HETATM    7  C   UNK N   1      21.971  15.576   7.271  0.00  0.00     0.038 A 
HETATM    8  C   UNK N   1      22.711  16.260   6.298  0.00  0.00     0.119 A 
HETATM    9  C   UNK N   1      21.730  13.623   8.686  0.00  0.00     0.070 A 
HETATM   10  C   UNK N   1      20.543  14.132   9.225  0.00  0.00     0.103 A 
HETATM   11  C   UNK N   1      20.059  15.393   8.774  0.00  0.00     0.102 A 
HETATM   12  C   UNK N   1      20.787  16.100   7.797  0.00  0.00     0.057 A 
ENDROOT
BRANCH   8  13
HETATM   13  N   UNK N   1      22.268  17.529   5.816  0.00  0.00    -0.342 N 
HETATM   14  H   UNK N   1      22.461  18.318   6.372  0.00  0.00     0.167 HD
BRANCH  13  15
HETATM   15  C   UNK N   1      21.570  17.746   4.593  0.00  0.00     0.034 A 
HETATM   16  C   UNK N   1      21.405  16.720   3.653  0.00  0.00     0.048 A 
HETATM   17  C   UNK N   1      20.712  16.932   2.465  0.00  0.00     0.002 A 
HETATM   18  C   UNK N   1      20.165  18.196   2.207  0.00  0.00     0.018 A 
HETATM   19  C   UNK N   1      20.326  19.233   3.135  0.00  0.00     0.004 A 
HETATM   20  C   UNK N   1      21.025  19.007   4.325  0.00  0.00     0.029 A 
BRANCH  17  21
HETATM   21  S   UNK N   1      20.527  15.539   1.335  0.00  0.00    -0.134 SA
HETATM   22  C   UNK N   1      19.606  14.435   2.446  0.00  0.00     0.095 C 
ENDBRANCH  17  21
ENDBRANCH  13  15
ENDBRANCH   8  13
BRANCH  11  23
HETATM   23  O   UNK N   1      18.911  15.910   9.277  0.00  0.00    -0.353 OA
HETATM   24  C   UNK N   1      18.275  17.010   8.743  0.00  0.00     0.210 C 
ENDBRANCH  11  23
BRANCH  10  25
HETATM   25  O   UNK N   1      19.912  13.378  10.164  0.00  0.00    -0.353 OA
HETATM   26  C   UNK N   1      20.522  12.501  11.030  0.00  0.00     0.210 C 
ENDBRANCH  10  25
TORSDOF 5
ENDMDL
MODEL 8
REMARK VINA RESULT:      -5.9      5.556      9.462
REMARK  5 active torsions:
REMARK  status: ('A' for Active; 'I' for Inactive)
REMARK    1  A    between atoms: C_8  and  N_13 
REMARK    2  A    between atoms: C_10  and  O_22 
REMARK    3  A    between atoms: C_11  and  O_24 
REMARK    4  A    between atoms: N_13  and  C_14 
REMARK    5  A    between atoms: C_16  and  S_20 
ROOT
HETATM    1  N   UNK N   1      20.592  19.292   3.558  0.00  0.00    -0.338 N 
ATOM      2  HN  UNK N   1      20.695  20.148   4.102  1.00  0.00     0.168 HD
HETATM    3  C   UNK N   1      19.514  19.151   2.745  0.00  0.00     0.182 A 
HETATM    4  N   UNK N   1      19.355  18.021   2.012  0.00  0.00    -0.351 N 
ATOM      5  HN  UNK N   1      18.543  17.924   1.402  1.00  0.00     0.166 HD
HETATM    6  C   UNK N   1      20.266  17.017   2.081  0.00  0.00     0.050 A 
HETATM    7  C   UNK N   1      21.388  17.142   2.918  0.00  0.00     0.038 A 
HETATM    8  C   UNK N   1      21.537  18.317   3.668  0.00  0.00     0.119 A 
HETATM    9  C   UNK N   1      20.087  15.863   1.322  0.00  0.00     0.070 A 
HETATM   10  C   UNK N   1      21.011  14.814   1.376  0.00  0.00     0.103 A 
HETATM   11  C   UNK N   1      22.150  14.933   2.223  0.00  0.00     0.102 A 
HETATM   12  C   UNK N   1      22.321  16.104   2.986  0.00  0.00     0.057 A 
ENDROOT
BRANCH   8  13
HETATM   13  N   UNK N   1      22.664  18.483   4.529  0.00  0.00    -0.342 N 
HETATM   14  H   UNK N   1      22.577  18.163   5.456  0.00  0.00     0.167 HD
BRANCH  13  15
HETATM   15  C   UNK N   1      23.905  19.075   4.156  0.00  0.00     0.034 A 
HETATM   16  C   UNK N   1      25.106  18.707   4.775  0.00  0.00     0.048 A 
HETATM   17  C   UNK N   1      26.319  19.278   4.399  0.00  0.00     0.002 A 
HETATM   18  C   UNK N   1      26.337  20.237   3.377  0.00  0.00     0.018 A 
HETATM   19  C   UNK N   1      25.143  20.619   2.752  0.00  0.00     0.004 A 
HETATM   20  C   UNK N   1      23.931  20.037   3.140  0.00  0.00     0.029 A 
BRANCH  17  21
HETATM   21  S   UNK N   1      27.814  18.714   5.235  0.00  0.00    -0.134 SA
HETATM   22  C   UNK N   1      27.666  19.736   6.730  0.00  0.00     0.095 C 
ENDBRANCH  17  21
ENDBRANCH  13  15
ENDBRANCH   8  13
BRANCH  11  23
HETATM   23  O   UNK N   1      23.061  13.930   2.297  0.00  0.00    -0.353 OA
HETATM   24  C   UNK N   1      23.111  13.025   3.333  0.00  0.00     0.210 C 
ENDBRANCH  11  23
BRANCH  10  25
HETATM   25  O   UNK N   1      20.761  13.724   0.602  0.00  0.00    -0.353 OA
HETATM   26  C   UNK N   1      19.988  12.645   0.963  0.00  0.00     0.210 C 
ENDBRANCH  10  25
TORSDOF 5
ENDMDL
MODEL 9
REMARK VINA RESULT:      -5.8      5.846      7.361
REMARK  5 active torsions:
REMARK  status: ('A' for Active; 'I' for Inactive)
REMARK    1  A    between atoms: C_8  and  N_13 
REMARK    2  A    between atoms: C_10  and  O_22 
REMARK    3  A    between atoms: C_11  and  O_24 
REMARK    4  A    between atoms: N_13  and  C_14 
REMARK    5  A    between atoms: C_16  and  S_20 
ROOT
HETATM    1  N   UNK N   1      32.665  15.881   8.197  0.00  0.00    -0.338 N 
ATOM      2  HN  UNK N   1      32.143  16.250   7.403  1.00  0.00     0.168 HD
HETATM    3  C   UNK N   1      32.001  15.580   9.342  0.00  0.00     0.182 A 
HETATM    4  N   UNK N   1      32.675  15.086  10.411  0.00  0.00    -0.351 N 
ATOM      5  HN  UNK N   1      32.168  14.862  11.268  1.00  0.00     0.166 HD
HETATM    6  C   UNK N   1      34.016  14.889  10.354  0.00  0.00     0.050 A 
HETATM    7  C   UNK N   1      34.723  15.195   9.178  0.00  0.00     0.038 A 
HETATM    8  C   UNK N   1      34.012  15.703   8.083  0.00  0.00     0.119 A 
HETATM    9  C   UNK N   1      34.692  14.382  11.461  0.00  0.00     0.070 A 
HETATM   10  C   UNK N   1      36.075  14.170  11.429  0.00  0.00     0.103 A 
HETATM   11  C   UNK N   1      36.797  14.480  10.241  0.00  0.00     0.102 A 
HETATM   12  C   UNK N   1      36.104  14.991   9.127  0.00  0.00     0.057 A 
ENDROOT
BRANCH   8  13
HETATM   13  N   UNK N   1      34.692  16.027   6.869  0.00  0.00    -0.342 N 
HETATM   14  H   UNK N   1      35.665  16.171   6.920  0.00  0.00     0.167 HD
BRANCH  13  15
HETATM   15  C   UNK N   1      34.077  16.155   5.591  0.00  0.00     0.034 A 
HETATM   16  C   UNK N   1      34.079  15.101   4.669  0.00  0.00     0.048 A 
HETATM   17  C   UNK N   1      33.467  15.225   3.425  0.00  0.00     0.002 A 
HETATM   18  C   UNK N   1      32.832  16.430   3.092  0.00  0.00     0.018 A 
HETATM   19  C   UNK N   1      32.827  17.495   4.001  0.00  0.00     0.004 A 
HETATM   20  C   UNK N   1      33.446  17.357   5.248  0.00  0.00     0.029 A 
BRANCH  17  21
HETATM   21  S   UNK N   1      33.496  13.800   2.322  0.00  0.00    -0.134 SA
HETATM   22  C   UNK N   1      31.772  13.272   2.547  0.00  0.00     0.095 C 
ENDBRANCH  17  21
ENDBRANCH  13  15
ENDBRANCH   8  13
BRANCH  11  23
HETATM   23  O   UNK N   1      38.138  14.287  10.181  0.00  0.00    -0.353 OA
HETATM   24  C   UNK N   1      38.722  13.181   9.602  0.00  0.00     0.210 C 
ENDBRANCH  11  23
BRANCH  10  25
HETATM   25  O   UNK N   1      36.655  13.672  12.552  0.00  0.00    -0.353 OA
HETATM   26  C   UNK N   1      36.270  13.950  13.843  0.00  0.00     0.210 C 
ENDBRANCH  10  25
TORSDOF 5
ENDMDL
