MODEL 1
REMARK VINA RESULT:      -6.3      0.000      0.000
REMARK  6 active torsions:
REMARK  status: ('A' for Active; 'I' for Inactive)
REMARK    1  A    between atoms: S_2  and  C_3 
REMARK    2  A    between atoms: C_4  and  C_3 
REMARK    3  A    between atoms: C_6  and  O_7 
REMARK    4  A    between atoms: C_8  and  O_9 
REMARK    5  A    between atoms: C_10  and  N_11 
REMARK    6  A    between atoms: C_15  and  N_16 
ROOT
HETATM    1  N   UNK N   1      35.271  11.493  15.770  0.00  0.00    -0.312 N 
HETATM    2  C   UNK N   1      35.218  10.220  16.241  0.00  0.00     0.096 A 
HETATM    3  C   UNK N   1      35.149  10.232  17.639  0.00  0.00     0.036 A 
HETATM    4  C   UNK N   1      35.193  11.565  17.992  0.00  0.00     0.053 A 
HETATM    5  C   UNK N   1      35.212  12.202  19.226  0.00  0.00     0.113 A 
HETATM    6  N   UNK N   1      35.301  13.563  19.249  0.00  0.00    -0.338 N 
ATOM      7  HN  UNK N   1      35.314  14.052  20.144  1.00  0.00     0.168 HD
HETATM    8  C   UNK N   1      35.375  14.285  18.084  0.00  0.00     0.183 A 
HETATM    9  N   UNK N   1      35.362  13.648  16.874  0.00  0.00    -0.338 N 
ATOM     10  HN  UNK N   1      35.426  14.179  16.006  1.00  0.00     0.168 HD
HETATM   11  C   UNK N   1      35.263  12.295  16.852  0.00  0.00     0.124 A 
ENDROOT
BRANCH   1  12
HETATM   12  C   UNK N   1      35.475  11.844  14.356  0.00  0.00     0.261 C 
HETATM   13  O   UNK N   1      34.927  13.109  14.038  0.00  0.00    -0.355 OA
HETATM   14  C   UNK N   1      35.542  13.491  12.812  0.00  0.00     0.165 C 
HETATM   15  C   UNK N   1      36.690  12.496  12.546  0.00  0.00     0.180 C 
HETATM   16  C   UNK N   1      36.930  11.925  13.912  0.00  0.00     0.198 C 
BRANCH  14  17
HETATM   17  C   UNK N   1      35.974  14.958  12.893  0.00  0.00     0.108 C 
BRANCH  17  18
HETATM   18  S   UNK N   1      35.663  15.845  11.319  0.00  0.00    -0.171 SA
HETATM   19  C   UNK N   1      34.194  14.863  10.886  0.00  0.00     0.089 C 
ENDBRANCH  17  18
ENDBRANCH  14  17
BRANCH  15  20
HETATM   20  O   UNK N   1      37.842  13.037  11.967  0.00  0.00    -0.390 OA
HETATM   21  H   UNK N   1      38.743  12.704  12.102  0.00  0.00     0.210 HD
ENDBRANCH  15  20
BRANCH  16  22
HETATM   22  O   UNK N   1      37.624  12.842  14.712  0.00  0.00    -0.388 OA
HETATM   23  H   UNK N   1      37.905  13.457  15.407  0.00  0.00     0.210 HD
ENDBRANCH  16  22
ENDBRANCH   1  12
BRANCH   5  24
HETATM   24  N   UNK N   1      35.166  11.468  20.429  0.00  0.00    -0.385 N 
HETATM   25  H   UNK N   1      35.232  11.929  21.295  0.00  0.00     0.157 HD
HETATM   26  H   UNK N   1      35.066  10.490  20.401  0.00  0.00     0.157 HD
ENDBRANCH   5  24
TORSDOF 6
ENDMDL
MODEL 2
REMARK VINA RESULT:      -5.5      1.075      2.089
REMARK  6 active torsions:
REMARK  status: ('A' for Active; 'I' for Inactive)
REMARK    1  A    between atoms: S_2  and  C_3 
REMARK    2  A    between atoms: C_4  and  C_3 
REMARK    3  A    between atoms: C_6  and  O_7 
REMARK    4  A    between atoms: C_8  and  O_9 
REMARK    5  A    between atoms: C_10  and  N_11 
REMARK    6  A    between atoms: C_15  and  N_16 
ROOT
HETATM    1  N   UNK N   1      35.506  12.321  16.454  0.00  0.00    -0.312 N 
HETATM    2  C   UNK N   1      35.164  13.378  17.235  0.00  0.00     0.096 A 
HETATM    3  C   UNK N   1      35.034  12.966  18.566  0.00  0.00     0.036 A 
HETATM    4  C   UNK N   1      35.281  11.608  18.550  0.00  0.00     0.053 A 
HETATM    5  C   UNK N   1      35.250  10.644  19.548  0.00  0.00     0.113 A 
HETATM    6  N   UNK N   1      35.508   9.349  19.203  0.00  0.00    -0.338 N 
ATOM      7  HN  UNK N   1      35.493   8.624  19.921  1.00  0.00     0.168 HD
HETATM    8  C   UNK N   1      35.787   9.007  17.905  0.00  0.00     0.183 A 
HETATM    9  N   UNK N   1      35.810   9.963  16.928  0.00  0.00    -0.338 N 
ATOM     10  HN  UNK N   1      36.007   9.713  15.959  1.00  0.00     0.168 HD
HETATM   11  C   UNK N   1      35.563  11.252  17.272  0.00  0.00     0.124 A 
ENDROOT
BRANCH   1  12
HETATM   12  C   UNK N   1      35.601  12.372  14.987  0.00  0.00     0.261 C 
HETATM   13  O   UNK N   1      35.067  13.571  14.462  0.00  0.00    -0.355 OA
HETATM   14  C   UNK N   1      35.587  13.671  13.140  0.00  0.00     0.165 C 
HETATM   15  C   UNK N   1      36.679  12.591  12.995  0.00  0.00     0.180 C 
HETATM   16  C   UNK N   1      37.015  12.294  14.426  0.00  0.00     0.198 C 
BRANCH  14  17
HETATM   17  C   UNK N   1      36.069  15.104  12.889  0.00  0.00     0.108 C 
BRANCH  17  18
HETATM   18  S   UNK N   1      35.751  15.632  11.163  0.00  0.00    -0.171 SA
HETATM   19  C   UNK N   1      34.161  14.758  11.032  0.00  0.00     0.089 C 
ENDBRANCH  17  18
ENDBRANCH  14  17
BRANCH  15  20
HETATM   20  O   UNK N   1      37.794  12.952  12.233  0.00  0.00    -0.390 OA
HETATM   21  H   UNK N   1      37.867  13.757  11.697  0.00  0.00     0.210 HD
ENDBRANCH  15  20
BRANCH  16  22
HETATM   22  O   UNK N   1      37.801  13.320  14.968  0.00  0.00    -0.388 OA
HETATM   23  H   UNK N   1      38.368  13.872  15.529  0.00  0.00     0.210 HD
ENDBRANCH  16  22
ENDBRANCH   1  12
BRANCH   5  24
HETATM   24  N   UNK N   1      34.936  10.980  20.881  0.00  0.00    -0.385 N 
HETATM   25  H   UNK N   1      34.979  10.299  21.589  0.00  0.00     0.157 HD
HETATM   26  H   UNK N   1      34.671  11.901  21.104  0.00  0.00     0.157 HD
ENDBRANCH   5  24
TORSDOF 6
ENDMDL
MODEL 3
REMARK VINA RESULT:      -5.4      3.611      5.223
REMARK  6 active torsions:
REMARK  status: ('A' for Active; 'I' for Inactive)
REMARK    1  A    between atoms: S_2  and  C_3 
REMARK    2  A    between atoms: C_4  and  C_3 
REMARK    3  A    between atoms: C_6  and  O_7 
REMARK    4  A    between atoms: C_8  and  O_9 
REMARK    5  A    between atoms: C_10  and  N_11 
REMARK    6  A    between atoms: C_15  and  N_16 
ROOT
HETATM    1  N   UNK N   1      36.151  13.703  11.410  0.00  0.00    -0.312 N 
HETATM    2  C   UNK N   1      36.255  12.416  10.990  0.00  0.00     0.096 A 
HETATM    3  C   UNK N   1      36.604  11.590  12.064  0.00  0.00     0.036 A 
HETATM    4  C   UNK N   1      36.737  12.438  13.144  0.00  0.00     0.053 A 
HETATM    5  C   UNK N   1      37.115  12.217  14.462  0.00  0.00     0.113 A 
HETATM    6  N   UNK N   1      37.193  13.291  15.300  0.00  0.00    -0.338 N 
ATOM      7  HN  UNK N   1      37.466  13.152  16.273  1.00  0.00     0.168 HD
HETATM    8  C   UNK N   1      36.909  14.557  14.853  0.00  0.00     0.183 A 
HETATM    9  N   UNK N   1      36.545  14.766  13.552  0.00  0.00    -0.338 N 
ATOM     10  HN  UNK N   1      36.342  15.706  13.212  1.00  0.00     0.168 HD
HETATM   11  C   UNK N   1      36.457  13.696  12.721  0.00  0.00     0.124 A 
ENDROOT
BRANCH   1  12
HETATM   12  C   UNK N   1      35.922  14.849  10.517  0.00  0.00     0.261 C 
HETATM   13  O   UNK N   1      35.597  14.442   9.202  0.00  0.00    -0.355 OA
HETATM   14  C   UNK N   1      35.011  15.583   8.585  0.00  0.00     0.165 C 
HETATM   15  C   UNK N   1      34.762  16.626   9.694  0.00  0.00     0.180 C 
HETATM   16  C   UNK N   1      34.788  15.777  10.930  0.00  0.00     0.198 C 
BRANCH  14  17
HETATM   17  C   UNK N   1      33.756  15.158   7.815  0.00  0.00     0.108 C 
BRANCH  17  18
HETATM   18  S   UNK N   1      33.963  15.380   6.007  0.00  0.00    -0.171 SA
HETATM   19  C   UNK N   1      33.834  17.193   6.066  0.00  0.00     0.089 C 
ENDBRANCH  17  18
ENDBRANCH  14  17
BRANCH  15  20
HETATM   20  O   UNK N   1      33.592  17.379   9.569  0.00  0.00    -0.390 OA
HETATM   21  H   UNK N   1      32.692  17.016   9.558  0.00  0.00     0.210 HD
ENDBRANCH  15  20
BRANCH  16  22
HETATM   22  O   UNK N   1      33.596  15.051  11.051  0.00  0.00    -0.388 OA
HETATM   23  H   UNK N   1      32.858  14.431  10.938  0.00  0.00     0.210 HD
ENDBRANCH  16  22
ENDBRANCH   1  12
BRANCH   5  24
HETATM   24  N   UNK N   1      37.436  10.925  14.924  0.00  0.00    -0.385 N 
HETATM   25  H   UNK N   1      37.848  10.268  14.318  0.00  0.00     0.157 HD
HETATM   26  H   UNK N   1      37.246  10.678  15.857  0.00  0.00     0.157 HD
ENDBRANCH   5  24
TORSDOF 6
ENDMDL
MODEL 4
REMARK VINA RESULT:      -5.4      7.445     10.201
REMARK  6 active torsions:
REMARK  status: ('A' for Active; 'I' for Inactive)
REMARK    1  A    between atoms: S_2  and  C_3 
REMARK    2  A    between atoms: C_4  and  C_3 
REMARK    3  A    between atoms: C_6  and  O_7 
REMARK    4  A    between atoms: C_8  and  O_9 
REMARK    5  A    between atoms: C_10  and  N_11 
REMARK    6  A    between atoms: C_15  and  N_16 
ROOT
HETATM    1  N   UNK N   1      31.602  16.977   7.133  0.00  0.00    -0.312 N 
HETATM    2  C   UNK N   1      31.078  16.849   5.887  0.00  0.00     0.096 A 
HETATM    3  C   UNK N   1      29.782  17.378   5.858  0.00  0.00     0.036 A 
HETATM    4  C   UNK N   1      29.535  17.801   7.148  0.00  0.00     0.053 A 
HETATM    5  C   UNK N   1      28.414  18.359   7.747  0.00  0.00     0.113 A 
HETATM    6  N   UNK N   1      28.466  18.639   9.081  0.00  0.00    -0.338 N 
ATOM      7  HN  UNK N   1      27.655  19.051   9.542  1.00  0.00     0.168 HD
HETATM    8  C   UNK N   1      29.596  18.374   9.813  0.00  0.00     0.183 A 
HETATM    9  N   UNK N   1      30.693  17.820   9.216  0.00  0.00    -0.338 N 
ATOM     10  HN  UNK N   1      31.533  17.612   9.757  1.00  0.00     0.168 HD
HETATM   11  C   UNK N   1      30.644  17.550   7.887  0.00  0.00     0.124 A 
ENDROOT
BRANCH   1  12
HETATM   12  C   UNK N   1      32.897  16.415   7.548  0.00  0.00     0.261 C 
HETATM   13  O   UNK N   1      33.091  16.504   8.945  0.00  0.00    -0.355 OA
HETATM   14  C   UNK N   1      34.137  15.584   9.243  0.00  0.00     0.165 C 
HETATM   15  C   UNK N   1      34.380  14.743   7.973  0.00  0.00     0.180 C 
HETATM   16  C   UNK N   1      33.100  14.942   7.217  0.00  0.00     0.198 C 
BRANCH  14  17
HETATM   17  C   UNK N   1      33.763  14.771  10.486  0.00  0.00     0.108 C 
BRANCH  17  18
HETATM   18  S   UNK N   1      35.171  14.628  11.651  0.00  0.00    -0.171 SA
HETATM   19  C   UNK N   1      36.047  16.084  11.000  0.00  0.00     0.089 C 
ENDBRANCH  17  18
ENDBRANCH  14  17
BRANCH  15  20
HETATM   20  O   UNK N   1      34.687  13.396   8.186  0.00  0.00    -0.390 OA
HETATM   21  H   UNK N   1      34.145  12.773   8.696  0.00  0.00     0.210 HD
ENDBRANCH  15  20
BRANCH  16  22
HETATM   22  O   UNK N   1      32.071  14.179   7.785  0.00  0.00    -0.388 OA
HETATM   23  H   UNK N   1      31.460  13.726   8.387  0.00  0.00     0.210 HD
ENDBRANCH  16  22
ENDBRANCH   1  12
BRANCH   5  24
HETATM   24  N   UNK N   1      27.238  18.608   7.010  0.00  0.00    -0.385 N 
HETATM   25  H   UNK N   1      26.845  19.509   6.990  0.00  0.00     0.157 HD
HETATM   26  H   UNK N   1      26.808  17.875   6.513  0.00  0.00     0.157 HD
ENDBRANCH   5  24
TORSDOF 6
ENDMDL
MODEL 5
REMARK VINA RESULT:      -5.3      6.279      7.875
REMARK  6 active torsions:
REMARK  status: ('A' for Active; 'I' for Inactive)
REMARK    1  A    between atoms: S_2  and  C_3 
REMARK    2  A    between atoms: C_4  and  C_3 
REMARK    3  A    between atoms: C_6  and  O_7 
REMARK    4  A    between atoms: C_8  and  O_9 
REMARK    5  A    between atoms: C_10  and  N_11 
REMARK    6  A    between atoms: C_15  and  N_16 
ROOT
HETATM    1  N   UNK N   1      33.591  14.142   9.162  0.00  0.00    -0.312 N 
HETATM    2  C   UNK N   1      34.042  12.875   8.971  0.00  0.00     0.096 A 
HETATM    3  C   UNK N   1      35.215  12.669   9.707  0.00  0.00     0.036 A 
HETATM    4  C   UNK N   1      35.469  13.876  10.326  0.00  0.00     0.053 A 
HETATM    5  C   UNK N   1      36.509  14.305  11.140  0.00  0.00     0.113 A 
HETATM    6  N   UNK N   1      36.498  15.599  11.573  0.00  0.00    -0.338 N 
ATOM      7  HN  UNK N   1      37.251  15.935  12.174  1.00  0.00     0.168 HD
HETATM    8  C   UNK N   1      35.490  16.456  11.212  0.00  0.00     0.183 A 
HETATM    9  N   UNK N   1      34.473  16.026  10.405  0.00  0.00    -0.338 N 
ATOM     10  HN  UNK N   1      33.725  16.661  10.126  1.00  0.00     0.168 HD
HETATM   11  C   UNK N   1      34.478  14.736   9.983  0.00  0.00     0.124 A 
ENDROOT
BRANCH   1  12
HETATM   12  C   UNK N   1      32.453  14.732   8.442  0.00  0.00     0.261 C 
HETATM   13  O   UNK N   1      31.783  15.707   9.216  0.00  0.00    -0.355 OA
HETATM   14  C   UNK N   1      31.010  16.463   8.289  0.00  0.00     0.165 C 
HETATM   15  C   UNK N   1      31.462  16.049   6.873  0.00  0.00     0.180 C 
HETATM   16  C   UNK N   1      32.806  15.441   7.140  0.00  0.00     0.198 C 
BRANCH  14  17
HETATM   17  C   UNK N   1      31.161  17.956   8.596  0.00  0.00     0.108 C 
BRANCH  17  18
HETATM   18  S   UNK N   1      29.710  18.612   9.504  0.00  0.00    -0.171 SA
HETATM   19  C   UNK N   1      28.554  18.380   8.117  0.00  0.00     0.089 C 
ENDBRANCH  17  18
ENDBRANCH  14  17
BRANCH  15  20
HETATM   20  O   UNK N   1      31.502  17.075   5.924  0.00  0.00    -0.390 OA
HETATM   21  H   UNK N   1      32.225  17.225   5.295  0.00  0.00     0.210 HD
ENDBRANCH  15  20
BRANCH  16  22
HETATM   22  O   UNK N   1      33.757  16.440   7.383  0.00  0.00    -0.388 OA
HETATM   23  H   UNK N   1      34.405  17.044   7.779  0.00  0.00     0.210 HD
ENDBRANCH  16  22
ENDBRANCH   1  12
BRANCH   5  24
HETATM   24  N   UNK N   1      37.565  13.441  11.493  0.00  0.00    -0.385 N 
HETATM   25  H   UNK N   1      37.377  12.535  11.828  0.00  0.00     0.157 HD
HETATM   26  H   UNK N   1      38.496  13.746  11.405  0.00  0.00     0.157 HD
ENDBRANCH   5  24
TORSDOF 6
ENDMDL
MODEL 6
REMARK VINA RESULT:      -5.3      5.337      8.629
REMARK  6 active torsions:
REMARK  status: ('A' for Active; 'I' for Inactive)
REMARK    1  A    between atoms: S_2  and  C_3 
REMARK    2  A    between atoms: C_4  and  C_3 
REMARK    3  A    between atoms: C_6  and  O_7 
REMARK    4  A    between atoms: C_8  and  O_9 
REMARK    5  A    between atoms: C_10  and  N_11 
REMARK    6  A    between atoms: C_15  and  N_16 
ROOT
HETATM    1  N   UNK N   1      34.927  15.188   9.055  0.00  0.00    -0.312 N 
HETATM    2  C   UNK N   1      35.594  14.621   8.017  0.00  0.00     0.096 A 
HETATM    3  C   UNK N   1      35.198  15.215   6.813  0.00  0.00     0.036 A 
HETATM    4  C   UNK N   1      34.240  16.143   7.166  0.00  0.00     0.053 A 
HETATM    5  C   UNK N   1      33.449  17.000   6.412  0.00  0.00     0.113 A 
HETATM    6  N   UNK N   1      32.545  17.787   7.064  0.00  0.00    -0.338 N 
ATOM      7  HN  UNK N   1      31.956  18.425   6.530  1.00  0.00     0.168 HD
HETATM    8  C   UNK N   1      32.418  17.732   8.429  0.00  0.00     0.183 A 
HETATM    9  N   UNK N   1      33.197  16.881   9.163  0.00  0.00    -0.338 N 
ATOM     10  HN  UNK N   1      33.099  16.830  10.177  1.00  0.00     0.168 HD
HETATM   11  C   UNK N   1      34.102  16.106   8.515  0.00  0.00     0.124 A 
ENDROOT
BRANCH   1  12
HETATM   12  C   UNK N   1      35.010  14.719  10.446  0.00  0.00     0.261 C 
HETATM   13  O   UNK N   1      35.614  13.444  10.542  0.00  0.00    -0.355 OA
HETATM   14  C   UNK N   1      36.000  13.309  11.907  0.00  0.00     0.165 C 
HETATM   15  C   UNK N   1      35.827  14.690  12.570  0.00  0.00     0.180 C 
HETATM   16  C   UNK N   1      35.819  15.607  11.383  0.00  0.00     0.198 C 
BRANCH  14  17
HETATM   17  C   UNK N   1      37.419  12.738  11.981  0.00  0.00     0.108 C 
BRANCH  17  18
HETATM   18  S   UNK N   1      37.489  11.229  13.019  0.00  0.00    -0.171 SA
HETATM   19  C   UNK N   1      35.683  11.060  13.153  0.00  0.00     0.089 C 
ENDBRANCH  17  18
ENDBRANCH  14  17
BRANCH  15  20
HETATM   20  O   UNK N   1      36.792  15.033  13.522  0.00  0.00    -0.390 OA
HETATM   21  H   UNK N   1      37.608  15.523  13.337  0.00  0.00     0.210 HD
ENDBRANCH  15  20
BRANCH  16  22
HETATM   22  O   UNK N   1      37.117  15.772  10.883  0.00  0.00    -0.388 OA
HETATM   23  H   UNK N   1      37.939  15.724  10.371  0.00  0.00     0.210 HD
ENDBRANCH  16  22
ENDBRANCH   1  12
BRANCH   5  24
HETATM   24  N   UNK N   1      33.552  17.043   5.007  0.00  0.00    -0.385 N 
HETATM   25  H   UNK N   1      32.836  17.448   4.468  0.00  0.00     0.157 HD
HETATM   26  H   UNK N   1      34.345  16.665   4.562  0.00  0.00     0.157 HD
ENDBRANCH   5  24
TORSDOF 6
ENDMDL
MODEL 7
REMARK VINA RESULT:      -5.3      3.274      5.037
REMARK  6 active torsions:
REMARK  status: ('A' for Active; 'I' for Inactive)
REMARK    1  A    between atoms: S_2  and  C_3 
REMARK    2  A    between atoms: C_4  and  C_3 
REMARK    3  A    between atoms: C_6  and  O_7 
REMARK    4  A    between atoms: C_8  and  O_9 
REMARK    5  A    between atoms: C_10  and  N_11 
REMARK    6  A    between atoms: C_15  and  N_16 
ROOT
HETATM    1  N   UNK N   1      35.734  13.741  12.707  0.00  0.00    -0.312 N 
HETATM    2  C   UNK N   1      36.057  13.999  14.001  0.00  0.00     0.096 A 
HETATM    3  C   UNK N   1      35.674  12.924  14.811  0.00  0.00     0.036 A 
HETATM    4  C   UNK N   1      35.077  12.020  13.956  0.00  0.00     0.053 A 
HETATM    5  C   UNK N   1      34.459  10.797  14.176  0.00  0.00     0.113 A 
HETATM    6  N   UNK N   1      33.917  10.145  13.106  0.00  0.00    -0.338 N 
ATOM      7  HN  UNK N   1      33.460   9.244  13.245  1.00  0.00     0.168 HD
HETATM    8  C   UNK N   1      33.978  10.685  11.847  0.00  0.00     0.183 A 
HETATM    9  N   UNK N   1      34.583  11.894  11.641  0.00  0.00    -0.338 N 
ATOM     10  HN  UNK N   1      34.623  12.304  10.708  1.00  0.00     0.168 HD
HETATM   11  C   UNK N   1      35.131  12.537  12.703  0.00  0.00     0.124 A 
ENDROOT
BRANCH   1  12
HETATM   12  C   UNK N   1      35.881  14.709  11.609  0.00  0.00     0.261 C 
HETATM   13  O   UNK N   1      36.021  14.072  10.355  0.00  0.00    -0.355 OA
HETATM   14  C   UNK N   1      35.737  15.075   9.385  0.00  0.00     0.165 C 
HETATM   15  C   UNK N   1      35.158  16.289  10.140  0.00  0.00     0.180 C 
HETATM   16  C   UNK N   1      34.712  15.670  11.431  0.00  0.00     0.198 C 
BRANCH  14  17
HETATM   17  C   UNK N   1      34.816  14.495   8.306  0.00  0.00     0.108 C 
BRANCH  17  18
HETATM   18  S   UNK N   1      35.550  14.651   6.634  0.00  0.00    -0.171 SA
HETATM   19  C   UNK N   1      34.401  15.953   6.091  0.00  0.00     0.089 C 
ENDBRANCH  17  18
ENDBRANCH  14  17
BRANCH  15  20
HETATM   20  O   UNK N   1      34.138  16.983   9.483  0.00  0.00    -0.390 OA
HETATM   21  H   UNK N   1      33.960  17.933   9.575  0.00  0.00     0.210 HD
ENDBRANCH  15  20
BRANCH  16  22
HETATM   22  O   UNK N   1      33.525  14.949  11.245  0.00  0.00    -0.388 OA
HETATM   23  H   UNK N   1      32.659  14.625  10.951  0.00  0.00     0.210 HD
ENDBRANCH  16  22
ENDBRANCH   1  12
BRANCH   5  24
HETATM   24  N   UNK N   1      34.366  10.247  15.470  0.00  0.00    -0.385 N 
HETATM   25  H   UNK N   1      35.118   9.737  15.850  0.00  0.00     0.157 HD
HETATM   26  H   UNK N   1      33.545  10.372  15.997  0.00  0.00     0.157 HD
ENDBRANCH   5  24
TORSDOF 6
ENDMDL
MODEL 8
REMARK VINA RESULT:      -5.2      4.293      7.647
REMARK  6 active torsions:
REMARK  status: ('A' for Active; 'I' for Inactive)
REMARK    1  A    between atoms: S_2  and  C_3 
REMARK    2  A    between atoms: C_4  and  C_3 
REMARK    3  A    between atoms: C_6  and  O_7 
REMARK    4  A    between atoms: C_8  and  O_9 
REMARK    5  A    between atoms: C_10  and  N_11 
REMARK    6  A    between atoms: C_15  and  N_16 
ROOT
HETATM    1  N   UNK N   1      34.931  15.511  10.919  0.00  0.00    -0.312 N 
HETATM    2  C   UNK N   1      35.314  16.765  10.566  0.00  0.00     0.096 A 
HETATM    3  C   UNK N   1      34.678  17.141   9.377  0.00  0.00     0.036 A 
HETATM    4  C   UNK N   1      33.920  16.048   9.011  0.00  0.00     0.053 A 
HETATM    5  C   UNK N   1      33.116  15.799   7.907  0.00  0.00     0.113 A 
HETATM    6  N   UNK N   1      32.515  14.577   7.808  0.00  0.00    -0.338 N 
ATOM      7  HN  UNK N   1      31.918  14.374   7.006  1.00  0.00     0.168 HD
HETATM    8  C   UNK N   1      32.702  13.619   8.771  0.00  0.00     0.183 A 
HETATM    9  N   UNK N   1      33.500  13.871   9.852  0.00  0.00    -0.338 N 
ATOM     10  HN  UNK N   1      33.650  13.159  10.566  1.00  0.00     0.168 HD
HETATM   11  C   UNK N   1      34.090  15.089   9.955  0.00  0.00     0.124 A 
ENDROOT
BRANCH   1  12
HETATM   12  C   UNK N   1      35.502  14.758  12.047  0.00  0.00     0.261 C 
HETATM   13  O   UNK N   1      34.572  13.851  12.605  0.00  0.00    -0.355 OA
HETATM   14  C   UNK N   1      35.348  12.932  13.367  0.00  0.00     0.165 C 
HETATM   15  C   UNK N   1      36.829  13.186  13.018  0.00  0.00     0.180 C 
HETATM   16  C   UNK N   1      36.722  13.910  11.710  0.00  0.00     0.198 C 
BRANCH  14  17
HETATM   17  C   UNK N   1      34.864  11.505  13.092  0.00  0.00     0.108 C 
BRANCH  17  18
HETATM   18  S   UNK N   1      33.854  10.854  14.477  0.00  0.00    -0.171 SA
HETATM   19  C   UNK N   1      34.702  11.838  15.751  0.00  0.00     0.089 C 
ENDBRANCH  17  18
ENDBRANCH  14  17
BRANCH  15  20
HETATM   20  O   UNK N   1      37.642  12.051  12.952  0.00  0.00    -0.390 OA
HETATM   21  H   UNK N   1      38.335  11.822  13.591  0.00  0.00     0.210 HD
ENDBRANCH  15  20
BRANCH  16  22
HETATM   22  O   UNK N   1      36.411  13.015  10.678  0.00  0.00    -0.388 OA
HETATM   23  H   UNK N   1      35.982  12.382  10.081  0.00  0.00     0.210 HD
ENDBRANCH  16  22
ENDBRANCH   1  12
BRANCH   5  24
HETATM   24  N   UNK N   1      32.940  16.766   6.897  0.00  0.00    -0.385 N 
HETATM   25  H   UNK N   1      33.257  16.593   5.982  0.00  0.00     0.157 HD
HETATM   26  H   UNK N   1      32.498  17.620   7.109  0.00  0.00     0.157 HD
ENDBRANCH   5  24
TORSDOF 6
ENDMDL
MODEL 9
REMARK VINA RESULT:      -5.2      7.384     11.110
REMARK  6 active torsions:
REMARK  status: ('A' for Active; 'I' for Inactive)
REMARK    1  A    between atoms: S_2  and  C_3 
REMARK    2  A    between atoms: C_4  and  C_3 
REMARK    3  A    between atoms: C_6  and  O_7 
REMARK    4  A    between atoms: C_8  and  O_9 
REMARK    5  A    between atoms: C_10  and  N_11 
REMARK    6  A    between atoms: C_15  and  N_16 
ROOT
HETATM    1  N   UNK N   1      31.916  16.550   7.046  0.00  0.00    -0.312 N 
HETATM    2  C   UNK N   1      30.711  17.169   6.959  0.00  0.00     0.096 A 
HETATM    3  C   UNK N   1      30.308  17.245   5.621  0.00  0.00     0.036 A 
HETATM    4  C   UNK N   1      31.337  16.673   4.901  0.00  0.00     0.053 A 
HETATM    5  C   UNK N   1      31.540  16.504   3.538  0.00  0.00     0.113 A 
HETATM    6  N   UNK N   1      32.704  15.925   3.125  0.00  0.00    -0.338 N 
ATOM      7  HN  UNK N   1      32.873  15.789   2.128  1.00  0.00     0.168 HD
HETATM    8  C   UNK N   1      33.652  15.521   4.031  0.00  0.00     0.183 A 
HETATM    9  N   UNK N   1      33.446  15.696   5.371  0.00  0.00    -0.338 N 
ATOM     10  HN  UNK N   1      34.151  15.407   6.049  1.00  0.00     0.168 HD
HETATM   11  C   UNK N   1      32.284  16.264   5.782  0.00  0.00     0.124 A 
ENDROOT
BRANCH   1  12
HETATM   12  C   UNK N   1      32.689  16.415   8.290  0.00  0.00     0.261 C 
HETATM   13  O   UNK N   1      33.434  15.214   8.324  0.00  0.00    -0.355 OA
HETATM   14  C   UNK N   1      34.417  15.405   9.338  0.00  0.00     0.165 C 
HETATM   15  C   UNK N   1      34.384  16.896   9.730  0.00  0.00     0.180 C 
HETATM   16  C   UNK N   1      33.710  17.516   8.543  0.00  0.00     0.198 C 
BRANCH  14  17
HETATM   17  C   UNK N   1      35.774  14.907   8.833  0.00  0.00     0.108 C 
BRANCH  17  18
HETATM   18  S   UNK N   1      36.697  14.011  10.139  0.00  0.00    -0.171 SA
HETATM   19  C   UNK N   1      35.203  13.435  11.003  0.00  0.00     0.089 C 
ENDBRANCH  17  18
ENDBRANCH  14  17
BRANCH  15  20
HETATM   20  O   UNK N   1      35.622  17.475  10.024  0.00  0.00    -0.390 OA
HETATM   21  H   UNK N   1      35.765  18.412  10.230  0.00  0.00     0.210 HD
ENDBRANCH  15  20
BRANCH  16  22
HETATM   22  O   UNK N   1      34.599  17.600   7.463  0.00  0.00    -0.388 OA
HETATM   23  H   UNK N   1      35.358  17.766   6.882  0.00  0.00     0.210 HD
ENDBRANCH  16  22
ENDBRANCH   1  12
BRANCH   5  24
HETATM   24  N   UNK N   1      30.586  16.941   2.597  0.00  0.00    -0.385 N 
HETATM   25  H   UNK N   1      30.295  16.346   1.870  0.00  0.00     0.157 HD
HETATM   26  H   UNK N   1      30.208  17.847   2.668  0.00  0.00     0.157 HD
ENDBRANCH   5  24
TORSDOF 6
ENDMDL
