REMARK  3 active torsions:
REMARK  status: ('A' for Active; 'I' for Inactive)
REMARK    1  A    between atoms: C_1  and  C_3 
REMARK    2  A    between atoms: C_1  and  O_6 
REMARK    3  A    between atoms: N_2  and  C_3 
REMARK       I    between atoms: N_2  and  C_7 
ROOT
HETATM    1  C   UNK N   1      -0.550  -0.244  -0.000  0.00  0.00     0.178 C 
HETATM    2  C   UNK N   1      -0.610  -1.766   0.000  0.00  0.00     0.043 C 
ENDROOT
BRANCH   1   3
HETATM    3  N   UNK N   1       0.714   0.474  -0.000  0.00  0.00    -0.347 N 
HETATM    4  C   UNK N   1       1.953  -0.078   0.000  0.00  0.00     0.214 C 
HETATM    5  O   UNK N   1       2.113  -1.287  -0.000  0.00  0.00    -0.274 OA
HETATM    6  C   UNK N   1       3.141   0.820   0.000  0.00  0.00     0.117 C 
HETATM    7  H   UNK N   1       0.666   1.457  -0.000  0.00  0.00     0.163 HD
ENDBRANCH   1   3
BRANCH   1   8
HETATM    8  C   UNK N   1      -1.789   0.598   0.000  0.00  0.00     0.163 C 
HETATM    9  O   UNK N   1      -1.700   1.814   0.000  0.00  0.00    -0.648 OA
BRANCH   8  10
HETATM   10  O   UNK N   1      -3.004   0.018   0.000  0.00  0.00    -0.775 OA
HETATM   11  H   UNK N   1      -3.777   0.549   0.000  0.00  0.00     0.167 HD
ENDBRANCH   8  10
ENDBRANCH   1   8
TORSDOF 3
