MODEL 1
REMARK VINA RESULT:      -4.8      0.000      0.000
REMARK  3 active torsions:
REMARK  status: ('A' for Active; 'I' for Inactive)
REMARK    1  A    between atoms: C_1  and  C_3 
REMARK    2  A    between atoms: C_1  and  O_6 
REMARK    3  A    between atoms: N_2  and  C_3 
REMARK       I    between atoms: N_2  and  C_7 
ROOT
HETATM    1  C   UNK N   1      33.358  17.508   8.645  0.00  0.00     0.178 C 
HETATM    2  C   UNK N   1      31.898  17.938   8.586  0.00  0.00     0.043 C 
ENDROOT
BRANCH   1   3
HETATM    3  N   UNK N   1      33.801  16.412   9.490  0.00  0.00    -0.347 N 
HETATM    4  C   UNK N   1      34.842  16.436  10.360  0.00  0.00     0.214 C 
HETATM    5  O   UNK N   1      35.525  17.436  10.510  0.00  0.00    -0.274 OA
HETATM    6  C   UNK N   1      35.151  15.210  11.146  0.00  0.00     0.117 C 
HETATM    7  H   UNK N   1      33.298  15.569   9.424  0.00  0.00     0.163 HD
ENDBRANCH   1   3
BRANCH   1   8
HETATM    8  C   UNK N   1      34.418  18.191   7.837  0.00  0.00     0.163 C 
HETATM    9  O   UNK N   1      34.590  17.881   6.670  0.00  0.00    -0.648 OA
BRANCH   8  10
HETATM   10  O   UNK N   1      35.184  19.149   8.392  0.00  0.00    -0.775 OA
HETATM   11  H   UNK N   1      35.289  19.184   9.324  0.00  0.00     0.167 HD
ENDBRANCH   8  10
ENDBRANCH   1   8
TORSDOF 3
ENDMDL
MODEL 2
REMARK VINA RESULT:      -4.6      1.455      3.438
REMARK  3 active torsions:
REMARK  status: ('A' for Active; 'I' for Inactive)
REMARK    1  A    between atoms: C_1  and  C_3 
REMARK    2  A    between atoms: C_1  and  O_6 
REMARK    3  A    between atoms: N_2  and  C_3 
REMARK       I    between atoms: N_2  and  C_7 
ROOT
HETATM    1  C   UNK N   1      33.838  17.293   8.934  0.00  0.00     0.178 C 
HETATM    2  C   UNK N   1      34.587  16.239   9.739  0.00  0.00     0.043 C 
ENDROOT
BRANCH   1   3
HETATM    3  N   UNK N   1      32.393  17.433   9.011  0.00  0.00    -0.347 N 
HETATM    4  C   UNK N   1      31.494  17.030   8.079  0.00  0.00     0.214 C 
HETATM    5  O   UNK N   1      31.847  16.487   7.045  0.00  0.00    -0.274 OA
HETATM    6  C   UNK N   1      30.044  17.258   8.330  0.00  0.00     0.117 C 
HETATM    7  H   UNK N   1      32.031  17.863   9.819  0.00  0.00     0.163 HD
ENDBRANCH   1   3
BRANCH   1   8
HETATM    8  C   UNK N   1      34.547  18.242   8.018  0.00  0.00     0.163 C 
HETATM    9  O   UNK N   1      35.216  19.151   8.481  0.00  0.00    -0.648 OA
BRANCH   8  10
HETATM   10  O   UNK N   1      34.449  18.098   6.683  0.00  0.00    -0.775 OA
HETATM   11  H   UNK N   1      34.860  18.720   6.113  0.00  0.00     0.167 HD
ENDBRANCH   8  10
ENDBRANCH   1   8
TORSDOF 3
ENDMDL
MODEL 3
REMARK VINA RESULT:      -4.2     12.305     13.441
REMARK  3 active torsions:
REMARK  status: ('A' for Active; 'I' for Inactive)
REMARK    1  A    between atoms: C_1  and  C_3 
REMARK    2  A    between atoms: C_1  and  O_6 
REMARK    3  A    between atoms: N_2  and  C_3 
REMARK       I    between atoms: N_2  and  C_7 
ROOT
HETATM    1  C   UNK N   1      23.102  12.207  10.039  0.00  0.00     0.178 C 
HETATM    2  C   UNK N   1      23.534  11.177   9.004  0.00  0.00     0.043 C 
ENDROOT
BRANCH   1   3
HETATM    3  N   UNK N   1      22.498  13.473   9.657  0.00  0.00    -0.347 N 
HETATM    4  C   UNK N   1      21.176  13.774   9.683  0.00  0.00     0.214 C 
HETATM    5  O   UNK N   1      20.343  12.962  10.051  0.00  0.00    -0.274 OA
HETATM    6  C   UNK N   1      20.738  15.131   9.253  0.00  0.00     0.117 C 
HETATM    7  H   UNK N   1      23.109  14.180   9.348  0.00  0.00     0.163 HD
ENDBRANCH   1   3
BRANCH   1   8
HETATM    8  C   UNK N   1      23.274  11.974  11.509  0.00  0.00     0.163 C 
HETATM    9  O   UNK N   1      24.387  12.014  12.006  0.00  0.00    -0.648 OA
BRANCH   8  10
HETATM   10  O   UNK N   1      22.205  11.719  12.286  0.00  0.00    -0.775 OA
HETATM   11  H   UNK N   1      22.148  12.096  13.143  0.00  0.00     0.167 HD
ENDBRANCH   8  10
ENDBRANCH   1   8
TORSDOF 3
ENDMDL
MODEL 4
REMARK VINA RESULT:      -4.2     11.478     12.549
REMARK  3 active torsions:
REMARK  status: ('A' for Active; 'I' for Inactive)
REMARK    1  A    between atoms: C_1  and  C_3 
REMARK    2  A    between atoms: C_1  and  O_6 
REMARK    3  A    between atoms: N_2  and  C_3 
REMARK       I    between atoms: N_2  and  C_7 
ROOT
HETATM    1  C   UNK N   1      22.667  12.535  10.982  0.00  0.00     0.178 C 
HETATM    2  C   UNK N   1      21.166  12.462  10.730  0.00  0.00     0.043 C 
ENDROOT
BRANCH   1   3
HETATM    3  N   UNK N   1      23.566  13.221  10.069  0.00  0.00    -0.347 N 
HETATM    4  C   UNK N   1      24.192  12.677   8.996  0.00  0.00     0.214 C 
HETATM    5  O   UNK N   1      24.043  11.504   8.697  0.00  0.00    -0.274 OA
HETATM    6  C   UNK N   1      25.083  13.538   8.169  0.00  0.00     0.117 C 
HETATM    7  H   UNK N   1      23.736  14.174  10.247  0.00  0.00     0.163 HD
ENDBRANCH   1   3
BRANCH   1   8
HETATM    8  C   UNK N   1      23.300  11.905  12.185  0.00  0.00     0.163 C 
HETATM    9  O   UNK N   1      24.508  11.963  12.339  0.00  0.00    -0.648 OA
BRANCH   8  10
HETATM   10  O   UNK N   1      22.540  11.272  13.099  0.00  0.00    -0.775 OA
HETATM   11  H   UNK N   1      22.602  11.507  14.004  0.00  0.00     0.167 HD
ENDBRANCH   8  10
ENDBRANCH   1   8
TORSDOF 3
ENDMDL
MODEL 5
REMARK VINA RESULT:      -4.2      1.995      3.779
REMARK  3 active torsions:
REMARK  status: ('A' for Active; 'I' for Inactive)
REMARK    1  A    between atoms: C_1  and  C_3 
REMARK    2  A    between atoms: C_1  and  O_6 
REMARK    3  A    between atoms: N_2  and  C_3 
REMARK       I    between atoms: N_2  and  C_7 
ROOT
HETATM    1  C   UNK N   1      33.670  17.162   8.229  0.00  0.00     0.178 C 
HETATM    2  C   UNK N   1      33.127  15.942   8.960  0.00  0.00     0.043 C 
ENDROOT
BRANCH   1   3
HETATM    3  N   UNK N   1      33.177  17.553   6.918  0.00  0.00    -0.347 N 
HETATM    4  C   UNK N   1      33.665  17.145   5.720  0.00  0.00     0.214 C 
HETATM    5  O   UNK N   1      34.607  16.374   5.644  0.00  0.00    -0.274 OA
HETATM    6  C   UNK N   1      33.030  17.653   4.473  0.00  0.00     0.117 C 
HETATM    7  H   UNK N   1      32.415  18.176   6.898  0.00  0.00     0.163 HD
ENDBRANCH   1   3
BRANCH   1   8
HETATM    8  C   UNK N   1      34.741  18.028   8.818  0.00  0.00     0.163 C 
HETATM    9  O   UNK N   1      35.008  19.102   8.306  0.00  0.00    -0.648 OA
BRANCH   8  10
HETATM   10  O   UNK N   1      35.413  17.626   9.913  0.00  0.00    -0.775 OA
HETATM   11  H   UNK N   1      36.228  18.031  10.138  0.00  0.00     0.167 HD
ENDBRANCH   8  10
ENDBRANCH   1   8
TORSDOF 3
ENDMDL
MODEL 6
REMARK VINA RESULT:      -4.1     10.355     11.575
REMARK  3 active torsions:
REMARK  status: ('A' for Active; 'I' for Inactive)
REMARK    1  A    between atoms: C_1  and  C_3 
REMARK    2  A    between atoms: C_1  and  O_6 
REMARK    3  A    between atoms: N_2  and  C_3 
REMARK       I    between atoms: N_2  and  C_7 
ROOT
HETATM    1  C   UNK N   1      43.900  20.907   3.345  0.00  0.00     0.178 C 
HETATM    2  C   UNK N   1      44.594  19.581   3.060  0.00  0.00     0.043 C 
ENDROOT
BRANCH   1   3
HETATM    3  N   UNK N   1      42.619  21.245   2.747  0.00  0.00    -0.347 N 
HETATM    4  C   UNK N   1      41.419  20.687   3.045  0.00  0.00     0.214 C 
HETATM    5  O   UNK N   1      41.315  19.808   3.884  0.00  0.00    -0.274 OA
HETATM    6  C   UNK N   1      40.205  21.164   2.326  0.00  0.00     0.117 C 
HETATM    7  H   UNK N   1      42.622  21.949   2.058  0.00  0.00     0.163 HD
ENDBRANCH   1   3
BRANCH   1   8
HETATM    8  C   UNK N   1      44.497  21.935   4.255  0.00  0.00     0.163 C 
HETATM    9  O   UNK N   1      43.796  22.507   5.073  0.00  0.00    -0.648 OA
BRANCH   8  10
HETATM   10  O   UNK N   1      45.808  22.233   4.177  0.00  0.00    -0.775 OA
HETATM   11  H   UNK N   1      46.445  21.545   4.173  0.00  0.00     0.167 HD
ENDBRANCH   8  10
ENDBRANCH   1   8
TORSDOF 3
ENDMDL
MODEL 7
REMARK VINA RESULT:      -4.1     12.122     13.068
REMARK  3 active torsions:
REMARK  status: ('A' for Active; 'I' for Inactive)
REMARK    1  A    between atoms: C_1  and  C_3 
REMARK    2  A    between atoms: C_1  and  O_6 
REMARK    3  A    between atoms: N_2  and  C_3 
REMARK       I    between atoms: N_2  and  C_7 
ROOT
HETATM    1  C   UNK N   1      22.676  12.448  11.219  0.00  0.00     0.178 C 
HETATM    2  C   UNK N   1      23.291  11.843  12.474  0.00  0.00     0.043 C 
ENDROOT
BRANCH   1   3
HETATM    3  N   UNK N   1      23.479  13.154  10.234  0.00  0.00    -0.347 N 
HETATM    4  C   UNK N   1      24.139  12.599   9.187  0.00  0.00     0.214 C 
HETATM    5  O   UNK N   1      24.108  11.398   8.977  0.00  0.00    -0.274 OA
HETATM    6  C   UNK N   1      24.916  13.483   8.275  0.00  0.00     0.117 C 
HETATM    7  H   UNK N   1      23.552  14.130  10.337  0.00  0.00     0.163 HD
ENDBRANCH   1   3
BRANCH   1   8
HETATM    8  C   UNK N   1      21.209  12.350  10.929  0.00  0.00     0.163 C 
HETATM    9  O   UNK N   1      20.770  12.754   9.866  0.00  0.00    -0.648 OA
BRANCH   8  10
HETATM   10  O   UNK N   1      20.372  11.818  11.838  0.00  0.00    -0.775 OA
HETATM   11  H   UNK N   1      19.718  12.354  12.245  0.00  0.00     0.167 HD
ENDBRANCH   8  10
ENDBRANCH   1   8
TORSDOF 3
ENDMDL
MODEL 8
REMARK VINA RESULT:      -4.1      4.066      5.095
REMARK  3 active torsions:
REMARK  status: ('A' for Active; 'I' for Inactive)
REMARK    1  A    between atoms: C_1  and  C_3 
REMARK    2  A    between atoms: C_1  and  O_6 
REMARK    3  A    between atoms: N_2  and  C_3 
REMARK       I    between atoms: N_2  and  C_7 
ROOT
HETATM    1  C   UNK N   1      36.591  13.687  11.226  0.00  0.00     0.178 C 
HETATM    2  C   UNK N   1      36.299  12.315  10.632  0.00  0.00     0.043 C 
ENDROOT
BRANCH   1   3
HETATM    3  N   UNK N   1      36.980  13.854  12.617  0.00  0.00    -0.347 N 
HETATM    4  C   UNK N   1      36.151  13.843  13.690  0.00  0.00     0.214 C 
HETATM    5  O   UNK N   1      34.948  13.684  13.567  0.00  0.00    -0.274 OA
HETATM    6  C   UNK N   1      36.731  14.031  15.049  0.00  0.00     0.117 C 
HETATM    7  H   UNK N   1      37.938  13.987  12.796  0.00  0.00     0.163 HD
ENDBRANCH   1   3
BRANCH   1   8
HETATM    8  C   UNK N   1      36.494  14.940  10.411  0.00  0.00     0.163 C 
HETATM    9  O   UNK N   1      35.980  14.911   9.306  0.00  0.00    -0.648 OA
BRANCH   8  10
HETATM   10  O   UNK N   1      36.973  16.102  10.894  0.00  0.00    -0.775 OA
HETATM   11  H   UNK N   1      36.382  16.797  11.113  0.00  0.00     0.167 HD
ENDBRANCH   8  10
ENDBRANCH   1   8
TORSDOF 3
ENDMDL
MODEL 9
REMARK VINA RESULT:      -4.1      6.469      7.815
REMARK  3 active torsions:
REMARK  status: ('A' for Active; 'I' for Inactive)
REMARK    1  A    between atoms: C_1  and  C_3 
REMARK    2  A    between atoms: C_1  and  O_6 
REMARK    3  A    between atoms: N_2  and  C_3 
REMARK       I    between atoms: N_2  and  C_7 
ROOT
HETATM    1  C   UNK N   1      36.599  13.895  15.065  0.00  0.00     0.178 C 
HETATM    2  C   UNK N   1      37.263  15.132  15.656  0.00  0.00     0.043 C 
ENDROOT
BRANCH   1   3
HETATM    3  N   UNK N   1      36.368  12.696  15.854  0.00  0.00    -0.347 N 
HETATM    4  C   UNK N   1      35.336  12.482  16.708  0.00  0.00     0.214 C 
HETATM    5  O   UNK N   1      34.473  13.324  16.891  0.00  0.00    -0.274 OA
HETATM    6  C   UNK N   1      35.262  11.184  17.435  0.00  0.00     0.117 C 
HETATM    7  H   UNK N   1      37.025  11.969  15.759  0.00  0.00     0.163 HD
ENDBRANCH   1   3
BRANCH   1   8
HETATM    8  C   UNK N   1      36.147  13.844  13.637  0.00  0.00     0.163 C 
HETATM    9  O   UNK N   1      34.961  13.739  13.376  0.00  0.00    -0.648 OA
BRANCH   8  10
HETATM   10  O   UNK N   1      37.047  13.915  12.638  0.00  0.00    -0.775 OA
HETATM   11  H   UNK N   1      37.786  13.338  12.631  0.00  0.00     0.167 HD
ENDBRANCH   8  10
ENDBRANCH   1   8
TORSDOF 3
ENDMDL
