REMARK  3 active torsions:
REMARK  status: ('A' for Active; 'I' for Inactive)
REMARK    1  A    between atoms: C_1  and  C_2 
REMARK    2  A    between atoms: C_8  and  N_10 
REMARK       I    between atoms: N_10  and  C_11 
REMARK    3  A    between atoms: C_11  and  C_12 
ROOT
HETATM    1  C   UNK N   1       2.186  -2.231   0.248  0.00  0.00     0.033 A 
HETATM    2  C   UNK N   1       0.964  -1.615   0.055  0.00  0.00     0.076 A 
HETATM    3  N   UNK N   1       3.160  -1.299   0.295  0.00  0.00    -0.303 N 
ATOM      4  HN  UNK N   1       4.154  -1.483   0.429  1.00  0.00     0.186 HD
HETATM    5  C   UNK N   1       1.282  -0.273  -0.014  0.00  0.00     0.124 A 
HETATM    6  N   UNK N   1       2.609  -0.108   0.138  0.00  0.00    -0.285 N 
HETATM    7  H   UNK N   1       3.087   0.753   0.133  0.00  0.00     0.188 HD
ENDROOT
BRANCH   5   8
HETATM    8  N   UNK N   1       0.365   0.809  -0.110  0.00  0.00    -0.308 N 
HETATM    9  C   UNK N   1      -0.987   0.658  -0.181  0.00  0.00     0.257 C 
HETATM   10  O   UNK N   1      -1.486  -0.458  -0.242  0.00  0.00    -0.267 OA
HETATM   11  H   UNK N   1       0.729   1.723  -0.126  0.00  0.00     0.170 HD
BRANCH   9  12
HETATM   12  C   UNK N   1      -1.871   1.839  -0.122  0.00  0.00     0.032 A 
HETATM   13  C   UNK N   1      -3.263   1.667  -0.089  0.00  0.00     0.017 A 
HETATM   14  C   UNK N   1      -4.110   2.773   0.019  0.00  0.00     0.001 A 
HETATM   15  C   UNK N   1      -3.570   4.059   0.096  0.00  0.00     0.000 A 
HETATM   16  C   UNK N   1      -2.184   4.240   0.060  0.00  0.00     0.001 A 
HETATM   17  C   UNK N   1      -1.336   3.133  -0.044  0.00  0.00     0.017 A 
ENDBRANCH   9  12
ENDBRANCH   5   8
BRANCH   1  18
HETATM   18  C   UNK N   1       2.437  -3.699   0.433  0.00  0.00     0.037 A 
HETATM   19  C   UNK N   1       2.060  -4.454  -0.828  0.00  0.00     0.011 A 
HETATM   20  C   UNK N   1       1.148  -4.506   0.377  0.00  0.00     0.011 A 
ENDBRANCH   1  18
TORSDOF 3
