MODEL 1
REMARK VINA RESULT:      -6.6      0.000      0.000
REMARK  3 active torsions:
REMARK  status: ('A' for Active; 'I' for Inactive)
REMARK    1  A    between atoms: C_1  and  C_2 
REMARK    2  A    between atoms: C_8  and  N_10 
REMARK       I    between atoms: N_10  and  C_11 
REMARK    3  A    between atoms: C_11  and  C_12 
ROOT
HETATM    1  C   UNK N   1      35.553  15.664  11.072  0.00  0.00     0.033 A 
HETATM    2  C   UNK N   1      35.341  15.093   9.831  0.00  0.00     0.076 A 
HETATM    3  N   UNK N   1      35.052  16.916  11.085  0.00  0.00    -0.303 N 
ATOM      4  HN  UNK N   1      35.075  17.558  11.878  1.00  0.00     0.186 HD
HETATM    5  C   UNK N   1      34.694  16.086   9.121  0.00  0.00     0.124 A 
HETATM    6  N   UNK N   1      34.527  17.171   9.899  0.00  0.00    -0.285 N 
HETATM    7  H   UNK N   1      34.089  18.011   9.631  0.00  0.00     0.188 HD
ENDROOT
BRANCH   5   8
HETATM    8  N   UNK N   1      34.162  15.976   7.808  0.00  0.00    -0.308 N 
HETATM    9  C   UNK N   1      34.193  16.979   6.887  0.00  0.00     0.257 C 
HETATM   10  O   UNK N   1      34.629  18.083   7.184  0.00  0.00    -0.267 OA
HETATM   11  H   UNK N   1      33.746  15.123   7.548  0.00  0.00     0.170 HD
BRANCH   9  12
HETATM   12  C   UNK N   1      33.757  16.727   5.499  0.00  0.00     0.032 A 
HETATM   13  C   UNK N   1      34.125  15.534   4.858  0.00  0.00     0.017 A 
HETATM   14  C   UNK N   1      33.678  15.260   3.563  0.00  0.00     0.001 A 
HETATM   15  C   UNK N   1      32.857  16.176   2.901  0.00  0.00     0.000 A 
HETATM   16  C   UNK N   1      32.488  17.369   3.530  0.00  0.00     0.001 A 
HETATM   17  C   UNK N   1      32.933  17.642   4.828  0.00  0.00     0.017 A 
ENDBRANCH   9  12
ENDBRANCH   5   8
BRANCH   1  18
HETATM   18  C   UNK N   1      36.191  15.016  12.265  0.00  0.00     0.037 A 
HETATM   19  C   UNK N   1      36.631  13.606  11.919  0.00  0.00     0.011 A 
HETATM   20  C   UNK N   1      35.390  13.819  12.756  0.00  0.00     0.011 A 
ENDBRANCH   1  18
TORSDOF 3
ENDMDL
MODEL 2
REMARK VINA RESULT:      -6.5      3.216      8.157
REMARK  3 active torsions:
REMARK  status: ('A' for Active; 'I' for Inactive)
REMARK    1  A    between atoms: C_1  and  C_2 
REMARK    2  A    between atoms: C_8  and  N_10 
REMARK       I    between atoms: N_10  and  C_11 
REMARK    3  A    between atoms: C_11  and  C_12 
ROOT
HETATM    1  C   UNK N   1      34.538  16.348   9.468  0.00  0.00     0.033 A 
HETATM    2  C   UNK N   1      34.225  15.057   9.851  0.00  0.00     0.076 A 
HETATM    3  N   UNK N   1      35.040  17.023  10.522  0.00  0.00    -0.303 N 
ATOM      4  HN  UNK N   1      35.351  17.994  10.513  1.00  0.00     0.186 HD
HETATM    5  C   UNK N   1      34.566  15.022  11.188  0.00  0.00     0.124 A 
HETATM    6  N   UNK N   1      35.059  16.215  11.567  0.00  0.00    -0.285 N 
HETATM    7  H   UNK N   1      35.379  16.447  12.470  0.00  0.00     0.188 HD
ENDROOT
BRANCH   5   8
HETATM    8  N   UNK N   1      34.531  13.884  12.040  0.00  0.00    -0.308 N 
HETATM    9  C   UNK N   1      35.421  13.656  13.045  0.00  0.00     0.257 C 
HETATM   10  O   UNK N   1      36.370  14.410  13.218  0.00  0.00    -0.267 OA
HETATM   11  H   UNK N   1      33.819  13.220  11.894  0.00  0.00     0.170 HD
BRANCH   9  12
HETATM   12  C   UNK N   1      35.218  12.530  13.977  0.00  0.00     0.032 A 
HETATM   13  C   UNK N   1      35.918  12.496  15.193  0.00  0.00     0.017 A 
HETATM   14  C   UNK N   1      35.697  11.463  16.108  0.00  0.00     0.001 A 
HETATM   15  C   UNK N   1      34.773  10.458  15.813  0.00  0.00     0.000 A 
HETATM   16  C   UNK N   1      34.073  10.482  14.603  0.00  0.00     0.001 A 
HETATM   17  C   UNK N   1      34.291  11.517  13.689  0.00  0.00     0.017 A 
ENDBRANCH   9  12
ENDBRANCH   5   8
BRANCH   1  18
HETATM   18  C   UNK N   1      34.407  16.938   8.094  0.00  0.00     0.037 A 
HETATM   19  C   UNK N   1      34.529  18.449   8.163  0.00  0.00     0.011 A 
HETATM   20  C   UNK N   1      33.169  17.815   7.970  0.00  0.00     0.011 A 
ENDBRANCH   1  18
TORSDOF 3
ENDMDL
MODEL 3
REMARK VINA RESULT:      -6.4      5.031     10.244
REMARK  3 active torsions:
REMARK  status: ('A' for Active; 'I' for Inactive)
REMARK    1  A    between atoms: C_1  and  C_2 
REMARK    2  A    between atoms: C_8  and  N_10 
REMARK       I    between atoms: N_10  and  C_11 
REMARK    3  A    between atoms: C_11  and  C_12 
ROOT
HETATM    1  C   UNK N   1      36.753  13.699  11.704  0.00  0.00     0.033 A 
HETATM    2  C   UNK N   1      36.718  12.807  12.759  0.00  0.00     0.076 A 
HETATM    3  N   UNK N   1      36.558  14.952  12.164  0.00  0.00    -0.303 N 
ATOM      4  HN  UNK N   1      36.538  15.798  11.596  1.00  0.00     0.186 HD
HETATM    5  C   UNK N   1      36.485  13.610  13.858  0.00  0.00     0.124 A 
HETATM    6  N   UNK N   1      36.398  14.897  13.475  0.00  0.00    -0.285 N 
HETATM    7  H   UNK N   1      36.241  15.666  14.070  0.00  0.00     0.188 HD
ENDROOT
BRANCH   5   8
HETATM    8  N   UNK N   1      36.455  13.194  15.217  0.00  0.00    -0.308 N 
HETATM    9  C   UNK N   1      35.310  12.961  15.917  0.00  0.00     0.257 C 
HETATM   10  O   UNK N   1      34.216  13.178  15.412  0.00  0.00    -0.267 OA
HETATM   11  H   UNK N   1      37.313  13.067  15.680  0.00  0.00     0.170 HD
BRANCH   9  12
HETATM   12  C   UNK N   1      35.373  12.383  17.274  0.00  0.00     0.032 A 
HETATM   13  C   UNK N   1      35.707  11.031  17.442  0.00  0.00     0.017 A 
HETATM   14  C   UNK N   1      35.821  10.484  18.723  0.00  0.00     0.001 A 
HETATM   15  C   UNK N   1      35.603  11.287  19.845  0.00  0.00     0.000 A 
HETATM   16  C   UNK N   1      35.267  12.635  19.687  0.00  0.00     0.001 A 
HETATM   17  C   UNK N   1      35.156  13.183  18.406  0.00  0.00     0.017 A 
ENDBRANCH   9  12
ENDBRANCH   5   8
BRANCH   1  18
HETATM   18  C   UNK N   1      37.015  13.380  10.261  0.00  0.00     0.037 A 
HETATM   19  C   UNK N   1      36.469  14.485   9.377  0.00  0.00     0.011 A 
HETATM   20  C   UNK N   1      35.723  13.174   9.483  0.00  0.00     0.011 A 
ENDBRANCH   1  18
TORSDOF 3
ENDMDL
MODEL 4
REMARK VINA RESULT:      -6.4      2.724      4.112
REMARK  3 active torsions:
REMARK  status: ('A' for Active; 'I' for Inactive)
REMARK    1  A    between atoms: C_1  and  C_2 
REMARK    2  A    between atoms: C_8  and  N_10 
REMARK       I    between atoms: N_10  and  C_11 
REMARK    3  A    between atoms: C_11  and  C_12 
ROOT
HETATM    1  C   UNK N   1      36.244  13.291  14.037  0.00  0.00     0.033 A 
HETATM    2  C   UNK N   1      35.329  13.319  13.002  0.00  0.00     0.076 A 
HETATM    3  N   UNK N   1      36.895  14.471  14.098  0.00  0.00    -0.303 N 
ATOM      4  HN  UNK N   1      37.621  14.717  14.770  1.00  0.00     0.186 HD
HETATM    5  C   UNK N   1      35.488  14.579  12.460  0.00  0.00     0.124 A 
HETATM    6  N   UNK N   1      36.432  15.255  13.140  0.00  0.00    -0.285 N 
HETATM    7  H   UNK N   1      36.727  16.176  12.955  0.00  0.00     0.188 HD
ENDROOT
BRANCH   5   8
HETATM    8  N   UNK N   1      34.709  15.156  11.419  0.00  0.00    -0.308 N 
HETATM    9  C   UNK N   1      35.176  16.093  10.548  0.00  0.00     0.257 C 
HETATM   10  O   UNK N   1      36.304  16.551  10.673  0.00  0.00    -0.267 OA
HETATM   11  H   UNK N   1      33.776  14.859  11.323  0.00  0.00     0.170 HD
BRANCH   9  12
HETATM   12  C   UNK N   1      34.347  16.522   9.404  0.00  0.00     0.032 A 
HETATM   13  C   UNK N   1      33.215  15.776   9.044  0.00  0.00     0.017 A 
HETATM   14  C   UNK N   1      32.393  16.199   7.996  0.00  0.00     0.001 A 
HETATM   15  C   UNK N   1      32.697  17.372   7.302  0.00  0.00     0.000 A 
HETATM   16  C   UNK N   1      33.826  18.121   7.652  0.00  0.00     0.001 A 
HETATM   17  C   UNK N   1      34.646  17.700   8.703  0.00  0.00     0.017 A 
ENDBRANCH   9  12
ENDBRANCH   5   8
BRANCH   1  18
HETATM   18  C   UNK N   1      36.480  12.167  15.002  0.00  0.00     0.037 A 
HETATM   19  C   UNK N   1      35.200  11.378  15.205  0.00  0.00     0.011 A 
HETATM   20  C   UNK N   1      35.668  12.335  16.278  0.00  0.00     0.011 A 
ENDBRANCH   1  18
TORSDOF 3
ENDMDL
MODEL 5
REMARK VINA RESULT:      -5.7     17.748     18.770
REMARK  3 active torsions:
REMARK  status: ('A' for Active; 'I' for Inactive)
REMARK    1  A    between atoms: C_1  and  C_2 
REMARK    2  A    between atoms: C_8  and  N_10 
REMARK       I    between atoms: N_10  and  C_11 
REMARK    3  A    between atoms: C_11  and  C_12 
ROOT
HETATM    1  C   UNK N   1      26.359  28.558  -3.956  0.00  0.00     0.033 A 
HETATM    2  C   UNK N   1      26.699  27.788  -5.053  0.00  0.00     0.076 A 
HETATM    3  N   UNK N   1      26.093  27.755  -2.905  0.00  0.00    -0.303 N 
ATOM      4  HN  UNK N   1      25.818  28.065  -1.974  1.00  0.00     0.186 HD
HETATM    5  C   UNK N   1      26.610  26.493  -4.583  0.00  0.00     0.124 A 
HETATM    6  N   UNK N   1      26.248  26.499  -3.287  0.00  0.00    -0.285 N 
HETATM    7  H   UNK N   1      26.121  25.704  -2.720  0.00  0.00     0.188 HD
ENDROOT
BRANCH   5   8
HETATM    8  N   UNK N   1      26.955  25.311  -5.293  0.00  0.00    -0.308 N 
HETATM    9  C   UNK N   1      26.053  24.374  -5.698  0.00  0.00     0.257 C 
HETATM   10  O   UNK N   1      24.872  24.475  -5.392  0.00  0.00    -0.267 OA
HETATM   11  H   UNK N   1      27.904  25.160  -5.505  0.00  0.00     0.170 HD
BRANCH   9  12
HETATM   12  C   UNK N   1      26.479  23.256  -6.563  0.00  0.00     0.032 A 
HETATM   13  C   UNK N   1      27.834  22.897  -6.622  0.00  0.00     0.017 A 
HETATM   14  C   UNK N   1      28.244  21.809  -7.397  0.00  0.00     0.001 A 
HETATM   15  C   UNK N   1      27.301  21.072  -8.117  0.00  0.00     0.000 A 
HETATM   16  C   UNK N   1      25.949  21.425  -8.067  0.00  0.00     0.001 A 
HETATM   17  C   UNK N   1      25.538  22.511  -7.289  0.00  0.00     0.017 A 
ENDBRANCH   9  12
ENDBRANCH   5   8
BRANCH   1  18
HETATM   18  C   UNK N   1      26.325  30.056  -3.881  0.00  0.00     0.037 A 
HETATM   19  C   UNK N   1      27.463  30.643  -4.696  0.00  0.00     0.011 A 
HETATM   20  C   UNK N   1      27.558  30.617  -3.188  0.00  0.00     0.011 A 
ENDBRANCH   1  18
TORSDOF 3
ENDMDL
MODEL 6
REMARK VINA RESULT:      -5.7     13.293     16.172
REMARK  3 active torsions:
REMARK  status: ('A' for Active; 'I' for Inactive)
REMARK    1  A    between atoms: C_1  and  C_2 
REMARK    2  A    between atoms: C_8  and  N_10 
REMARK       I    between atoms: N_10  and  C_11 
REMARK    3  A    between atoms: C_11  and  C_12 
ROOT
HETATM    1  C   UNK N   1      27.433  26.434  -3.872  0.00  0.00     0.033 A 
HETATM    2  C   UNK N   1      28.634  25.926  -4.330  0.00  0.00     0.076 A 
HETATM    3  N   UNK N   1      26.679  25.432  -3.373  0.00  0.00    -0.303 N 
ATOM      4  HN  UNK N   1      25.748  25.532  -2.970  1.00  0.00     0.186 HD
HETATM    5  C   UNK N   1      28.535  24.573  -4.075  0.00  0.00     0.124 A 
HETATM    6  N   UNK N   1      27.351  24.301  -3.495  0.00  0.00    -0.285 N 
HETATM    7  H   UNK N   1      27.040  23.411  -3.210  0.00  0.00     0.188 HD
ENDROOT
BRANCH   5   8
HETATM    8  N   UNK N   1      29.552  23.599  -4.270  0.00  0.00    -0.308 N 
HETATM    9  C   UNK N   1      30.261  23.024  -3.259  0.00  0.00     0.257 C 
HETATM   10  O   UNK N   1      30.099  23.387  -2.101  0.00  0.00    -0.267 OA
HETATM   11  H   UNK N   1      29.757  23.324  -5.193  0.00  0.00     0.170 HD
BRANCH   9  12
HETATM   12  C   UNK N   1      31.189  21.911  -3.541  0.00  0.00     0.032 A 
HETATM   13  C   UNK N   1      30.857  20.956  -4.513  0.00  0.00     0.017 A 
HETATM   14  C   UNK N   1      31.749  19.927  -4.827  0.00  0.00     0.001 A 
HETATM   15  C   UNK N   1      32.979  19.847  -4.171  0.00  0.00     0.000 A 
HETATM   16  C   UNK N   1      33.317  20.793  -3.198  0.00  0.00     0.001 A 
HETATM   17  C   UNK N   1      32.427  21.825  -2.887  0.00  0.00     0.017 A 
ENDBRANCH   9  12
ENDBRANCH   5   8
BRANCH   1  18
HETATM   18  C   UNK N   1      27.006  27.873  -3.863  0.00  0.00     0.037 A 
HETATM   19  C   UNK N   1      25.504  27.971  -4.055  0.00  0.00     0.011 A 
HETATM   20  C   UNK N   1      26.429  28.301  -5.205  0.00  0.00     0.011 A 
ENDBRANCH   1  18
TORSDOF 3
ENDMDL
MODEL 7
REMARK VINA RESULT:      -5.6      4.226      5.074
REMARK  3 active torsions:
REMARK  status: ('A' for Active; 'I' for Inactive)
REMARK    1  A    between atoms: C_1  and  C_2 
REMARK    2  A    between atoms: C_8  and  N_10 
REMARK       I    between atoms: N_10  and  C_11 
REMARK    3  A    between atoms: C_11  and  C_12 
ROOT
HETATM    1  C   UNK N   1      32.801  15.448   9.265  0.00  0.00     0.033 A 
HETATM    2  C   UNK N   1      32.536  16.414   8.313  0.00  0.00     0.076 A 
HETATM    3  N   UNK N   1      31.751  15.340  10.104  0.00  0.00    -0.303 N 
ATOM      4  HN  UNK N   1      31.685  14.701  10.896  1.00  0.00     0.186 HD
HETATM    5  C   UNK N   1      31.275  16.866   8.648  0.00  0.00     0.124 A 
HETATM    6  N   UNK N   1      30.822  16.201   9.726  0.00  0.00    -0.285 N 
HETATM    7  H   UNK N   1      29.947  16.334  10.159  0.00  0.00     0.188 HD
ENDROOT
BRANCH   5   8
HETATM    8  N   UNK N   1      30.493  17.804   7.920  0.00  0.00    -0.308 N 
HETATM    9  C   UNK N   1      29.543  17.458   7.007  0.00  0.00     0.257 C 
HETATM   10  O   UNK N   1      29.367  16.284   6.707  0.00  0.00    -0.267 OA
HETATM   11  H   UNK N   1      30.646  18.761   8.087  0.00  0.00     0.170 HD
BRANCH   9  12
HETATM   12  C   UNK N   1      28.671  18.491   6.413  0.00  0.00     0.032 A 
HETATM   13  C   UNK N   1      28.011  19.408   7.245  0.00  0.00     0.017 A 
HETATM   14  C   UNK N   1      27.224  20.422   6.694  0.00  0.00     0.001 A 
HETATM   15  C   UNK N   1      27.093  20.528   5.307  0.00  0.00     0.000 A 
HETATM   16  C   UNK N   1      27.745  19.616   4.471  0.00  0.00     0.001 A 
HETATM   17  C   UNK N   1      28.536  18.602   5.022  0.00  0.00     0.017 A 
ENDBRANCH   9  12
ENDBRANCH   5   8
BRANCH   1  18
HETATM   18  C   UNK N   1      34.029  14.591   9.363  0.00  0.00     0.037 A 
HETATM   19  C   UNK N   1      34.484  14.498  10.808  0.00  0.00     0.011 A 
HETATM   20  C   UNK N   1      35.237  15.384   9.841  0.00  0.00     0.011 A 
ENDBRANCH   1  18
TORSDOF 3
ENDMDL
MODEL 8
REMARK VINA RESULT:      -5.5      6.937     10.591
REMARK  3 active torsions:
REMARK  status: ('A' for Active; 'I' for Inactive)
REMARK    1  A    between atoms: C_1  and  C_2 
REMARK    2  A    between atoms: C_8  and  N_10 
REMARK       I    between atoms: N_10  and  C_11 
REMARK    3  A    between atoms: C_11  and  C_12 
ROOT
HETATM    1  C   UNK N   1      33.983  10.578  11.261  0.00  0.00     0.033 A 
HETATM    2  C   UNK N   1      34.128  10.076  12.541  0.00  0.00     0.076 A 
HETATM    3  N   UNK N   1      34.335  11.880  11.243  0.00  0.00    -0.303 N 
ATOM      4  HN  UNK N   1      34.322  12.489  10.426  1.00  0.00     0.186 HD
HETATM    5  C   UNK N   1      34.578  11.160  13.268  0.00  0.00     0.124 A 
HETATM    6  N   UNK N   1      34.699  12.232  12.464  0.00  0.00    -0.285 N 
HETATM    7  H   UNK N   1      35.007  13.127  12.739  0.00  0.00     0.188 HD
ENDROOT
BRANCH   5   8
HETATM    8  N   UNK N   1      34.978  11.156  14.632  0.00  0.00    -0.308 N 
HETATM    9  C   UNK N   1      34.819  12.213  15.476  0.00  0.00     0.257 C 
HETATM   10  O   UNK N   1      34.378  13.278  15.063  0.00  0.00    -0.267 OA
HETATM   11  H   UNK N   1      35.394  10.339  14.989  0.00  0.00     0.170 HD
BRANCH   9  12
HETATM   12  C   UNK N   1      35.120  12.069  16.914  0.00  0.00     0.032 A 
HETATM   13  C   UNK N   1      35.020  13.181  17.763  0.00  0.00     0.017 A 
HETATM   14  C   UNK N   1      35.252  13.048  19.134  0.00  0.00     0.001 A 
HETATM   15  C   UNK N   1      35.584  11.800  19.666  0.00  0.00     0.000 A 
HETATM   16  C   UNK N   1      35.690  10.686  18.827  0.00  0.00     0.001 A 
HETATM   17  C   UNK N   1      35.454  10.819  17.455  0.00  0.00     0.017 A 
ENDBRANCH   9  12
ENDBRANCH   5   8
BRANCH   1  18
HETATM   18  C   UNK N   1      33.553   9.821  10.039  0.00  0.00     0.037 A 
HETATM   19  C   UNK N   1      34.117   8.412  10.074  0.00  0.00     0.011 A 
HETATM   20  C   UNK N   1      34.737   9.445   9.159  0.00  0.00     0.011 A 
ENDBRANCH   1  18
TORSDOF 3
ENDMDL
MODEL 9
REMARK VINA RESULT:      -5.5     13.003     15.590
REMARK  3 active torsions:
REMARK  status: ('A' for Active; 'I' for Inactive)
REMARK    1  A    between atoms: C_1  and  C_2 
REMARK    2  A    between atoms: C_8  and  N_10 
REMARK       I    between atoms: N_10  and  C_11 
REMARK    3  A    between atoms: C_11  and  C_12 
ROOT
HETATM    1  C   UNK N   1      31.712  21.836  -3.244  0.00  0.00     0.033 A 
HETATM    2  C   UNK N   1      31.218  23.052  -3.678  0.00  0.00     0.076 A 
HETATM    3  N   UNK N   1      30.697  20.957  -3.111  0.00  0.00    -0.303 N 
ATOM      4  HN  UNK N   1      30.785  19.988  -2.805  1.00  0.00     0.186 HD
HETATM    5  C   UNK N   1      29.859  22.833  -3.785  0.00  0.00     0.124 A 
HETATM    6  N   UNK N   1      29.571  21.563  -3.442  0.00  0.00    -0.285 N 
HETATM    7  H   UNK N   1      28.674  21.156  -3.440  0.00  0.00     0.188 HD
ENDROOT
BRANCH   5   8
HETATM    8  N   UNK N   1      28.893  23.745  -4.289  0.00  0.00    -0.308 N 
HETATM    9  C   UNK N   1      27.782  24.136  -3.603  0.00  0.00     0.257 C 
HETATM   10  O   UNK N   1      27.519  23.645  -2.513  0.00  0.00    -0.267 OA
HETATM   11  H   UNK N   1      29.034  24.118  -5.189  0.00  0.00     0.170 HD
BRANCH   9  12
HETATM   12  C   UNK N   1      26.915  25.204  -4.139  0.00  0.00     0.032 A 
HETATM   13  C   UNK N   1      26.267  25.024  -5.370  0.00  0.00     0.017 A 
HETATM   14  C   UNK N   1      25.403  26.004  -5.865  0.00  0.00     0.001 A 
HETATM   15  C   UNK N   1      25.180  27.171  -5.130  0.00  0.00     0.000 A 
HETATM   16  C   UNK N   1      25.825  27.361  -3.904  0.00  0.00     0.001 A 
HETATM   17  C   UNK N   1      26.686  26.378  -3.407  0.00  0.00     0.017 A 
ENDBRANCH   9  12
ENDBRANCH   5   8
BRANCH   1  18
HETATM   18  C   UNK N   1      33.149  21.484  -2.993  0.00  0.00     0.037 A 
HETATM   19  C   UNK N   1      33.958  21.664  -4.264  0.00  0.00     0.011 A 
HETATM   20  C   UNK N   1      33.585  20.272  -3.804  0.00  0.00     0.011 A 
ENDBRANCH   1  18
TORSDOF 3
ENDMDL
