MODEL 1
REMARK VINA RESULT:      -6.2      0.000      0.000
REMARK  5 active torsions:
REMARK  status: ('A' for Active; 'I' for Inactive)
REMARK    1  A    between atoms: C_2  and  C_11 
REMARK    2  A    between atoms: C_11  and  C_12 
REMARK    3  A    between atoms: C_12  and  N_14 
REMARK    4  A    between atoms: C_12  and  C_13 
REMARK    5  A    between atoms: C_13  and  O_16 
ROOT
HETATM    1  C   UNK N   1      35.176  13.295  15.310  0.00  0.00     0.019 A 
HETATM    2  C   UNK N   1      35.168  12.480  14.175  0.00  0.00    -0.055 A 
HETATM    3  C   UNK N   1      35.162  11.082  14.324  0.00  0.00     0.008 A 
HETATM    4  C   UNK N   1      35.159  10.509  15.604  0.00  0.00     0.013 A 
HETATM    5  C   UNK N   1      35.174  11.330  16.738  0.00  0.00    -0.026 A 
HETATM    6  C   UNK N   1      35.185  10.773  18.019  0.00  0.00     0.012 A 
HETATM    7  C   UNK N   1      35.210  11.606  19.144  0.00  0.00     0.001 A 
HETATM    8  C   UNK N   1      35.224  12.997  18.990  0.00  0.00     0.001 A 
HETATM    9  C   UNK N   1      35.209  13.561  17.712  0.00  0.00     0.012 A 
HETATM   10  C   UNK N   1      35.184  12.735  16.585  0.00  0.00    -0.025 A 
ENDROOT
BRANCH   2  11
HETATM   11  C   UNK N   1      35.189  13.161  12.838  0.00  0.00     0.074 C 
BRANCH  11  12
HETATM   12  C   UNK N   1      36.335  14.134  12.543  0.00  0.00     0.177 C 
BRANCH  12  13
HETATM   13  N   UNK N   1      37.453  13.427  11.940  0.00  0.00    -0.417 N 
HETATM   14  H   UNK N   1      37.619  12.564  11.421  0.00  0.00     0.150 HD
HETATM   15  H   UNK N   1      38.323  13.943  12.071  0.00  0.00     0.150 HD
ENDBRANCH  12  13
BRANCH  12  16
HETATM   16  C   UNK N   1      35.859  15.212  11.605  0.00  0.00     0.163 C 
HETATM   17  O   UNK N   1      34.668  15.320  11.356  0.00  0.00    -0.648 OA
BRANCH  16  18
HETATM   18  O   UNK N   1      36.735  16.057  11.022  0.00  0.00    -0.775 OA
HETATM   19  H   UNK N   1      36.462  16.900  10.717  0.00  0.00     0.167 HD
ENDBRANCH  16  18
ENDBRANCH  12  16
ENDBRANCH  11  12
ENDBRANCH   2  11
TORSDOF 5
ENDMDL
MODEL 2
REMARK VINA RESULT:      -6.2     16.236     18.370
REMARK  5 active torsions:
REMARK  status: ('A' for Active; 'I' for Inactive)
REMARK    1  A    between atoms: C_2  and  C_11 
REMARK    2  A    between atoms: C_11  and  C_12 
REMARK    3  A    between atoms: C_12  and  N_14 
REMARK    4  A    between atoms: C_12  and  C_13 
REMARK    5  A    between atoms: C_13  and  O_16 
ROOT
HETATM    1  C   UNK N   1      23.674  19.838   3.578  0.00  0.00     0.019 A 
HETATM    2  C   UNK N   1      22.607  18.941   3.677  0.00  0.00    -0.055 A 
HETATM    3  C   UNK N   1      22.862  17.586   3.952  0.00  0.00     0.008 A 
HETATM    4  C   UNK N   1      24.179  17.138   4.129  0.00  0.00     0.013 A 
HETATM    5  C   UNK N   1      25.245  18.039   4.022  0.00  0.00    -0.026 A 
HETATM    6  C   UNK N   1      26.563  17.603   4.183  0.00  0.00     0.012 A 
HETATM    7  C   UNK N   1      27.620  18.513   4.062  0.00  0.00     0.001 A 
HETATM    8  C   UNK N   1      27.361  19.860   3.781  0.00  0.00     0.001 A 
HETATM    9  C   UNK N   1      26.045  20.303   3.623  0.00  0.00     0.012 A 
HETATM   10  C   UNK N   1      24.986  19.399   3.742  0.00  0.00    -0.025 A 
ENDROOT
BRANCH   2  11
HETATM   11  C   UNK N   1      21.226  19.487   3.459  0.00  0.00     0.074 C 
BRANCH  11  12
HETATM   12  C   UNK N   1      20.572  19.264   2.092  0.00  0.00     0.177 C 
BRANCH  12  13
HETATM   13  N   UNK N   1      19.144  19.042   2.247  0.00  0.00    -0.417 N 
HETATM   14  H   UNK N   1      18.452  18.332   2.005  0.00  0.00     0.150 HD
HETATM   15  H   UNK N   1      18.707  19.821   2.741  0.00  0.00     0.150 HD
ENDBRANCH  12  13
BRANCH  12  16
HETATM   16  C   UNK N   1      20.800  20.469   1.216  0.00  0.00     0.163 C 
HETATM   17  O   UNK N   1      21.168  21.522   1.714  0.00  0.00    -0.648 OA
BRANCH  16  18
HETATM   18  O   UNK N   1      20.591  20.405  -0.115  0.00  0.00    -0.775 OA
HETATM   19  H   UNK N   1      19.886  19.899  -0.470  0.00  0.00     0.167 HD
ENDBRANCH  16  18
ENDBRANCH  12  16
ENDBRANCH  11  12
ENDBRANCH   2  11
TORSDOF 5
ENDMDL
MODEL 3
REMARK VINA RESULT:      -6.1      8.473     11.460
REMARK  5 active torsions:
REMARK  status: ('A' for Active; 'I' for Inactive)
REMARK    1  A    between atoms: C_2  and  C_11 
REMARK    2  A    between atoms: C_11  and  C_12 
REMARK    3  A    between atoms: C_12  and  N_14 
REMARK    4  A    between atoms: C_12  and  C_13 
REMARK    5  A    between atoms: C_13  and  O_16 
ROOT
HETATM    1  C   UNK N   1      30.827  16.933   6.154  0.00  0.00     0.019 A 
HETATM    2  C   UNK N   1      31.215  17.128   7.482  0.00  0.00    -0.055 A 
HETATM    3  C   UNK N   1      30.351  17.800   8.366  0.00  0.00     0.008 A 
HETATM    4  C   UNK N   1      29.107  18.266   7.918  0.00  0.00     0.013 A 
HETATM    5  C   UNK N   1      28.727  18.074   6.585  0.00  0.00    -0.026 A 
HETATM    6  C   UNK N   1      27.495  18.546   6.122  0.00  0.00     0.012 A 
HETATM    7  C   UNK N   1      27.132  18.356   4.783  0.00  0.00     0.001 A 
HETATM    8  C   UNK N   1      27.999  17.694   3.906  0.00  0.00     0.001 A 
HETATM    9  C   UNK N   1      29.229  17.216   4.364  0.00  0.00     0.012 A 
HETATM   10  C   UNK N   1      29.597  17.403   5.698  0.00  0.00    -0.025 A 
ENDROOT
BRANCH   2  11
HETATM   11  C   UNK N   1      32.567  16.617   7.888  0.00  0.00     0.074 C 
BRANCH  11  12
HETATM   12  C   UNK N   1      33.431  17.506   8.788  0.00  0.00     0.177 C 
BRANCH  12  13
HETATM   13  N   UNK N   1      34.121  16.697   9.780  0.00  0.00    -0.417 N 
HETATM   14  H   UNK N   1      33.977  16.382  10.739  0.00  0.00     0.150 HD
HETATM   15  H   UNK N   1      35.003  16.343   9.410  0.00  0.00     0.150 HD
ENDBRANCH  12  13
BRANCH  12  16
HETATM   16  C   UNK N   1      34.443  18.245   7.952  0.00  0.00     0.163 C 
HETATM   17  O   UNK N   1      34.527  18.017   6.755  0.00  0.00    -0.648 OA
BRANCH  16  18
HETATM   18  O   UNK N   1      35.271  19.153   8.511  0.00  0.00    -0.775 OA
HETATM   19  H   UNK N   1      35.186  20.066   8.319  0.00  0.00     0.167 HD
ENDBRANCH  16  18
ENDBRANCH  12  16
ENDBRANCH  11  12
ENDBRANCH   2  11
TORSDOF 5
ENDMDL
MODEL 4
REMARK VINA RESULT:      -6.1     15.732     18.276
REMARK  5 active torsions:
REMARK  status: ('A' for Active; 'I' for Inactive)
REMARK    1  A    between atoms: C_2  and  C_11 
REMARK    2  A    between atoms: C_11  and  C_12 
REMARK    3  A    between atoms: C_12  and  N_14 
REMARK    4  A    between atoms: C_12  and  C_13 
REMARK    5  A    between atoms: C_13  and  O_16 
ROOT
HETATM    1  C   UNK N   1      23.621  18.569   4.118  0.00  0.00     0.019 A 
HETATM    2  C   UNK N   1      23.056  19.652   3.441  0.00  0.00    -0.055 A 
HETATM    3  C   UNK N   1      23.893  20.634   2.880  0.00  0.00     0.008 A 
HETATM    4  C   UNK N   1      25.286  20.522   2.994  0.00  0.00     0.013 A 
HETATM    5  C   UNK N   1      25.846  19.437   3.679  0.00  0.00    -0.026 A 
HETATM    6  C   UNK N   1      27.233  19.320   3.813  0.00  0.00     0.012 A 
HETATM    7  C   UNK N   1      27.780  18.236   4.509  0.00  0.00     0.001 A 
HETATM    8  C   UNK N   1      26.942  17.267   5.072  0.00  0.00     0.001 A 
HETATM    9  C   UNK N   1      25.555  17.375   4.939  0.00  0.00     0.012 A 
HETATM   10  C   UNK N   1      25.004  18.455   4.246  0.00  0.00    -0.025 A 
ENDROOT
BRANCH   2  11
HETATM   11  C   UNK N   1      21.558  19.717   3.372  0.00  0.00     0.074 C 
BRANCH  11  12
HETATM   12  C   UNK N   1      20.887  19.442   2.023  0.00  0.00     0.177 C 
BRANCH  12  13
HETATM   13  N   UNK N   1      19.513  19.012   2.222  0.00  0.00    -0.417 N 
HETATM   14  H   UNK N   1      18.894  18.266   1.903  0.00  0.00     0.150 HD
HETATM   15  H   UNK N   1      19.027  19.634   2.868  0.00  0.00     0.150 HD
ENDBRANCH  12  13
BRANCH  12  16
HETATM   16  C   UNK N   1      20.904  20.691   1.182  0.00  0.00     0.163 C 
HETATM   17  O   UNK N   1      21.036  20.607  -0.030  0.00  0.00    -0.648 OA
BRANCH  16  18
HETATM   18  O   UNK N   1      20.786  21.909   1.751  0.00  0.00    -0.775 OA
HETATM   19  H   UNK N   1      21.514  22.313   2.182  0.00  0.00     0.167 HD
ENDBRANCH  16  18
ENDBRANCH  12  16
ENDBRANCH  11  12
ENDBRANCH   2  11
TORSDOF 5
ENDMDL
MODEL 5
REMARK VINA RESULT:      -6.0      3.453      5.198
REMARK  5 active torsions:
REMARK  status: ('A' for Active; 'I' for Inactive)
REMARK    1  A    between atoms: C_2  and  C_11 
REMARK    2  A    between atoms: C_11  and  C_12 
REMARK    3  A    between atoms: C_12  and  N_14 
REMARK    4  A    between atoms: C_12  and  C_13 
REMARK    5  A    between atoms: C_13  and  O_16 
ROOT
HETATM    1  C   UNK N   1      35.629  15.328  12.065  0.00  0.00     0.019 A 
HETATM    2  C   UNK N   1      35.862  15.680  10.733  0.00  0.00    -0.055 A 
HETATM    3  C   UNK N   1      36.662  14.851   9.925  0.00  0.00     0.008 A 
HETATM    4  C   UNK N   1      37.219  13.677  10.452  0.00  0.00     0.013 A 
HETATM    5  C   UNK N   1      36.987  13.333  11.789  0.00  0.00    -0.026 A 
HETATM    6  C   UNK N   1      37.547  12.172  12.331  0.00  0.00     0.012 A 
HETATM    7  C   UNK N   1      37.316  11.845  13.673  0.00  0.00     0.001 A 
HETATM    8  C   UNK N   1      36.526  12.677  14.474  0.00  0.00     0.001 A 
HETATM    9  C   UNK N   1      35.960  13.836  13.937  0.00  0.00     0.012 A 
HETATM   10  C   UNK N   1      36.187  14.168  12.599  0.00  0.00    -0.025 A 
ENDROOT
BRANCH   2  11
HETATM   11  C   UNK N   1      35.250  16.958  10.241  0.00  0.00     0.074 C 
BRANCH  11  12
HETATM   12  C   UNK N   1      34.393  16.905   8.973  0.00  0.00     0.177 C 
BRANCH  12  13
HETATM   13  N   UNK N   1      32.981  16.909   9.318  0.00  0.00    -0.417 N 
HETATM   14  H   UNK N   1      32.187  16.270   9.286  0.00  0.00     0.150 HD
HETATM   15  H   UNK N   1      32.704  17.812   9.704  0.00  0.00     0.150 HD
ENDBRANCH  12  13
BRANCH  12  16
HETATM   16  C   UNK N   1      34.699  18.095   8.101  0.00  0.00     0.163 C 
HETATM   17  O   UNK N   1      35.249  19.075   8.580  0.00  0.00    -0.648 OA
BRANCH  16  18
HETATM   18  O   UNK N   1      34.363  18.099   6.794  0.00  0.00    -0.775 OA
HETATM   19  H   UNK N   1      33.465  18.108   6.526  0.00  0.00     0.167 HD
ENDBRANCH  16  18
ENDBRANCH  12  16
ENDBRANCH  11  12
ENDBRANCH   2  11
TORSDOF 5
ENDMDL
MODEL 6
REMARK VINA RESULT:      -5.9      1.151      2.291
REMARK  5 active torsions:
REMARK  status: ('A' for Active; 'I' for Inactive)
REMARK    1  A    between atoms: C_2  and  C_11 
REMARK    2  A    between atoms: C_11  and  C_12 
REMARK    3  A    between atoms: C_12  and  N_14 
REMARK    4  A    between atoms: C_12  and  C_13 
REMARK    5  A    between atoms: C_13  and  O_16 
ROOT
HETATM    1  C   UNK N   1      36.076  11.210  16.009  0.00  0.00     0.019 A 
HETATM    2  C   UNK N   1      35.614  12.354  15.355  0.00  0.00    -0.055 A 
HETATM    3  C   UNK N   1      35.046  13.401  16.104  0.00  0.00     0.008 A 
HETATM    4  C   UNK N   1      34.949  13.298  17.499  0.00  0.00     0.013 A 
HETATM    5  C   UNK N   1      35.408  12.146  18.149  0.00  0.00    -0.026 A 
HETATM    6  C   UNK N   1      35.305  12.024  19.537  0.00  0.00     0.012 A 
HETATM    7  C   UNK N   1      35.759  10.862  20.173  0.00  0.00     0.001 A 
HETATM    8  C   UNK N   1      36.316   9.821  19.422  0.00  0.00     0.001 A 
HETATM    9  C   UNK N   1      36.425   9.938  18.034  0.00  0.00     0.012 A 
HETATM   10  C   UNK N   1      35.974  11.095  17.394  0.00  0.00    -0.025 A 
ENDROOT
BRANCH   2  11
HETATM   11  C   UNK N   1      35.734  12.389  13.859  0.00  0.00     0.074 C 
BRANCH  11  12
HETATM   12  C   UNK N   1      36.476  13.568  13.224  0.00  0.00     0.177 C 
BRANCH  12  13
HETATM   13  N   UNK N   1      37.521  13.086  12.335  0.00  0.00    -0.417 N 
HETATM   14  H   UNK N   1      38.473  13.340  12.070  0.00  0.00     0.150 HD
HETATM   15  H   UNK N   1      37.214  12.253  11.832  0.00  0.00     0.150 HD
ENDBRANCH  12  13
BRANCH  12  16
HETATM   16  C   UNK N   1      35.508  14.419  12.444  0.00  0.00     0.163 C 
HETATM   17  O   UNK N   1      35.830  15.544  12.097  0.00  0.00    -0.648 OA
BRANCH  16  18
HETATM   18  O   UNK N   1      34.279  13.957  12.131  0.00  0.00    -0.775 OA
HETATM   19  H   UNK N   1      33.596  14.542  11.868  0.00  0.00     0.167 HD
ENDBRANCH  16  18
ENDBRANCH  12  16
ENDBRANCH  11  12
ENDBRANCH   2  11
TORSDOF 5
ENDMDL
MODEL 7
REMARK VINA RESULT:      -5.8     20.528     24.113
REMARK  5 active torsions:
REMARK  status: ('A' for Active; 'I' for Inactive)
REMARK    1  A    between atoms: C_2  and  C_11 
REMARK    2  A    between atoms: C_11  and  C_12 
REMARK    3  A    between atoms: C_12  and  N_14 
REMARK    4  A    between atoms: C_12  and  C_13 
REMARK    5  A    between atoms: C_13  and  O_16 
ROOT
HETATM    1  C   UNK N   1      28.558  25.365  -4.445  0.00  0.00     0.019 A 
HETATM    2  C   UNK N   1      28.808  24.091  -4.960  0.00  0.00    -0.055 A 
HETATM    3  C   UNK N   1      27.842  23.467  -5.771  0.00  0.00     0.008 A 
HETATM    4  C   UNK N   1      26.638  24.123  -6.064  0.00  0.00     0.013 A 
HETATM    5  C   UNK N   1      26.390  25.397  -5.540  0.00  0.00    -0.026 A 
HETATM    6  C   UNK N   1      25.188  26.056  -5.814  0.00  0.00     0.012 A 
HETATM    7  C   UNK N   1      24.948  27.326  -5.274  0.00  0.00     0.001 A 
HETATM    8  C   UNK N   1      25.909  27.938  -4.462  0.00  0.00     0.001 A 
HETATM    9  C   UNK N   1      27.114  27.286  -4.188  0.00  0.00     0.012 A 
HETATM   10  C   UNK N   1      27.359  26.019  -4.723  0.00  0.00    -0.025 A 
ENDROOT
BRANCH   2  11
HETATM   11  C   UNK N   1      30.110  23.442  -4.591  0.00  0.00     0.074 C 
BRANCH  11  12
HETATM   12  C   UNK N   1      30.065  22.175  -3.732  0.00  0.00     0.177 C 
BRANCH  12  13
HETATM   13  N   UNK N   1      30.616  21.048  -4.467  0.00  0.00    -0.417 N 
HETATM   14  H   UNK N   1      30.934  20.097  -4.278  0.00  0.00     0.150 HD
HETATM   15  H   UNK N   1      30.713  21.272  -5.457  0.00  0.00     0.150 HD
ENDBRANCH  12  13
BRANCH  12  16
HETATM   16  C   UNK N   1      30.860  22.387  -2.470  0.00  0.00     0.163 C 
HETATM   17  O   UNK N   1      31.964  21.879  -2.354  0.00  0.00    -0.648 OA
BRANCH  16  18
HETATM   18  O   UNK N   1      30.362  23.124  -1.455  0.00  0.00    -0.775 OA
HETATM   19  H   UNK N   1      30.481  22.862  -0.564  0.00  0.00     0.167 HD
ENDBRANCH  16  18
ENDBRANCH  12  16
ENDBRANCH  11  12
ENDBRANCH   2  11
TORSDOF 5
ENDMDL
MODEL 8
REMARK VINA RESULT:      -5.7     14.146     15.220
REMARK  5 active torsions:
REMARK  status: ('A' for Active; 'I' for Inactive)
REMARK    1  A    between atoms: C_2  and  C_11 
REMARK    2  A    between atoms: C_11  and  C_12 
REMARK    3  A    between atoms: C_12  and  N_14 
REMARK    4  A    between atoms: C_12  and  C_13 
REMARK    5  A    between atoms: C_13  and  O_16 
ROOT
HETATM    1  C   UNK N   1      22.654  14.313   7.984  0.00  0.00     0.019 A 
HETATM    2  C   UNK N   1      21.386  14.873   7.815  0.00  0.00    -0.055 A 
HETATM    3  C   UNK N   1      20.385  14.627   8.772  0.00  0.00     0.008 A 
HETATM    4  C   UNK N   1      20.660  13.828   9.891  0.00  0.00     0.013 A 
HETATM    5  C   UNK N   1      21.931  13.264  10.052  0.00  0.00    -0.026 A 
HETATM    6  C   UNK N   1      22.214  12.454  11.155  0.00  0.00     0.012 A 
HETATM    7  C   UNK N   1      23.486  11.887  11.298  0.00  0.00     0.001 A 
HETATM    8  C   UNK N   1      24.476  12.129  10.339  0.00  0.00     0.001 A 
HETATM    9  C   UNK N   1      24.201  12.940   9.235  0.00  0.00     0.012 A 
HETATM   10  C   UNK N   1      22.933  13.509   9.087  0.00  0.00    -0.025 A 
ENDROOT
BRANCH   2  11
HETATM   11  C   UNK N   1      21.158  15.703   6.585  0.00  0.00     0.074 C 
BRANCH  11  12
HETATM   12  C   UNK N   1      22.141  16.839   6.291  0.00  0.00     0.177 C 
BRANCH  12  13
HETATM   13  N   UNK N   1      22.832  16.595   5.035  0.00  0.00    -0.417 N 
HETATM   14  H   UNK N   1      23.220  15.804   4.521  0.00  0.00     0.150 HD
HETATM   15  H   UNK N   1      22.967  17.464   4.519  0.00  0.00     0.150 HD
ENDBRANCH  12  13
BRANCH  12  16
HETATM   16  C   UNK N   1      21.398  18.147   6.207  0.00  0.00     0.163 C 
HETATM   17  O   UNK N   1      21.232  18.684   5.123  0.00  0.00    -0.648 OA
BRANCH  16  18
HETATM   18  O   UNK N   1      20.920  18.743   7.320  0.00  0.00    -0.775 OA
HETATM   19  H   UNK N   1      20.099  19.193   7.311  0.00  0.00     0.167 HD
ENDBRANCH  16  18
ENDBRANCH  12  16
ENDBRANCH  11  12
ENDBRANCH   2  11
TORSDOF 5
ENDMDL
MODEL 9
REMARK VINA RESULT:      -5.7      9.434     11.742
REMARK  5 active torsions:
REMARK  status: ('A' for Active; 'I' for Inactive)
REMARK    1  A    between atoms: C_2  and  C_11 
REMARK    2  A    between atoms: C_11  and  C_12 
REMARK    3  A    between atoms: C_12  and  N_14 
REMARK    4  A    between atoms: C_12  and  C_13 
REMARK    5  A    between atoms: C_13  and  O_16 
ROOT
HETATM    1  C   UNK N   1      30.434  16.727   6.749  0.00  0.00     0.019 A 
HETATM    2  C   UNK N   1      31.119  17.017   7.931  0.00  0.00    -0.055 A 
HETATM    3  C   UNK N   1      32.460  17.435   7.872  0.00  0.00     0.008 A 
HETATM    4  C   UNK N   1      33.105  17.564   6.633  0.00  0.00     0.013 A 
HETATM    5  C   UNK N   1      32.415  17.266   5.452  0.00  0.00    -0.026 A 
HETATM    6  C   UNK N   1      33.050  17.377   4.212  0.00  0.00     0.012 A 
HETATM    7  C   UNK N   1      32.352  17.065   3.039  0.00  0.00     0.001 A 
HETATM    8  C   UNK N   1      31.019  16.643   3.104  0.00  0.00     0.001 A 
HETATM    9  C   UNK N   1      30.378  16.533   4.340  0.00  0.00     0.012 A 
HETATM   10  C   UNK N   1      31.069  16.842   5.514  0.00  0.00    -0.025 A 
ENDROOT
BRANCH   2  11
HETATM   11  C   UNK N   1      30.372  16.840   9.221  0.00  0.00     0.074 C 
BRANCH  11  12
HETATM   12  C   UNK N   1      29.565  18.027   9.754  0.00  0.00     0.177 C 
BRANCH  12  13
HETATM   13  N   UNK N   1      30.145  19.278   9.295  0.00  0.00    -0.417 N 
HETATM   14  H   UNK N   1      31.045  19.757   9.325  0.00  0.00     0.150 HD
HETATM   15  H   UNK N   1      29.453  19.839   8.797  0.00  0.00     0.150 HD
ENDBRANCH  12  13
BRANCH  12  16
HETATM   16  C   UNK N   1      28.140  17.930   9.274  0.00  0.00     0.163 C 
HETATM   17  O   UNK N   1      27.512  16.896   9.439  0.00  0.00    -0.648 OA
BRANCH  16  18
HETATM   18  O   UNK N   1      27.548  18.971   8.652  0.00  0.00    -0.775 OA
HETATM   19  H   UNK N   1      26.753  19.342   8.982  0.00  0.00     0.167 HD
ENDBRANCH  16  18
ENDBRANCH  12  16
ENDBRANCH  11  12
ENDBRANCH   2  11
TORSDOF 5
ENDMDL
