REMARK  5 active torsions:
REMARK  status: ('A' for Active; 'I' for Inactive)
REMARK    1  A    between atoms: C_2  and  C_11 
REMARK    2  A    between atoms: C_11  and  C_12 
REMARK    3  A    between atoms: C_12  and  N_14 
REMARK    4  A    between atoms: C_12  and  C_13 
REMARK    5  A    between atoms: C_13  and  O_16 
ROOT
HETATM    1  C   UNK N   1       0.953   0.957   0.182  0.00  0.00     0.019 A 
HETATM    2  C   UNK N   1      -0.224   0.205   0.167  0.00  0.00    -0.055 A 
HETATM    3  C   UNK N   1      -0.152  -1.196   0.064  0.00  0.00     0.008 A 
HETATM    4  C   UNK N   1       1.094  -1.834  -0.018  0.00  0.00     0.013 A 
HETATM    5  C   UNK N   1       2.270  -1.075  -0.009  0.00  0.00    -0.026 A 
HETATM    6  C   UNK N   1       3.518  -1.697  -0.104  0.00  0.00     0.012 A 
HETATM    7  C   UNK N   1       4.686  -0.925  -0.105  0.00  0.00     0.001 A 
HETATM    8  C   UNK N   1       4.608   0.469  -0.010  0.00  0.00     0.001 A 
HETATM    9  C   UNK N   1       3.364   1.097   0.089  0.00  0.00     0.012 A 
HETATM   10  C   UNK N   1       2.195   0.332   0.090  0.00  0.00    -0.025 A 
ENDROOT
BRANCH   2  11
HETATM   11  C   UNK N   1      -1.522   0.955   0.241  0.00  0.00     0.074 C 
BRANCH  11  12
HETATM   12  C   UNK N   1      -2.813   0.192  -0.070  0.00  0.00     0.177 C 
BRANCH  12  13
HETATM   13  N   UNK N   1      -3.064  -0.811   0.952  0.00  0.00    -0.417 N 
HETATM   14  H   UNK N   1      -3.762  -1.010   1.669  0.00  0.00     0.150 HD
HETATM   15  H   UNK N   1      -2.332  -1.521   0.952  0.00  0.00     0.150 HD
ENDBRANCH  12  13
BRANCH  12  16
HETATM   16  C   UNK N   1      -3.972   1.153  -0.124  0.00  0.00     0.163 C 
HETATM   17  O   UNK N   1      -5.091   0.742  -0.389  0.00  0.00    -0.648 OA
BRANCH  16  18
HETATM   18  O   UNK N   1      -3.789   2.470   0.106  0.00  0.00    -0.775 OA
HETATM   19  H   UNK N   1      -2.934   2.818   0.266  0.00  0.00     0.167 HD
ENDBRANCH  16  18
ENDBRANCH  12  16
ENDBRANCH  11  12
ENDBRANCH   2  11
TORSDOF 5
