REMARK  13 active torsions:
REMARK  status: ('A' for Active; 'I' for Inactive)
REMARK    1  A    between atoms: C_2  and  N_1 
REMARK    2  A    between atoms: C_2  and  C_3 
REMARK    3  A    between atoms: C_2  and  C_29 
REMARK    4  A    between atoms: C_3  and  C_4 
REMARK    5  A    between atoms: C_5  and  O_6 
REMARK    6  A    between atoms: C_8  and  O_9 
REMARK    7  A    between atoms: C_10  and  N_12 
REMARK    8  A    between atoms: N_12  and  C_13 
REMARK    9  A    between atoms: C_13  and  C_17 
REMARK   10  A    between atoms: C_14  and  C_15 
REMARK   11  A    between atoms: C_17  and  O_18 
REMARK   12  A    between atoms: O_18  and  C_19 
REMARK   13  A    between atoms: C_29  and  O_30 
ROOT
HETATM    1  C   UNK N   1       0.467  -7.856  -0.050  0.00  0.00    -0.020 A 
HETATM    2  C   UNK N   1      -0.837  -7.430   0.243  0.00  0.00     0.074 A 
HETATM    3  C   UNK N   1      -1.158  -6.074   0.183  0.00  0.00     0.076 A 
HETATM    4  C   UNK N   1      -0.190  -5.128  -0.161  0.00  0.00     0.095 A 
HETATM    5  C   UNK N   1       1.129  -5.547  -0.461  0.00  0.00     0.066 A 
HETATM    6  C   UNK N   1       1.436  -6.906  -0.411  0.00  0.00     0.042 A 
ENDROOT
BRANCH   5   7
HETATM    7  N   UNK N   1       2.162  -4.631  -0.815  0.00  0.00    -0.355 N 
HETATM    8  H   UNK N   1       2.876  -4.931  -1.423  0.00  0.00     0.166 HD
BRANCH   7   9
HETATM    9  C   UNK N   1       2.196  -3.305  -0.321  0.00  0.00     0.037 C 
HETATM   10  C   UNK N   1       1.737  -2.313  -1.106  0.00  0.00     0.068 C 
BRANCH  10  11
HETATM   11  C   UNK N   1       1.599  -0.919  -0.659  0.00  0.00     0.260 C 
HETATM   12  O   UNK N   1       1.063  -0.094  -1.379  0.00  0.00    -0.302 OA
ENDBRANCH  10  11
BRANCH   9  13
HETATM   13  C   UNK N   1       2.585  -3.100   1.128  0.00  0.00     0.232 C 
BRANCH  13  14
HETATM   14  O   UNK N   1       3.223  -1.895   1.339  0.00  0.00    -0.345 OA
BRANCH  14  15
HETATM   15  C   UNK N   1       4.490  -1.597   0.965  0.00  0.00     0.070 A 
HETATM   16  C   UNK N   1       4.890  -0.257   0.995  0.00  0.00     0.037 A 
HETATM   17  C   UNK N   1       6.176   0.114   0.603  0.00  0.00     0.015 A 
HETATM   18  C   UNK N   1       7.085  -0.859   0.187  0.00  0.00    -0.026 A 
HETATM   19  C   UNK N   1       8.375  -0.489  -0.201  0.00  0.00     0.012 A 
HETATM   20  C   UNK N   1       6.700  -2.220   0.164  0.00  0.00    -0.023 A 
HETATM   21  C   UNK N   1       9.288  -1.465  -0.608  0.00  0.00     0.001 A 
HETATM   22  C   UNK N   1       8.913  -2.814  -0.625  0.00  0.00     0.001 A 
HETATM   23  C   UNK N   1       7.620  -3.191  -0.242  0.00  0.00     0.012 A 
HETATM   24  C   UNK N   1       5.402  -2.585   0.547  0.00  0.00     0.049 A 
ENDBRANCH  14  15
ENDBRANCH  13  14
ENDBRANCH   9  13
ENDBRANCH   7   9
ENDBRANCH   5   7
BRANCH   4  25
HETATM   25  O   UNK N   1      -0.545  -3.835  -0.217  0.00  0.00    -0.358 OA
HETATM   26  H   UNK N   1       0.112  -3.169  -0.256  0.00  0.00     0.217 HD
ENDBRANCH   4  25
BRANCH   1  27
HETATM   27  C   UNK N   1       0.810  -9.323   0.027  0.00  0.00     0.077 C 
BRANCH  27  28
HETATM   28  C   UNK N   1       2.311  -9.639   0.058  0.00  0.00     0.177 C 
BRANCH  28  29
HETATM   29  N   UNK N   1       2.882  -9.146   1.303  0.00  0.00    -0.417 N 
HETATM   30  H   UNK N   1       3.381  -9.320   2.175  0.00  0.00     0.150 HD
HETATM   31  H   UNK N   1       2.691  -8.144   1.303  0.00  0.00     0.150 HD
ENDBRANCH  28  29
BRANCH  28  32
HETATM   32  C   UNK N   1       2.566 -11.115  -0.053  0.00  0.00     0.163 C 
HETATM   33  O   UNK N   1       3.714 -11.531  -0.061  0.00  0.00    -0.648 OA
BRANCH  32  34
HETATM   34  O   UNK N   1       1.544 -11.988  -0.159  0.00  0.00    -0.775 OA
HETATM   35  H   UNK N   1       0.664 -11.676  -0.233  0.00  0.00     0.167 HD
ENDBRANCH  32  34
ENDBRANCH  28  32
ENDBRANCH  27  28
ENDBRANCH   1  27
BRANCH   2  36
HETATM   36  O   UNK N   1      -1.786  -8.318   0.588  0.00  0.00    -0.360 OA
HETATM   37  H   UNK N   1      -2.653  -8.054   0.829  0.00  0.00     0.217 HD
ENDBRANCH   2  36
TORSDOF 13
