MODEL 1
REMARK VINA RESULT:      -8.0      0.000      0.000
REMARK  13 active torsions:
REMARK  status: ('A' for Active; 'I' for Inactive)
REMARK    1  A    between atoms: C_2  and  N_1 
REMARK    2  A    between atoms: C_2  and  C_3 
REMARK    3  A    between atoms: C_2  and  C_29 
REMARK    4  A    between atoms: C_3  and  C_4 
REMARK    5  A    between atoms: C_5  and  O_6 
REMARK    6  A    between atoms: C_8  and  O_9 
REMARK    7  A    between atoms: C_10  and  N_12 
REMARK    8  A    between atoms: N_12  and  C_13 
REMARK    9  A    between atoms: C_13  and  C_17 
REMARK   10  A    between atoms: C_14  and  C_15 
REMARK   11  A    between atoms: C_17  and  O_18 
REMARK   12  A    between atoms: O_18  and  C_19 
REMARK   13  A    between atoms: C_29  and  O_30 
ROOT
HETATM    1  C   UNK N   1      19.917  17.575   2.038  0.00  0.00    -0.020 A 
HETATM    2  C   UNK N   1      20.241  16.774   0.934  0.00  0.00     0.074 A 
HETATM    3  C   UNK N   1      20.537  15.423   1.116  0.00  0.00     0.076 A 
HETATM    4  C   UNK N   1      20.522  14.856   2.392  0.00  0.00     0.095 A 
HETATM    5  C   UNK N   1      20.194  15.656   3.514  0.00  0.00     0.066 A 
HETATM    6  C   UNK N   1      19.886  17.001   3.320  0.00  0.00     0.042 A 
ENDROOT
BRANCH   5   7
HETATM    7  N   UNK N   1      20.164  15.138   4.841  0.00  0.00    -0.355 N 
HETATM    8  H   UNK N   1      19.797  14.237   4.992  0.00  0.00     0.166 HD
BRANCH   7   9
HETATM    9  C   UNK N   1      20.645  15.876   5.949  0.00  0.00     0.037 C 
HETATM   10  C   UNK N   1      19.763  16.291   6.878  0.00  0.00     0.068 C 
BRANCH  10  11
HETATM   11  C   UNK N   1      20.154  16.948   8.134  0.00  0.00     0.260 C 
HETATM   12  O   UNK N   1      20.432  18.135   8.144  0.00  0.00    -0.302 OA
ENDBRANCH  10  11
BRANCH   9  13
HETATM   13  C   UNK N   1      22.144  16.006   6.116  0.00  0.00     0.232 C 
BRANCH  13  14
HETATM   14  O   UNK N   1      22.775  14.782   6.201  0.00  0.00    -0.345 OA
BRANCH  14  15
HETATM   15  C   UNK N   1      23.181  14.181   7.345  0.00  0.00     0.070 A 
HETATM   16  C   UNK N   1      24.551  13.978   7.535  0.00  0.00     0.037 A 
HETATM   17  C   UNK N   1      25.028  13.348   8.683  0.00  0.00     0.015 A 
HETATM   18  C   UNK N   1      24.134  12.922   9.666  0.00  0.00    -0.026 A 
HETATM   19  C   UNK N   1      24.611  12.295  10.820  0.00  0.00     0.012 A 
HETATM   20  C   UNK N   1      22.746  13.132   9.495  0.00  0.00    -0.023 A 
HETATM   21  C   UNK N   1      23.716  11.879  11.808  0.00  0.00     0.001 A 
HETATM   22  C   UNK N   1      22.342  12.091  11.646  0.00  0.00     0.001 A 
HETATM   23  C   UNK N   1      21.857  12.715  10.490  0.00  0.00     0.012 A 
HETATM   24  C   UNK N   1      22.272  13.755   8.333  0.00  0.00     0.049 A 
ENDBRANCH  14  15
ENDBRANCH  13  14
ENDBRANCH   9  13
ENDBRANCH   7   9
ENDBRANCH   5   7
BRANCH   4  25
HETATM   25  O   UNK N   1      20.803  13.550   2.520  0.00  0.00    -0.358 OA
HETATM   26  H   UNK N   1      20.461  12.934   1.903  0.00  0.00     0.217 HD
ENDBRANCH   4  25
BRANCH   1  27
HETATM   27  C   UNK N   1      19.607  19.038   1.836  0.00  0.00     0.077 C 
BRANCH  27  28
HETATM   28  C   UNK N   1      20.828  19.931   1.578  0.00  0.00     0.177 C 
BRANCH  28  29
HETATM   29  N   UNK N   1      20.528  20.857   0.496  0.00  0.00    -0.417 N 
HETATM   30  H   UNK N   1      20.552  21.093  -0.496  0.00  0.00     0.150 HD
HETATM   31  H   UNK N   1      20.075  21.653   0.946  0.00  0.00     0.150 HD
ENDBRANCH  28  29
BRANCH  28  32
HETATM   32  C   UNK N   1      21.210  20.710   2.804  0.00  0.00     0.163 C 
HETATM   33  O   UNK N   1      22.196  21.430   2.780  0.00  0.00    -0.648 OA
BRANCH  32  34
HETATM   34  O   UNK N   1      20.487  20.615   3.938  0.00  0.00    -0.775 OA
HETATM   35  H   UNK N   1      20.148  19.786   4.212  0.00  0.00     0.167 HD
ENDBRANCH  32  34
ENDBRANCH  28  32
ENDBRANCH  27  28
ENDBRANCH   1  27
BRANCH   2  36
HETATM   36  O   UNK N   1      20.274  17.296  -0.305  0.00  0.00    -0.360 OA
HETATM   37  H   UNK N   1      19.707  17.994  -0.568  0.00  0.00     0.217 HD
ENDBRANCH   2  36
TORSDOF 13
ENDMDL
MODEL 2
REMARK VINA RESULT:      -7.9     13.874     17.620
REMARK  13 active torsions:
REMARK  status: ('A' for Active; 'I' for Inactive)
REMARK    1  A    between atoms: C_2  and  N_1 
REMARK    2  A    between atoms: C_2  and  C_3 
REMARK    3  A    between atoms: C_2  and  C_29 
REMARK    4  A    between atoms: C_3  and  C_4 
REMARK    5  A    between atoms: C_5  and  O_6 
REMARK    6  A    between atoms: C_8  and  O_9 
REMARK    7  A    between atoms: C_10  and  N_12 
REMARK    8  A    between atoms: N_12  and  C_13 
REMARK    9  A    between atoms: C_13  and  C_17 
REMARK   10  A    between atoms: C_14  and  C_15 
REMARK   11  A    between atoms: C_17  and  O_18 
REMARK   12  A    between atoms: O_18  and  C_19 
REMARK   13  A    between atoms: C_29  and  O_30 
ROOT
HETATM    1  C   UNK N   1      27.856  23.957  -5.177  0.00  0.00    -0.020 A 
HETATM    2  C   UNK N   1      26.519  23.929  -4.753  0.00  0.00     0.074 A 
HETATM    3  C   UNK N   1      25.523  23.471  -5.616  0.00  0.00     0.076 A 
HETATM    4  C   UNK N   1      25.840  23.043  -6.906  0.00  0.00     0.095 A 
HETATM    5  C   UNK N   1      27.187  23.064  -7.344  0.00  0.00     0.066 A 
HETATM    6  C   UNK N   1      28.177  23.511  -6.470  0.00  0.00     0.042 A 
ENDROOT
BRANCH   5   7
HETATM    7  N   UNK N   1      27.575  22.644  -8.649  0.00  0.00    -0.355 N 
HETATM    8  H   UNK N   1      28.027  21.776  -8.755  0.00  0.00     0.166 HD
BRANCH   7   9
HETATM    9  C   UNK N   1      27.332  23.433  -9.799  0.00  0.00     0.037 C 
HETATM   10  C   UNK N   1      26.425  23.004 -10.695  0.00  0.00     0.068 C 
BRANCH  10  11
HETATM   11  C   UNK N   1      25.992  23.795 -11.857  0.00  0.00     0.260 C 
HETATM   12  O   UNK N   1      25.032  23.438 -12.519  0.00  0.00    -0.302 OA
ENDBRANCH  10  11
BRANCH   9  13
HETATM   13  C   UNK N   1      27.980  24.800  -9.868  0.00  0.00     0.232 C 
BRANCH  13  14
HETATM   14  O   UNK N   1      27.096  25.820  -9.584  0.00  0.00    -0.345 OA
BRANCH  14  15
HETATM   15  C   UNK N   1      27.132  26.613  -8.487  0.00  0.00     0.070 A 
HETATM   16  C   UNK N   1      28.166  27.548  -8.381  0.00  0.00     0.037 A 
HETATM   17  C   UNK N   1      28.267  28.380  -7.266  0.00  0.00     0.015 A 
HETATM   18  C   UNK N   1      27.321  28.292  -6.244  0.00  0.00    -0.026 A 
HETATM   19  C   UNK N   1      27.418  29.128  -5.129  0.00  0.00     0.012 A 
HETATM   20  C   UNK N   1      26.261  27.360  -6.343  0.00  0.00    -0.023 A 
HETATM   21  C   UNK N   1      26.465  29.047  -4.111  0.00  0.00     0.001 A 
HETATM   22  C   UNK N   1      25.410  28.131  -4.208  0.00  0.00     0.001 A 
HETATM   23  C   UNK N   1      25.310  27.287  -5.321  0.00  0.00     0.012 A 
HETATM   24  C   UNK N   1      26.172  26.519  -7.460  0.00  0.00     0.049 A 
ENDBRANCH  14  15
ENDBRANCH  13  14
ENDBRANCH   9  13
ENDBRANCH   7   9
ENDBRANCH   5   7
BRANCH   4  25
HETATM   25  O   UNK N   1      24.852  22.600  -7.699  0.00  0.00    -0.358 OA
HETATM   26  H   UNK N   1      24.660  23.043  -8.501  0.00  0.00     0.217 HD
ENDBRANCH   4  25
BRANCH   1  27
HETATM   27  C   UNK N   1      28.926  24.463  -4.243  0.00  0.00     0.077 C 
BRANCH  27  28
HETATM   28  C   UNK N   1      29.826  23.378  -3.636  0.00  0.00     0.177 C 
BRANCH  28  29
HETATM   29  N   UNK N   1      31.218  23.787  -3.751  0.00  0.00    -0.417 N 
HETATM   30  H   UNK N   1      32.083  23.833  -4.289  0.00  0.00     0.150 HD
HETATM   31  H   UNK N   1      31.432  24.250  -2.867  0.00  0.00     0.150 HD
ENDBRANCH  28  29
BRANCH  28  32
HETATM   32  C   UNK N   1      29.499  23.136  -2.191  0.00  0.00     0.163 C 
HETATM   33  O   UNK N   1      30.403  23.007  -1.380  0.00  0.00    -0.648 OA
BRANCH  32  34
HETATM   34  O   UNK N   1      28.219  23.045  -1.776  0.00  0.00    -0.775 OA
HETATM   35  H   UNK N   1      27.665  22.366  -2.106  0.00  0.00     0.167 HD
ENDBRANCH  32  34
ENDBRANCH  28  32
ENDBRANCH  27  28
ENDBRANCH   1  27
BRANCH   2  36
HETATM   36  O   UNK N   1      26.183  24.346  -3.520  0.00  0.00    -0.360 OA
HETATM   37  H   UNK N   1      26.782  24.308  -2.800  0.00  0.00     0.217 HD
ENDBRANCH   2  36
TORSDOF 13
ENDMDL
MODEL 3
REMARK VINA RESULT:      -7.6      1.604      2.187
REMARK  13 active torsions:
REMARK  status: ('A' for Active; 'I' for Inactive)
REMARK    1  A    between atoms: C_2  and  N_1 
REMARK    2  A    between atoms: C_2  and  C_3 
REMARK    3  A    between atoms: C_2  and  C_29 
REMARK    4  A    between atoms: C_3  and  C_4 
REMARK    5  A    between atoms: C_5  and  O_6 
REMARK    6  A    between atoms: C_8  and  O_9 
REMARK    7  A    between atoms: C_10  and  N_12 
REMARK    8  A    between atoms: N_12  and  C_13 
REMARK    9  A    between atoms: C_13  and  C_17 
REMARK   10  A    between atoms: C_14  and  C_15 
REMARK   11  A    between atoms: C_17  and  O_18 
REMARK   12  A    between atoms: O_18  and  C_19 
REMARK   13  A    between atoms: C_29  and  O_30 
ROOT
HETATM    1  C   UNK N   1      20.362  18.402   2.872  0.00  0.00    -0.020 A 
HETATM    2  C   UNK N   1      20.381  17.510   1.790  0.00  0.00     0.074 A 
HETATM    3  C   UNK N   1      20.870  16.215   1.961  0.00  0.00     0.076 A 
HETATM    4  C   UNK N   1      21.350  15.794   3.203  0.00  0.00     0.095 A 
HETATM    5  C   UNK N   1      21.333  16.685   4.303  0.00  0.00     0.066 A 
HETATM    6  C   UNK N   1      20.830  17.973   4.125  0.00  0.00     0.042 A 
ENDROOT
BRANCH   5   7
HETATM    7  N   UNK N   1      21.812  16.318   5.595  0.00  0.00    -0.355 N 
HETATM    8  H   UNK N   1      22.784  16.256   5.742  0.00  0.00     0.166 HD
BRANCH   7   9
HETATM    9  C   UNK N   1      20.938  16.037   6.672  0.00  0.00     0.037 C 
HETATM   10  C   UNK N   1      20.673  17.015   7.557  0.00  0.00     0.068 C 
BRANCH  10  11
HETATM   11  C   UNK N   1      19.684  16.888   8.639  0.00  0.00     0.260 C 
HETATM   12  O   UNK N   1      19.144  17.881   9.095  0.00  0.00    -0.302 OA
ENDBRANCH  10  11
BRANCH   9  13
HETATM   13  C   UNK N   1      20.214  14.707   6.667  0.00  0.00     0.232 C 
BRANCH  13  14
HETATM   14  O   UNK N   1      21.048  13.651   6.971  0.00  0.00    -0.345 OA
BRANCH  14  15
HETATM   15  C   UNK N   1      21.437  13.285   8.215  0.00  0.00     0.070 A 
HETATM   16  C   UNK N   1      20.471  13.252   9.227  0.00  0.00     0.037 A 
HETATM   17  C   UNK N   1      20.815  12.902  10.532  0.00  0.00     0.015 A 
HETATM   18  C   UNK N   1      22.133  12.566  10.839  0.00  0.00    -0.026 A 
HETATM   19  C   UNK N   1      22.478  12.210  12.145  0.00  0.00     0.012 A 
HETATM   20  C   UNK N   1      23.119  12.581   9.824  0.00  0.00    -0.023 A 
HETATM   21  C   UNK N   1      23.797  11.864  12.449  0.00  0.00     0.001 A 
HETATM   22  C   UNK N   1      24.774  11.870  11.446  0.00  0.00     0.001 A 
HETATM   23  C   UNK N   1      24.436  12.231  10.136  0.00  0.00     0.012 A 
HETATM   24  C   UNK N   1      22.770  12.946   8.517  0.00  0.00     0.049 A 
ENDBRANCH  14  15
ENDBRANCH  13  14
ENDBRANCH   9  13
ENDBRANCH   7   9
ENDBRANCH   5   7
BRANCH   4  25
HETATM   25  O   UNK N   1      21.801  14.536   3.326  0.00  0.00    -0.358 OA
HETATM   26  H   UNK N   1      22.721  14.362   3.296  0.00  0.00     0.217 HD
ENDBRANCH   4  25
BRANCH   1  27
HETATM   27  C   UNK N   1      19.841  19.804   2.677  0.00  0.00     0.077 C 
BRANCH  27  28
HETATM   28  C   UNK N   1      20.911  20.855   2.352  0.00  0.00     0.177 C 
BRANCH  28  29
HETATM   29  N   UNK N   1      22.231  20.292   2.596  0.00  0.00    -0.417 N 
HETATM   30  H   UNK N   1      22.984  20.056   3.241  0.00  0.00     0.150 HD
HETATM   31  H   UNK N   1      22.560  19.984   1.680  0.00  0.00     0.150 HD
ENDBRANCH  28  29
BRANCH  28  32
HETATM   32  C   UNK N   1      20.822  21.308   0.923  0.00  0.00     0.163 C 
HETATM   33  O   UNK N   1      21.139  20.542   0.025  0.00  0.00    -0.648 OA
BRANCH  32  34
HETATM   34  O   UNK N   1      20.411  22.555   0.616  0.00  0.00    -0.775 OA
HETATM   35  H   UNK N   1      20.986  23.284   0.740  0.00  0.00     0.167 HD
ENDBRANCH  32  34
ENDBRANCH  28  32
ENDBRANCH  27  28
ENDBRANCH   1  27
BRANCH   2  36
HETATM   36  O   UNK N   1      19.935  17.892   0.580  0.00  0.00    -0.360 OA
HETATM   37  H   UNK N   1      19.461  18.691   0.452  0.00  0.00     0.217 HD
ENDBRANCH   2  36
TORSDOF 13
ENDMDL
MODEL 4
REMARK VINA RESULT:      -7.6      5.387      7.205
REMARK  13 active torsions:
REMARK  status: ('A' for Active; 'I' for Inactive)
REMARK    1  A    between atoms: C_2  and  N_1 
REMARK    2  A    between atoms: C_2  and  C_3 
REMARK    3  A    between atoms: C_2  and  C_29 
REMARK    4  A    between atoms: C_3  and  C_4 
REMARK    5  A    between atoms: C_5  and  O_6 
REMARK    6  A    between atoms: C_8  and  O_9 
REMARK    7  A    between atoms: C_10  and  N_12 
REMARK    8  A    between atoms: N_12  and  C_13 
REMARK    9  A    between atoms: C_13  and  C_17 
REMARK   10  A    between atoms: C_14  and  C_15 
REMARK   11  A    between atoms: C_17  and  O_18 
REMARK   12  A    between atoms: O_18  and  C_19 
REMARK   13  A    between atoms: C_29  and  O_30 
ROOT
HETATM    1  C   UNK N   1      22.916  19.386   3.656  0.00  0.00    -0.020 A 
HETATM    2  C   UNK N   1      23.836  20.382   3.295  0.00  0.00     0.074 A 
HETATM    3  C   UNK N   1      25.204  20.155   3.444  0.00  0.00     0.076 A 
HETATM    4  C   UNK N   1      25.673  18.943   3.956  0.00  0.00     0.095 A 
HETATM    5  C   UNK N   1      24.754  17.930   4.321  0.00  0.00     0.066 A 
HETATM    6  C   UNK N   1      23.389  18.162   4.157  0.00  0.00     0.042 A 
ENDROOT
BRANCH   5   7
HETATM    7  N   UNK N   1      25.169  16.674   4.853  0.00  0.00    -0.355 N 
HETATM    8  H   UNK N   1      24.933  16.450   5.782  0.00  0.00     0.166 HD
BRANCH   7   9
HETATM    9  C   UNK N   1      25.909  15.740   4.090  0.00  0.00     0.037 C 
HETATM   10  C   UNK N   1      25.508  15.473   2.833  0.00  0.00     0.068 C 
BRANCH  10  11
HETATM   11  C   UNK N   1      26.265  14.625   1.900  0.00  0.00     0.260 C 
HETATM   12  O   UNK N   1      26.129  13.414   1.924  0.00  0.00    -0.302 OA
ENDBRANCH  10  11
BRANCH   9  13
HETATM   13  C   UNK N   1      27.209  15.225   4.670  0.00  0.00     0.232 C 
BRANCH  13  14
HETATM   14  O   UNK N   1      28.265  16.084   4.447  0.00  0.00    -0.345 OA
BRANCH  14  15
HETATM   15  C   UNK N   1      29.158  16.496   5.379  0.00  0.00     0.070 A 
HETATM   16  C   UNK N   1      28.691  16.757   6.672  0.00  0.00     0.037 A 
HETATM   17  C   UNK N   1      29.558  17.201   7.669  0.00  0.00     0.015 A 
HETATM   18  C   UNK N   1      30.913  17.378   7.385  0.00  0.00    -0.026 A 
HETATM   19  C   UNK N   1      31.784  17.818   8.385  0.00  0.00     0.012 A 
HETATM   20  C   UNK N   1      31.403  17.105   6.087  0.00  0.00    -0.023 A 
HETATM   21  C   UNK N   1      33.142  17.985   8.103  0.00  0.00     0.001 A 
HETATM   22  C   UNK N   1      33.632  17.709   6.821  0.00  0.00     0.001 A 
HETATM   23  C   UNK N   1      32.764  17.272   5.813  0.00  0.00     0.012 A 
HETATM   24  C   UNK N   1      30.523  16.671   5.085  0.00  0.00     0.049 A 
ENDBRANCH  14  15
ENDBRANCH  13  14
ENDBRANCH   9  13
ENDBRANCH   7   9
ENDBRANCH   5   7
BRANCH   4  25
HETATM   25  O   UNK N   1      26.998  18.763   4.072  0.00  0.00    -0.358 OA
HETATM   26  H   UNK N   1      27.536  19.448   4.415  0.00  0.00     0.217 HD
ENDBRANCH   4  25
BRANCH   1  27
HETATM   27  C   UNK N   1      21.437  19.642   3.503  0.00  0.00     0.077 C 
BRANCH  27  28
HETATM   28  C   UNK N   1      20.858  19.304   2.123  0.00  0.00     0.177 C 
BRANCH  28  29
HETATM   29  N   UNK N   1      19.491  18.829   2.277  0.00  0.00    -0.417 N 
HETATM   30  H   UNK N   1      18.808  18.073   2.229  0.00  0.00     0.150 HD
HETATM   31  H   UNK N   1      18.959  19.647   2.577  0.00  0.00     0.150 HD
ENDBRANCH  28  29
BRANCH  28  32
HETATM   32  C   UNK N   1      20.868  20.499   1.214  0.00  0.00     0.163 C 
HETATM   33  O   UNK N   1      20.950  20.339   0.006  0.00  0.00    -0.648 OA
BRANCH  32  34
HETATM   34  O   UNK N   1      20.802  21.750   1.713  0.00  0.00    -0.775 OA
HETATM   35  H   UNK N   1      21.147  22.471   1.225  0.00  0.00     0.167 HD
ENDBRANCH  32  34
ENDBRANCH  28  32
ENDBRANCH  27  28
ENDBRANCH   1  27
BRANCH   2  36
HETATM   36  O   UNK N   1      23.411  21.562   2.810  0.00  0.00    -0.360 OA
HETATM   37  H   UNK N   1      24.004  22.202   2.466  0.00  0.00     0.217 HD
ENDBRANCH   2  36
TORSDOF 13
ENDMDL
MODEL 5
REMARK VINA RESULT:      -7.5      2.241      3.005
REMARK  13 active torsions:
REMARK  status: ('A' for Active; 'I' for Inactive)
REMARK    1  A    between atoms: C_2  and  N_1 
REMARK    2  A    between atoms: C_2  and  C_3 
REMARK    3  A    between atoms: C_2  and  C_29 
REMARK    4  A    between atoms: C_3  and  C_4 
REMARK    5  A    between atoms: C_5  and  O_6 
REMARK    6  A    between atoms: C_8  and  O_9 
REMARK    7  A    between atoms: C_10  and  N_12 
REMARK    8  A    between atoms: N_12  and  C_13 
REMARK    9  A    between atoms: C_13  and  C_17 
REMARK   10  A    between atoms: C_14  and  C_15 
REMARK   11  A    between atoms: C_17  and  O_18 
REMARK   12  A    between atoms: O_18  and  C_19 
REMARK   13  A    between atoms: C_29  and  O_30 
ROOT
HETATM    1  C   UNK N   1      22.396  19.956   3.124  0.00  0.00    -0.020 A 
HETATM    2  C   UNK N   1      21.245  20.463   2.503  0.00  0.00     0.074 A 
HETATM    3  C   UNK N   1      20.070  19.711   2.489  0.00  0.00     0.076 A 
HETATM    4  C   UNK N   1      20.028  18.448   3.084  0.00  0.00     0.095 A 
HETATM    5  C   UNK N   1      21.183  17.927   3.715  0.00  0.00     0.066 A 
HETATM    6  C   UNK N   1      22.348  18.693   3.735  0.00  0.00     0.042 A 
ENDROOT
BRANCH   5   7
HETATM    7  N   UNK N   1      21.205  16.644   4.336  0.00  0.00    -0.355 N 
HETATM    8  H   UNK N   1      21.157  15.840   3.769  0.00  0.00     0.166 HD
BRANCH   7   9
HETATM    9  C   UNK N   1      21.291  16.487   5.740  0.00  0.00     0.037 C 
HETATM   10  C   UNK N   1      20.173  16.638   6.475  0.00  0.00     0.068 C 
BRANCH  10  11
HETATM   11  C   UNK N   1      20.108  16.373   7.920  0.00  0.00     0.260 C 
HETATM   12  O   UNK N   1      20.504  17.207   8.715  0.00  0.00    -0.302 OA
ENDBRANCH  10  11
BRANCH   9  13
HETATM   13  C   UNK N   1      22.599  15.987   6.317  0.00  0.00     0.232 C 
BRANCH  13  14
HETATM   14  O   UNK N   1      22.583  14.630   6.564  0.00  0.00    -0.345 OA
BRANCH  14  15
HETATM   15  C   UNK N   1      23.018  14.030   7.698  0.00  0.00     0.070 A 
HETATM   16  C   UNK N   1      24.393  13.828   7.854  0.00  0.00     0.037 A 
HETATM   17  C   UNK N   1      24.899  13.198   8.990  0.00  0.00     0.015 A 
HETATM   18  C   UNK N   1      24.029  12.772   9.995  0.00  0.00    -0.026 A 
HETATM   19  C   UNK N   1      24.535  12.145  11.136  0.00  0.00     0.012 A 
HETATM   20  C   UNK N   1      22.637  12.981   9.858  0.00  0.00    -0.023 A 
HETATM   21  C   UNK N   1      23.665  11.728  12.147  0.00  0.00     0.001 A 
HETATM   22  C   UNK N   1      22.287  11.939  12.018  0.00  0.00     0.001 A 
HETATM   23  C   UNK N   1      21.773  12.562  10.875  0.00  0.00     0.012 A 
HETATM   24  C   UNK N   1      22.134  13.603   8.707  0.00  0.00     0.049 A 
ENDBRANCH  14  15
ENDBRANCH  13  14
ENDBRANCH   9  13
ENDBRANCH   7   9
ENDBRANCH   5   7
BRANCH   4  25
HETATM   25  O   UNK N   1      18.874  17.762   3.057  0.00  0.00    -0.358 OA
HETATM   26  H   UNK N   1      18.884  16.826   3.052  0.00  0.00     0.217 HD
ENDBRANCH   4  25
BRANCH   1  27
HETATM   27  C   UNK N   1      23.665  20.771   3.126  0.00  0.00     0.077 C 
BRANCH  27  28
HETATM   28  C   UNK N   1      24.956  19.963   3.310  0.00  0.00     0.177 C 
BRANCH  28  29
HETATM   29  N   UNK N   1      26.020  20.569   2.522  0.00  0.00    -0.417 N 
HETATM   30  H   UNK N   1      26.736  21.286   2.410  0.00  0.00     0.150 HD
HETATM   31  H   UNK N   1      26.078  20.003   1.676  0.00  0.00     0.150 HD
ENDBRANCH  28  29
BRANCH  28  32
HETATM   32  C   UNK N   1      25.375  19.912   4.751  0.00  0.00     0.163 C 
HETATM   33  O   UNK N   1      25.936  20.874   5.252  0.00  0.00    -0.648 OA
BRANCH  32  34
HETATM   34  O   UNK N   1      25.152  18.813   5.499  0.00  0.00    -0.775 OA
HETATM   35  H   UNK N   1      25.251  17.960   5.123  0.00  0.00     0.167 HD
ENDBRANCH  32  34
ENDBRANCH  28  32
ENDBRANCH  27  28
ENDBRANCH   1  27
BRANCH   2  36
HETATM   36  O   UNK N   1      21.261  21.672   1.913  0.00  0.00    -0.360 OA
HETATM   37  H   UNK N   1      20.721  22.379   2.210  0.00  0.00     0.217 HD
ENDBRANCH   2  36
TORSDOF 13
ENDMDL
MODEL 6
REMARK VINA RESULT:      -7.4      9.262     11.944
REMARK  13 active torsions:
REMARK  status: ('A' for Active; 'I' for Inactive)
REMARK    1  A    between atoms: C_2  and  N_1 
REMARK    2  A    between atoms: C_2  and  C_3 
REMARK    3  A    between atoms: C_2  and  C_29 
REMARK    4  A    between atoms: C_3  and  C_4 
REMARK    5  A    between atoms: C_5  and  O_6 
REMARK    6  A    between atoms: C_8  and  O_9 
REMARK    7  A    between atoms: C_10  and  N_12 
REMARK    8  A    between atoms: N_12  and  C_13 
REMARK    9  A    between atoms: C_13  and  C_17 
REMARK   10  A    between atoms: C_14  and  C_15 
REMARK   11  A    between atoms: C_17  and  O_18 
REMARK   12  A    between atoms: O_18  and  C_19 
REMARK   13  A    between atoms: C_29  and  O_30 
ROOT
HETATM    1  C   UNK N   1      30.712  16.990   5.665  0.00  0.00    -0.020 A 
HETATM    2  C   UNK N   1      31.655  17.289   4.669  0.00  0.00     0.074 A 
HETATM    3  C   UNK N   1      32.966  17.608   5.023  0.00  0.00     0.076 A 
HETATM    4  C   UNK N   1      33.353  17.640   6.365  0.00  0.00     0.095 A 
HETATM    5  C   UNK N   1      32.411  17.337   7.377  0.00  0.00     0.066 A 
HETATM    6  C   UNK N   1      31.106  17.007   7.012  0.00  0.00     0.042 A 
ENDROOT
BRANCH   5   7
HETATM    7  N   UNK N   1      32.743  17.356   8.763  0.00  0.00    -0.355 N 
HETATM    8  H   UNK N   1      32.376  18.072   9.331  0.00  0.00     0.166 HD
BRANCH   7   9
HETATM    9  C   UNK N   1      33.582  16.380   9.351  0.00  0.00     0.037 C 
HETATM   10  C   UNK N   1      34.781  16.763   9.827  0.00  0.00     0.068 C 
BRANCH  10  11
HETATM   11  C   UNK N   1      35.683  15.873  10.573  0.00  0.00     0.260 C 
HETATM   12  O   UNK N   1      36.833  16.212  10.796  0.00  0.00    -0.302 OA
ENDBRANCH  10  11
BRANCH   9  13
HETATM   13  C   UNK N   1      33.012  14.994   9.567  0.00  0.00     0.232 C 
BRANCH  13  14
HETATM   14  O   UNK N   1      33.634  14.039   8.789  0.00  0.00    -0.345 OA
BRANCH  14  15
HETATM   15  C   UNK N   1      33.739  14.066   7.440  0.00  0.00     0.070 A 
HETATM   16  C   UNK N   1      34.986  14.367   6.880  0.00  0.00     0.037 A 
HETATM   17  C   UNK N   1      35.152  14.429   5.497  0.00  0.00     0.015 A 
HETATM   18  C   UNK N   1      34.070  14.178   4.653  0.00  0.00    -0.026 A 
HETATM   19  C   UNK N   1      34.237  14.235   3.268  0.00  0.00     0.012 A 
HETATM   20  C   UNK N   1      32.806  13.859   5.203  0.00  0.00    -0.023 A 
HETATM   21  C   UNK N   1      33.155  13.973   2.423  0.00  0.00     0.001 A 
HETATM   22  C   UNK N   1      31.905  13.650   2.964  0.00  0.00     0.001 A 
HETATM   23  C   UNK N   1      31.729  13.596   4.352  0.00  0.00     0.012 A 
HETATM   24  C   UNK N   1      32.642  13.811   6.595  0.00  0.00     0.049 A 
ENDBRANCH  14  15
ENDBRANCH  13  14
ENDBRANCH   9  13
ENDBRANCH   7   9
ENDBRANCH   5   7
BRANCH   4  25
HETATM   25  O   UNK N   1      34.627  17.941   6.659  0.00  0.00    -0.358 OA
HETATM   26  H   UNK N   1      34.845  18.287   7.502  0.00  0.00     0.217 HD
ENDBRANCH   4  25
BRANCH   1  27
HETATM   27  C   UNK N   1      29.293  16.657   5.275  0.00  0.00     0.077 C 
BRANCH  27  28
HETATM   28  C   UNK N   1      28.335  17.854   5.222  0.00  0.00     0.177 C 
BRANCH  28  29
HETATM   29  N   UNK N   1      28.311  18.392   3.870  0.00  0.00    -0.417 N 
HETATM   30  H   UNK N   1      28.787  18.591   2.990  0.00  0.00     0.150 HD
HETATM   31  H   UNK N   1      27.360  18.736   3.739  0.00  0.00     0.150 HD
ENDBRANCH  28  29
BRANCH  28  32
HETATM   32  C   UNK N   1      26.942  17.463   5.624  0.00  0.00     0.163 C 
HETATM   33  O   UNK N   1      26.001  17.753   4.902  0.00  0.00    -0.648 OA
BRANCH  32  34
HETATM   34  O   UNK N   1      26.713  16.808   6.780  0.00  0.00    -0.775 OA
HETATM   35  H   UNK N   1      26.710  17.274   7.593  0.00  0.00     0.167 HD
ENDBRANCH  32  34
ENDBRANCH  28  32
ENDBRANCH  27  28
ENDBRANCH   1  27
BRANCH   2  36
HETATM   36  O   UNK N   1      31.306  17.277   3.371  0.00  0.00    -0.360 OA
HETATM   37  H   UNK N   1      30.784  17.955   2.988  0.00  0.00     0.217 HD
ENDBRANCH   2  36
TORSDOF 13
ENDMDL
MODEL 7
REMARK VINA RESULT:      -7.4      2.015      3.183
REMARK  13 active torsions:
REMARK  status: ('A' for Active; 'I' for Inactive)
REMARK    1  A    between atoms: C_2  and  N_1 
REMARK    2  A    between atoms: C_2  and  C_3 
REMARK    3  A    between atoms: C_2  and  C_29 
REMARK    4  A    between atoms: C_3  and  C_4 
REMARK    5  A    between atoms: C_5  and  O_6 
REMARK    6  A    between atoms: C_8  and  O_9 
REMARK    7  A    between atoms: C_10  and  N_12 
REMARK    8  A    between atoms: N_12  and  C_13 
REMARK    9  A    between atoms: C_13  and  C_17 
REMARK   10  A    between atoms: C_14  and  C_15 
REMARK   11  A    between atoms: C_17  and  O_18 
REMARK   12  A    between atoms: O_18  and  C_19 
REMARK   13  A    between atoms: C_29  and  O_30 
ROOT
HETATM    1  C   UNK N   1      20.218  17.041   2.033  0.00  0.00    -0.020 A 
HETATM    2  C   UNK N   1      19.708  16.333   0.934  0.00  0.00     0.074 A 
HETATM    3  C   UNK N   1      20.100  15.013   0.712  0.00  0.00     0.076 A 
HETATM    4  C   UNK N   1      21.004  14.385   1.571  0.00  0.00     0.095 A 
HETATM    5  C   UNK N   1      21.524  15.089   2.685  0.00  0.00     0.066 A 
HETATM    6  C   UNK N   1      21.115  16.403   2.905  0.00  0.00     0.042 A 
ENDROOT
BRANCH   5   7
HETATM    7  N   UNK N   1      22.452  14.505   3.595  0.00  0.00    -0.355 N 
HETATM    8  H   UNK N   1      22.152  13.765   4.171  0.00  0.00     0.166 HD
BRANCH   7   9
HETATM    9  C   UNK N   1      23.790  14.955   3.700  0.00  0.00     0.037 C 
HETATM   10  C   UNK N   1      24.464  15.239   2.571  0.00  0.00     0.068 C 
BRANCH  10  11
HETATM   11  C   UNK N   1      25.808  15.835   2.554  0.00  0.00     0.260 C 
HETATM   12  O   UNK N   1      26.670  15.386   1.818  0.00  0.00    -0.302 OA
ENDBRANCH  10  11
BRANCH   9  13
HETATM   13  C   UNK N   1      24.328  15.256   5.083  0.00  0.00     0.232 C 
BRANCH  13  14
HETATM   14  O   UNK N   1      23.365  15.774   5.924  0.00  0.00    -0.345 OA
BRANCH  14  15
HETATM   15  C   UNK N   1      22.809  15.130   6.978  0.00  0.00     0.070 A 
HETATM   16  C   UNK N   1      21.564  15.569   7.439  0.00  0.00     0.037 A 
HETATM   17  C   UNK N   1      20.950  14.959   8.532  0.00  0.00     0.015 A 
HETATM   18  C   UNK N   1      21.574  13.888   9.173  0.00  0.00    -0.026 A 
HETATM   19  C   UNK N   1      20.958  13.273  10.265  0.00  0.00     0.012 A 
HETATM   20  C   UNK N   1      22.828  13.424   8.711  0.00  0.00    -0.023 A 
HETATM   21  C   UNK N   1      21.579  12.194  10.900  0.00  0.00     0.001 A 
HETATM   22  C   UNK N   1      22.817  11.727  10.441  0.00  0.00     0.001 A 
HETATM   23  C   UNK N   1      23.442  12.343   9.349  0.00  0.00     0.012 A 
HETATM   24  C   UNK N   1      23.445  14.050   7.619  0.00  0.00     0.049 A 
ENDBRANCH  14  15
ENDBRANCH  13  14
ENDBRANCH   9  13
ENDBRANCH   7   9
ENDBRANCH   5   7
BRANCH   4  25
HETATM   25  O   UNK N   1      21.346  13.110   1.326  0.00  0.00    -0.358 OA
HETATM   26  H   UNK N   1      21.989  12.914   0.674  0.00  0.00     0.217 HD
ENDBRANCH   4  25
BRANCH   1  27
HETATM   27  C   UNK N   1      19.798  18.471   2.262  0.00  0.00     0.077 C 
BRANCH  27  28
HETATM   28  C   UNK N   1      20.854  19.524   1.901  0.00  0.00     0.177 C 
BRANCH  28  29
HETATM   29  N   UNK N   1      20.468  20.190   0.665  0.00  0.00    -0.417 N 
HETATM   30  H   UNK N   1      20.673  20.445  -0.300  0.00  0.00     0.150 HD
HETATM   31  H   UNK N   1      19.553  20.597   0.858  0.00  0.00     0.150 HD
ENDBRANCH  28  29
BRANCH  28  32
HETATM   32  C   UNK N   1      21.004  20.549   2.989  0.00  0.00     0.163 C 
HETATM   33  O   UNK N   1      20.525  20.335   4.092  0.00  0.00    -0.648 OA
BRANCH  32  34
HETATM   34  O   UNK N   1      21.649  21.711   2.761  0.00  0.00    -0.775 OA
HETATM   35  H   UNK N   1      22.354  21.745   2.146  0.00  0.00     0.167 HD
ENDBRANCH  32  34
ENDBRANCH  28  32
ENDBRANCH  27  28
ENDBRANCH   1  27
BRANCH   2  36
HETATM   36  O   UNK N   1      18.845  16.917   0.085  0.00  0.00    -0.360 OA
HETATM   37  H   UNK N   1      18.282  17.619   0.349  0.00  0.00     0.217 HD
ENDBRANCH   2  36
TORSDOF 13
ENDMDL
MODEL 8
REMARK VINA RESULT:      -7.3     12.365     15.700
REMARK  13 active torsions:
REMARK  status: ('A' for Active; 'I' for Inactive)
REMARK    1  A    between atoms: C_2  and  N_1 
REMARK    2  A    between atoms: C_2  and  C_3 
REMARK    3  A    between atoms: C_2  and  C_29 
REMARK    4  A    between atoms: C_3  and  C_4 
REMARK    5  A    between atoms: C_5  and  O_6 
REMARK    6  A    between atoms: C_8  and  O_9 
REMARK    7  A    between atoms: C_10  and  N_12 
REMARK    8  A    between atoms: N_12  and  C_13 
REMARK    9  A    between atoms: C_13  and  C_17 
REMARK   10  A    between atoms: C_14  and  C_15 
REMARK   11  A    between atoms: C_17  and  O_18 
REMARK   12  A    between atoms: O_18  and  C_19 
REMARK   13  A    between atoms: C_29  and  O_30 
ROOT
HETATM    1  C   UNK N   1      33.864  15.862   9.481  0.00  0.00    -0.020 A 
HETATM    2  C   UNK N   1      34.843  16.794   9.858  0.00  0.00     0.074 A 
HETATM    3  C   UNK N   1      35.708  16.507  10.914  0.00  0.00     0.076 A 
HETATM    4  C   UNK N   1      35.608  15.300  11.609  0.00  0.00     0.095 A 
HETATM    5  C   UNK N   1      34.626  14.351  11.235  0.00  0.00     0.066 A 
HETATM    6  C   UNK N   1      33.774  14.642  10.170  0.00  0.00     0.042 A 
ENDROOT
BRANCH   5   7
HETATM    7  N   UNK N   1      34.471  13.104  11.906  0.00  0.00    -0.355 N 
HETATM    8  H   UNK N   1      33.767  13.015  12.590  0.00  0.00     0.166 HD
BRANCH   7   9
HETATM    9  C   UNK N   1      35.295  11.988  11.624  0.00  0.00     0.037 C 
HETATM   10  C   UNK N   1      35.458  11.616  10.341  0.00  0.00     0.068 C 
BRANCH  10  11
HETATM   11  C   UNK N   1      36.387  10.561   9.911  0.00  0.00     0.260 C 
HETATM   12  O   UNK N   1      36.002   9.408   9.809  0.00  0.00    -0.302 OA
ENDBRANCH  10  11
BRANCH   9  13
HETATM   13  C   UNK N   1      36.084  11.384  12.766  0.00  0.00     0.232 C 
BRANCH  13  14
HETATM   14  O   UNK N   1      36.450  12.322  13.710  0.00  0.00    -0.345 OA
BRANCH  14  15
HETATM   15  C   UNK N   1      36.114  12.296  15.021  0.00  0.00     0.070 A 
HETATM   16  C   UNK N   1      35.443  13.401  15.554  0.00  0.00     0.037 A 
HETATM   17  C   UNK N   1      35.087  13.440  16.902  0.00  0.00     0.015 A 
HETATM   18  C   UNK N   1      35.389  12.361  17.733  0.00  0.00    -0.026 A 
HETATM   19  C   UNK N   1      35.029  12.397  19.082  0.00  0.00     0.012 A 
HETATM   20  C   UNK N   1      36.055  11.230  17.206  0.00  0.00    -0.023 A 
HETATM   21  C   UNK N   1      35.322  11.312  19.912  0.00  0.00     0.001 A 
HETATM   22  C   UNK N   1      35.975  10.188  19.392  0.00  0.00     0.001 A 
HETATM   23  C   UNK N   1      36.343  10.147  18.042  0.00  0.00     0.012 A 
HETATM   24  C   UNK N   1      36.421  11.202  15.853  0.00  0.00     0.049 A 
ENDBRANCH  14  15
ENDBRANCH  13  14
ENDBRANCH   9  13
ENDBRANCH   7   9
ENDBRANCH   5   7
BRANCH   4  25
HETATM   25  O   UNK N   1      36.469  15.061  12.611  0.00  0.00    -0.358 OA
HETATM   26  H   UNK N   1      37.324  14.729  12.425  0.00  0.00     0.217 HD
ENDBRANCH   4  25
BRANCH   1  27
HETATM   27  C   UNK N   1      32.924  16.183   8.346  0.00  0.00     0.077 C 
BRANCH  27  28
HETATM   28  C   UNK N   1      33.464  15.865   6.945  0.00  0.00     0.177 C 
BRANCH  28  29
HETATM   29  N   UNK N   1      32.526  14.994   6.253  0.00  0.00    -0.417 N 
HETATM   30  H   UNK N   1      31.919  14.174   6.250  0.00  0.00     0.150 HD
HETATM   31  H   UNK N   1      32.428  15.398   5.321  0.00  0.00     0.150 HD
ENDBRANCH  28  29
BRANCH  28  32
HETATM   32  C   UNK N   1      33.668  17.115   6.137  0.00  0.00     0.163 C 
HETATM   33  O   UNK N   1      34.561  17.891   6.439  0.00  0.00    -0.648 OA
BRANCH  32  34
HETATM   34  O   UNK N   1      32.870  17.399   5.089  0.00  0.00    -0.775 OA
HETATM   35  H   UNK N   1      32.312  16.739   4.728  0.00  0.00     0.167 HD
ENDBRANCH  32  34
ENDBRANCH  28  32
ENDBRANCH  27  28
ENDBRANCH   1  27
BRANCH   2  36
HETATM   36  O   UNK N   1      34.954  17.969   9.214  0.00  0.00    -0.360 OA
HETATM   37  H   UNK N   1      35.772  18.420   9.136  0.00  0.00     0.217 HD
ENDBRANCH   2  36
TORSDOF 13
ENDMDL
MODEL 9
REMARK VINA RESULT:      -7.3      3.303      5.446
REMARK  13 active torsions:
REMARK  status: ('A' for Active; 'I' for Inactive)
REMARK    1  A    between atoms: C_2  and  N_1 
REMARK    2  A    between atoms: C_2  and  C_3 
REMARK    3  A    between atoms: C_2  and  C_29 
REMARK    4  A    between atoms: C_3  and  C_4 
REMARK    5  A    between atoms: C_5  and  O_6 
REMARK    6  A    between atoms: C_8  and  O_9 
REMARK    7  A    between atoms: C_10  and  N_12 
REMARK    8  A    between atoms: N_12  and  C_13 
REMARK    9  A    between atoms: C_13  and  C_17 
REMARK   10  A    between atoms: C_14  and  C_15 
REMARK   11  A    between atoms: C_17  and  O_18 
REMARK   12  A    between atoms: O_18  and  C_19 
REMARK   13  A    between atoms: C_29  and  O_30 
ROOT
HETATM    1  C   UNK N   1      24.719  18.874   3.670  0.00  0.00    -0.020 A 
HETATM    2  C   UNK N   1      24.950  20.116   3.060  0.00  0.00     0.074 A 
HETATM    3  C   UNK N   1      23.876  20.941   2.728  0.00  0.00     0.076 A 
HETATM    4  C   UNK N   1      22.564  20.543   2.992  0.00  0.00     0.095 A 
HETATM    5  C   UNK N   1      22.319  19.292   3.610  0.00  0.00     0.066 A 
HETATM    6  C   UNK N   1      23.400  18.480   3.949  0.00  0.00     0.042 A 
ENDROOT
BRANCH   5   7
HETATM    7  N   UNK N   1      21.003  18.827   3.902  0.00  0.00    -0.355 N 
HETATM    8  H   UNK N   1      20.475  19.293   4.589  0.00  0.00     0.166 HD
BRANCH   7   9
HETATM    9  C   UNK N   1      20.432  17.716   3.236  0.00  0.00     0.037 C 
HETATM   10  C   UNK N   1      20.411  17.712   1.890  0.00  0.00     0.068 C 
BRANCH  10  11
HETATM   11  C   UNK N   1      19.965  16.564   1.087  0.00  0.00     0.260 C 
HETATM   12  O   UNK N   1      20.782  15.853   0.527  0.00  0.00    -0.302 OA
ENDBRANCH  10  11
BRANCH   9  13
HETATM   13  C   UNK N   1      20.034  16.518   4.073  0.00  0.00     0.232 C 
BRANCH  13  14
HETATM   14  O   UNK N   1      20.212  16.734   5.424  0.00  0.00    -0.345 OA
BRANCH  14  15
HETATM   15  C   UNK N   1      20.885  15.920   6.271  0.00  0.00     0.070 A 
HETATM   16  C   UNK N   1      22.190  15.548   5.933  0.00  0.00     0.037 A 
HETATM   17  C   UNK N   1      22.926  14.696   6.756  0.00  0.00     0.015 A 
HETATM   18  C   UNK N   1      22.366  14.214   7.939  0.00  0.00    -0.026 A 
HETATM   19  C   UNK N   1      23.104  13.364   8.766  0.00  0.00     0.012 A 
HETATM   20  C   UNK N   1      21.051  14.592   8.301  0.00  0.00    -0.023 A 
HETATM   21  C   UNK N   1      22.545  12.890   9.956  0.00  0.00     0.001 A 
HETATM   22  C   UNK N   1      21.247  13.268  10.322  0.00  0.00     0.001 A 
HETATM   23  C   UNK N   1      20.500  14.115   9.494  0.00  0.00     0.012 A 
HETATM   24  C   UNK N   1      20.312  15.438   7.464  0.00  0.00     0.049 A 
ENDBRANCH  14  15
ENDBRANCH  13  14
ENDBRANCH   9  13
ENDBRANCH   7   9
ENDBRANCH   5   7
BRANCH   4  25
HETATM   25  O   UNK N   1      21.561  21.373   2.666  0.00  0.00    -0.358 OA
HETATM   26  H   UNK N   1      20.675  21.135   2.853  0.00  0.00     0.217 HD
ENDBRANCH   4  25
BRANCH   1  27
HETATM   27  C   UNK N   1      25.884  17.982   4.017  0.00  0.00     0.077 C 
BRANCH  27  28
HETATM   28  C   UNK N   1      26.567  18.294   5.355  0.00  0.00     0.177 C 
BRANCH  28  29
HETATM   29  N   UNK N   1      26.432  17.148   6.243  0.00  0.00    -0.417 N 
HETATM   30  H   UNK N   1      26.572  16.719   7.158  0.00  0.00     0.150 HD
HETATM   31  H   UNK N   1      25.980  16.428   5.680  0.00  0.00     0.150 HD
ENDBRANCH  28  29
BRANCH  28  32
HETATM   32  C   UNK N   1      28.024  18.608   5.170  0.00  0.00     0.163 C 
HETATM   33  O   UNK N   1      28.849  18.112   5.921  0.00  0.00    -0.648 OA
BRANCH  32  34
HETATM   34  O   UNK N   1      28.433  19.444   4.195  0.00  0.00    -0.775 OA
HETATM   35  H   UNK N   1      29.347  19.554   4.022  0.00  0.00     0.167 HD
ENDBRANCH  32  34
ENDBRANCH  28  32
ENDBRANCH  27  28
ENDBRANCH   1  27
BRANCH   2  36
HETATM   36  O   UNK N   1      26.203  20.520   2.784  0.00  0.00    -0.360 OA
HETATM   37  H   UNK N   1      26.729  20.978   3.411  0.00  0.00     0.217 HD
ENDBRANCH   2  36
TORSDOF 13
ENDMDL
