MODEL 1
REMARK VINA RESULT:      -7.0      0.000      0.000
REMARK  7 active torsions:
REMARK  status: ('A' for Active; 'I' for Inactive)
REMARK    1  A    between atoms: C_1  and  O_2 
REMARK    2  A    between atoms: O_2  and  C_13 
REMARK    3  A    between atoms: C_5  and  O_6 
REMARK    4  A    between atoms: C_7  and  O_8 
REMARK    5  A    between atoms: C_9  and  C_10 
REMARK    6  A    between atoms: C_14  and  N_15 
REMARK    7  A    between atoms: C_19  and  N_20 
ROOT
HETATM    1  C   UNK N   1      19.823  16.561   0.897  0.00  0.00     0.198 C 
HETATM    2  O   UNK N   1      20.298  17.094  -0.301  0.00  0.00    -0.398 OA
HETATM    3  H   UNK N   1      20.646  17.585  -1.062  0.00  0.00     0.209 HD
ENDROOT
BRANCH   1   4
HETATM    4  C   UNK N   1      20.520  17.199   2.091  0.00  0.00     0.179 C 
HETATM    5  C   UNK N   1      20.094  18.680   2.308  0.00  0.00     0.180 C 
HETATM    6  C   UNK N   1      20.564  19.195   3.697  0.00  0.00     0.188 C 
HETATM    7  C   UNK N   1      21.708  18.315   4.191  0.00  0.00     0.256 C 
HETATM    8  C   UNK N   1      21.108  16.866   4.369  0.00  0.00     0.303 C 
HETATM    9  F   UNK N   1      22.286  18.804   5.348  0.00  0.00    -0.241 F 
HETATM   10  O   UNK N   1      20.315  16.425   3.258  0.00  0.00    -0.348 OA
BRANCH   5  11
HETATM   11  O   UNK N   1      20.662  19.445   1.283  0.00  0.00    -0.390 OA
HETATM   12  H   UNK N   1      20.280  20.008   0.592  0.00  0.00     0.210 HD
ENDBRANCH   5  11
BRANCH   6  13
HETATM   13  O   UNK N   1      20.933  20.542   3.643  0.00  0.00    -0.390 OA
HETATM   14  H   UNK N   1      20.287  21.258   3.533  0.00  0.00     0.210 HD
ENDBRANCH   6  13
BRANCH   8  15
HETATM   15  O   UNK N   1      20.290  16.793   5.498  0.00  0.00    -0.315 OA
BRANCH  15  16
HETATM   16  C   UNK N   1      20.630  16.069   6.589  0.00  0.00     0.105 A 
HETATM   17  C   UNK N   1      20.413  16.551   7.906  0.00  0.00     0.138 A 
HETATM   18  C   UNK N   1      20.641  15.684   8.986  0.00  0.00     0.075 A 
HETATM   19  C   UNK N   1      21.094  14.373   8.782  0.00  0.00     0.105 A 
HETATM   20  C   UNK N   1      21.381  13.942   7.482  0.00  0.00     0.039 A 
HETATM   21  C   UNK N   1      21.156  14.785   6.398  0.00  0.00     0.042 A 
BRANCH  17  22
HETATM   22  N   UNK N   1      19.966  17.884   8.170  0.00  0.00    -0.113 N 
HETATM   23  O   UNK N   1      18.932  18.082   8.963  0.00  0.00    -0.532 OA
HETATM   24  O   UNK N   1      20.579  18.826   7.773  0.00  0.00    -0.532 OA
ENDBRANCH  17  22
BRANCH  19  25
HETATM   25  N   UNK N   1      21.228  13.482   9.880  0.00  0.00    -0.116 N 
HETATM   26  O   UNK N   1      20.159  12.951  10.435  0.00  0.00    -0.532 OA
HETATM   27  O   UNK N   1      22.311  13.144  10.254  0.00  0.00    -0.532 OA
ENDBRANCH  19  25
ENDBRANCH  15  16
ENDBRANCH   8  15
ENDBRANCH   1   4
TORSDOF 7
ENDMDL
MODEL 2
REMARK VINA RESULT:      -6.7      9.750     11.794
REMARK  7 active torsions:
REMARK  status: ('A' for Active; 'I' for Inactive)
REMARK    1  A    between atoms: C_1  and  O_2 
REMARK    2  A    between atoms: O_2  and  C_13 
REMARK    3  A    between atoms: C_5  and  O_6 
REMARK    4  A    between atoms: C_7  and  O_8 
REMARK    5  A    between atoms: C_9  and  C_10 
REMARK    6  A    between atoms: C_14  and  N_15 
REMARK    7  A    between atoms: C_19  and  N_20 
ROOT
HETATM    1  C   UNK N   1      34.518  18.305   8.291  0.00  0.00     0.198 C 
HETATM    2  O   UNK N   1      35.184  17.913   9.453  0.00  0.00    -0.398 OA
HETATM    3  H   UNK N   1      35.533  17.561  10.287  0.00  0.00     0.209 HD
ENDROOT
BRANCH   1   4
HETATM    4  C   UNK N   1      33.644  17.177   7.758  0.00  0.00     0.179 C 
HETATM    5  C   UNK N   1      33.617  15.944   8.709  0.00  0.00     0.180 C 
HETATM    6  C   UNK N   1      32.484  14.959   8.307  0.00  0.00     0.188 C 
HETATM    7  C   UNK N   1      32.100  15.212   6.852  0.00  0.00     0.256 C 
HETATM    8  C   UNK N   1      31.530  16.683   6.793  0.00  0.00     0.303 C 
HETATM    9  F   UNK N   1      31.208  14.271   6.372  0.00  0.00    -0.241 F 
HETATM   10  O   UNK N   1      32.339  17.648   7.482  0.00  0.00    -0.348 OA
BRANCH   5  11
HETATM   11  O   UNK N   1      34.864  15.316   8.634  0.00  0.00    -0.390 OA
HETATM   12  H   UNK N   1      35.764  15.650   8.497  0.00  0.00     0.210 HD
ENDBRANCH   5  11
BRANCH   6  13
HETATM   13  O   UNK N   1      32.865  13.631   8.519  0.00  0.00    -0.390 OA
HETATM   14  H   UNK N   1      32.533  12.898   7.975  0.00  0.00     0.210 HD
ENDBRANCH   6  13
BRANCH   8  15
HETATM   15  O   UNK N   1      30.256  16.754   7.359  0.00  0.00    -0.315 OA
BRANCH  15  16
HETATM   16  C   UNK N   1      29.334  17.656   6.948  0.00  0.00     0.105 A 
HETATM   17  C   UNK N   1      28.564  18.413   7.869  0.00  0.00     0.138 A 
HETATM   18  C   UNK N   1      27.745  19.441   7.375  0.00  0.00     0.075 A 
HETATM   19  C   UNK N   1      27.664  19.708   6.002  0.00  0.00     0.105 A 
HETATM   20  C   UNK N   1      28.365  18.898   5.103  0.00  0.00     0.039 A 
HETATM   21  C   UNK N   1      29.187  17.878   5.573  0.00  0.00     0.042 A 
BRANCH  17  22
HETATM   22  N   UNK N   1      28.600  18.172   9.278  0.00  0.00    -0.113 N 
HETATM   23  O   UNK N   1      27.832  17.237   9.801  0.00  0.00    -0.532 OA
HETATM   24  O   UNK N   1      29.391  18.728   9.976  0.00  0.00    -0.532 OA
ENDBRANCH  17  22
BRANCH  19  25
HETATM   25  N   UNK N   1      26.903  20.812   5.530  0.00  0.00    -0.116 N 
HETATM   26  O   UNK N   1      26.017  20.643   4.571  0.00  0.00    -0.532 OA
HETATM   27  O   UNK N   1      27.002  21.881   6.054  0.00  0.00    -0.532 OA
ENDBRANCH  19  25
ENDBRANCH  15  16
ENDBRANCH   8  15
ENDBRANCH   1   4
TORSDOF 7
ENDMDL
MODEL 3
REMARK VINA RESULT:      -6.6     10.981     11.846
REMARK  7 active torsions:
REMARK  status: ('A' for Active; 'I' for Inactive)
REMARK    1  A    between atoms: C_1  and  O_2 
REMARK    2  A    between atoms: O_2  and  C_13 
REMARK    3  A    between atoms: C_5  and  O_6 
REMARK    4  A    between atoms: C_7  and  O_8 
REMARK    5  A    between atoms: C_9  and  C_10 
REMARK    6  A    between atoms: C_14  and  N_15 
REMARK    7  A    between atoms: C_19  and  N_20 
ROOT
HETATM    1  C   UNK N   1      27.741  19.571   7.499  0.00  0.00     0.198 C 
HETATM    2  O   UNK N   1      26.664  19.867   6.664  0.00  0.00    -0.398 OA
HETATM    3  H   UNK N   1      25.996  20.027   5.979  0.00  0.00     0.209 HD
ENDROOT
BRANCH   1   4
HETATM    4  C   UNK N   1      28.525  18.375   6.972  0.00  0.00     0.179 C 
HETATM    5  C   UNK N   1      28.874  18.511   5.461  0.00  0.00     0.180 C 
HETATM    6  C   UNK N   1      29.931  17.453   5.039  0.00  0.00     0.188 C 
HETATM    7  C   UNK N   1      29.918  16.308   6.047  0.00  0.00     0.256 C 
HETATM    8  C   UNK N   1      30.355  16.930   7.431  0.00  0.00     0.303 C 
HETATM    9  F   UNK N   1      30.719  15.252   5.656  0.00  0.00    -0.241 F 
HETATM   10  O   UNK N   1      29.683  18.157   7.754  0.00  0.00    -0.348 OA
BRANCH   5  11
HETATM   11  O   UNK N   1      27.693  18.344   4.730  0.00  0.00    -0.390 OA
HETATM   12  H   UNK N   1      27.516  18.087   3.812  0.00  0.00     0.210 HD
ENDBRANCH   5  11
BRANCH   6  13
HETATM   13  O   UNK N   1      29.706  16.998   3.736  0.00  0.00    -0.390 OA
HETATM   14  H   UNK N   1      29.396  17.581   3.025  0.00  0.00     0.210 HD
ENDBRANCH   6  13
BRANCH   8  15
HETATM   15  O   UNK N   1      31.723  17.206   7.450  0.00  0.00    -0.315 OA
BRANCH  15  16
HETATM   16  C   UNK N   1      32.572  16.582   8.299  0.00  0.00     0.105 A 
HETATM   17  C   UNK N   1      33.886  17.066   8.536  0.00  0.00     0.138 A 
HETATM   18  C   UNK N   1      34.652  16.463   9.545  0.00  0.00     0.075 A 
HETATM   19  C   UNK N   1      34.150  15.392  10.297  0.00  0.00     0.105 A 
HETATM   20  C   UNK N   1      32.886  14.875   9.994  0.00  0.00     0.039 A 
HETATM   21  C   UNK N   1      32.108  15.462   9.001  0.00  0.00     0.042 A 
BRANCH  17  22
HETATM   22  N   UNK N   1      34.451  18.146   7.788  0.00  0.00    -0.113 N 
HETATM   23  O   UNK N   1      34.968  19.179   8.421  0.00  0.00    -0.532 OA
HETATM   24  O   UNK N   1      34.561  18.078   6.602  0.00  0.00    -0.532 OA
ENDBRANCH  17  22
BRANCH  19  25
HETATM   25  N   UNK N   1      34.904  14.858  11.377  0.00  0.00    -0.116 N 
HETATM   26  O   UNK N   1      36.129  15.285  11.603  0.00  0.00    -0.532 OA
HETATM   27  O   UNK N   1      34.406  14.080  12.133  0.00  0.00    -0.532 OA
ENDBRANCH  19  25
ENDBRANCH  15  16
ENDBRANCH   8  15
ENDBRANCH   1   4
TORSDOF 7
ENDMDL
MODEL 4
REMARK VINA RESULT:      -6.5      2.734      7.079
REMARK  7 active torsions:
REMARK  status: ('A' for Active; 'I' for Inactive)
REMARK    1  A    between atoms: C_1  and  O_2 
REMARK    2  A    between atoms: O_2  and  C_13 
REMARK    3  A    between atoms: C_5  and  O_6 
REMARK    4  A    between atoms: C_7  and  O_8 
REMARK    5  A    between atoms: C_9  and  C_10 
REMARK    6  A    between atoms: C_14  and  N_15 
REMARK    7  A    between atoms: C_19  and  N_20 
ROOT
HETATM    1  C   UNK N   1      19.407  17.426   9.016  0.00  0.00     0.198 C 
HETATM    2  O   UNK N   1      19.959  18.706   9.083  0.00  0.00    -0.398 OA
HETATM    3  H   UNK N   1      20.464  19.531   9.158  0.00  0.00     0.209 HD
ENDROOT
BRANCH   1   4
HETATM    4  C   UNK N   1      20.430  16.419   8.505  0.00  0.00     0.179 C 
HETATM    5  C   UNK N   1      19.805  15.016   8.245  0.00  0.00     0.180 C 
HETATM    6  C   UNK N   1      20.779  14.117   7.433  0.00  0.00     0.188 C 
HETATM    7  C   UNK N   1      22.198  14.659   7.586  0.00  0.00     0.256 C 
HETATM    8  C   UNK N   1      22.193  16.101   6.945  0.00  0.00     0.303 C 
HETATM    9  F   UNK N   1      23.144  13.823   7.023  0.00  0.00    -0.241 F 
HETATM   10  O   UNK N   1      21.085  16.916   7.354  0.00  0.00    -0.348 OA
BRANCH   5  11
HETATM   11  O   UNK N   1      19.520  14.436   9.486  0.00  0.00    -0.390 OA
HETATM   12  H   UNK N   1      20.043  13.895  10.096  0.00  0.00     0.210 HD
ENDBRANCH   5  11
BRANCH   6  13
HETATM   13  O   UNK N   1      20.690  12.780   7.831  0.00  0.00    -0.390 OA
HETATM   14  H   UNK N   1      19.847  12.301   7.873  0.00  0.00     0.210 HD
ENDBRANCH   6  13
BRANCH   8  15
HETATM   15  O   UNK N   1      22.147  16.034   5.551  0.00  0.00    -0.315 OA
BRANCH  15  16
HETATM   16  C   UNK N   1      22.465  17.091   4.768  0.00  0.00     0.105 A 
HETATM   17  C   UNK N   1      21.545  17.636   3.834  0.00  0.00     0.138 A 
HETATM   18  C   UNK N   1      21.884  18.826   3.173  0.00  0.00     0.075 A 
HETATM   19  C   UNK N   1      23.113  19.461   3.403  0.00  0.00     0.105 A 
HETATM   20  C   UNK N   1      24.041  18.865   4.264  0.00  0.00     0.039 A 
HETATM   21  C   UNK N   1      23.721  17.688   4.934  0.00  0.00     0.042 A 
BRANCH  17  22
HETATM   22  N   UNK N   1      20.286  17.020   3.551  0.00  0.00    -0.113 N 
HETATM   23  O   UNK N   1      20.180  16.181   2.540  0.00  0.00    -0.532 OA
HETATM   24  O   UNK N   1      19.353  17.169   4.280  0.00  0.00    -0.532 OA
ENDBRANCH  17  22
BRANCH  19  25
HETATM   25  N   UNK N   1      23.398  20.713   2.796  0.00  0.00    -0.116 N 
HETATM   26  O   UNK N   1      24.533  20.893   2.153  0.00  0.00    -0.532 OA
HETATM   27  O   UNK N   1      22.579  21.583   2.793  0.00  0.00    -0.532 OA
ENDBRANCH  19  25
ENDBRANCH  15  16
ENDBRANCH   8  15
ENDBRANCH   1   4
TORSDOF 7
ENDMDL
MODEL 5
REMARK VINA RESULT:      -6.4      4.255      5.669
REMARK  7 active torsions:
REMARK  status: ('A' for Active; 'I' for Inactive)
REMARK    1  A    between atoms: C_1  and  O_2 
REMARK    2  A    between atoms: O_2  and  C_13 
REMARK    3  A    between atoms: C_5  and  O_6 
REMARK    4  A    between atoms: C_7  and  O_8 
REMARK    5  A    between atoms: C_9  and  C_10 
REMARK    6  A    between atoms: C_14  and  N_15 
REMARK    7  A    between atoms: C_19  and  N_20 
ROOT
HETATM    1  C   UNK N   1      20.591  20.819   1.251  0.00  0.00     0.198 C 
HETATM    2  O   UNK N   1      20.527  20.060   0.082  0.00  0.00    -0.398 OA
HETATM    3  H   UNK N   1      20.562  19.439  -0.662  0.00  0.00     0.209 HD
ENDROOT
BRANCH   1   4
HETATM    4  C   UNK N   1      20.675  19.921   2.479  0.00  0.00     0.179 C 
HETATM    5  C   UNK N   1      19.825  18.626   2.329  0.00  0.00     0.180 C 
HETATM    6  C   UNK N   1      20.181  17.597   3.439  0.00  0.00     0.188 C 
HETATM    7  C   UNK N   1      20.837  18.333   4.604  0.00  0.00     0.256 C 
HETATM    8  C   UNK N   1      22.177  18.949   4.042  0.00  0.00     0.303 C 
HETATM    9  F   UNK N   1      21.040  17.511   5.697  0.00  0.00    -0.241 F 
HETATM   10  O   UNK N   1      22.024  19.624   2.785  0.00  0.00    -0.348 OA
BRANCH   5  11
HETATM   11  O   UNK N   1      18.475  18.986   2.407  0.00  0.00    -0.390 OA
HETATM   12  H   UNK N   1      17.822  19.243   1.739  0.00  0.00     0.210 HD
ENDBRANCH   5  11
BRANCH   6  13
HETATM   13  O   UNK N   1      19.054  16.879   3.848  0.00  0.00    -0.390 OA
HETATM   14  H   UNK N   1      18.999  16.440   4.712  0.00  0.00     0.210 HD
ENDBRANCH   6  13
BRANCH   8  15
HETATM   15  O   UNK N   1      23.145  17.961   3.850  0.00  0.00    -0.315 OA
BRANCH  15  16
HETATM   16  C   UNK N   1      24.371  18.034   4.418  0.00  0.00     0.105 A 
HETATM   17  C   UNK N   1      24.954  16.924   5.085  0.00  0.00     0.138 A 
HETATM   18  C   UNK N   1      26.288  17.021   5.510  0.00  0.00     0.075 A 
HETATM   19  C   UNK N   1      27.033  18.190   5.305  0.00  0.00     0.105 A 
HETATM   20  C   UNK N   1      26.417  19.302   4.720  0.00  0.00     0.039 A 
HETATM   21  C   UNK N   1      25.097  19.224   4.287  0.00  0.00     0.042 A 
BRANCH  17  22
HETATM   22  N   UNK N   1      24.234  15.714   5.333  0.00  0.00    -0.113 N 
HETATM   23  O   UNK N   1      23.490  15.606   6.415  0.00  0.00    -0.532 OA
HETATM   24  O   UNK N   1      24.208  14.839   4.522  0.00  0.00    -0.532 OA
ENDBRANCH  17  22
BRANCH  19  25
HETATM   25  N   UNK N   1      28.409  18.235   5.656  0.00  0.00    -0.116 N 
HETATM   26  O   UNK N   1      28.767  18.505   6.894  0.00  0.00    -0.532 OA
HETATM   27  O   UNK N   1      29.247  17.949   4.854  0.00  0.00    -0.532 OA
ENDBRANCH  19  25
ENDBRANCH  15  16
ENDBRANCH   8  15
ENDBRANCH   1   4
TORSDOF 7
ENDMDL
MODEL 6
REMARK VINA RESULT:      -6.4      9.927     10.936
REMARK  7 active torsions:
REMARK  status: ('A' for Active; 'I' for Inactive)
REMARK    1  A    between atoms: C_1  and  O_2 
REMARK    2  A    between atoms: O_2  and  C_13 
REMARK    3  A    between atoms: C_5  and  O_6 
REMARK    4  A    between atoms: C_7  and  O_8 
REMARK    5  A    between atoms: C_9  and  C_10 
REMARK    6  A    between atoms: C_14  and  N_15 
REMARK    7  A    between atoms: C_19  and  N_20 
ROOT
HETATM    1  C   UNK N   1      27.203  20.601   6.836  0.00  0.00     0.198 C 
HETATM    2  O   UNK N   1      25.950  20.923   7.357  0.00  0.00    -0.398 OA
HETATM    3  H   UNK N   1      25.031  21.038   7.645  0.00  0.00     0.209 HD
ENDROOT
BRANCH   1   4
HETATM    4  C   UNK N   1      27.331  19.100   6.613  0.00  0.00     0.179 C 
HETATM    5  C   UNK N   1      26.847  18.665   5.198  0.00  0.00     0.180 C 
HETATM    6  C   UNK N   1      27.283  17.206   4.887  0.00  0.00     0.188 C 
HETATM    7  C   UNK N   1      27.575  16.485   6.200  0.00  0.00     0.256 C 
HETATM    8  C   UNK N   1      28.792  17.243   6.861  0.00  0.00     0.303 C 
HETATM    9  F   UNK N   1      27.816  15.136   6.017  0.00  0.00    -0.241 F 
HETATM   10  O   UNK N   1      28.656  18.671   6.861  0.00  0.00    -0.348 OA
BRANCH   5  11
HETATM   11  O   UNK N   1      25.453  18.779   5.167  0.00  0.00    -0.390 OA
HETATM   12  H   UNK N   1      24.736  18.171   5.406  0.00  0.00     0.210 HD
ENDBRANCH   5  11
BRANCH   6  13
HETATM   13  O   UNK N   1      26.317  16.536   4.131  0.00  0.00    -0.390 OA
HETATM   14  H   UNK N   1      26.072  15.611   4.296  0.00  0.00     0.210 HD
ENDBRANCH   6  13
BRANCH   8  15
HETATM   15  O   UNK N   1      29.986  16.955   6.197  0.00  0.00    -0.315 OA
BRANCH  15  16
HETATM   16  C   UNK N   1      31.193  17.109   6.788  0.00  0.00     0.105 A 
HETATM   17  C   UNK N   1      32.393  17.188   6.033  0.00  0.00     0.138 A 
HETATM   18  C   UNK N   1      33.586  17.507   6.698  0.00  0.00     0.075 A 
HETATM   19  C   UNK N   1      33.611  17.723   8.083  0.00  0.00     0.105 A 
HETATM   20  C   UNK N   1      32.435  17.560   8.823  0.00  0.00     0.039 A 
HETATM   21  C   UNK N   1      31.240  17.250   8.181  0.00  0.00     0.042 A 
BRANCH  17  22
HETATM   22  N   UNK N   1      32.426  16.961   4.621  0.00  0.00    -0.113 N 
HETATM   23  O   UNK N   1      32.553  17.982   3.798  0.00  0.00    -0.532 OA
HETATM   24  O   UNK N   1      32.449  15.853   4.179  0.00  0.00    -0.532 OA
ENDBRANCH  17  22
BRANCH  19  25
HETATM   25  N   UNK N   1      34.810  18.138   8.723  0.00  0.00    -0.116 N 
HETATM   26  O   UNK N   1      35.340  19.309   8.441  0.00  0.00    -0.532 OA
HETATM   27  O   UNK N   1      35.301  17.464   9.579  0.00  0.00    -0.532 OA
ENDBRANCH  19  25
ENDBRANCH  15  16
ENDBRANCH   8  15
ENDBRANCH   1   4
TORSDOF 7
ENDMDL
MODEL 7
REMARK VINA RESULT:      -6.4      2.608      7.484
REMARK  7 active torsions:
REMARK  status: ('A' for Active; 'I' for Inactive)
REMARK    1  A    between atoms: C_1  and  O_2 
REMARK    2  A    between atoms: O_2  and  C_13 
REMARK    3  A    between atoms: C_5  and  O_6 
REMARK    4  A    between atoms: C_7  and  O_8 
REMARK    5  A    between atoms: C_9  and  C_10 
REMARK    6  A    between atoms: C_14  and  N_15 
REMARK    7  A    between atoms: C_19  and  N_20 
ROOT
HETATM    1  C   UNK N   1      24.829  12.287  10.567  0.00  0.00     0.198 C 
HETATM    2  O   UNK N   1      24.528  12.377  11.926  0.00  0.00    -0.398 OA
HETATM    3  H   UNK N   1      24.223  12.536  12.833  0.00  0.00     0.209 HD
ENDROOT
BRANCH   1   4
HETATM    4  C   UNK N   1      23.591  12.543   9.717  0.00  0.00     0.179 C 
HETATM    5  C   UNK N   1      22.337  12.876  10.577  0.00  0.00     0.180 C 
HETATM    6  C   UNK N   1      21.191  13.441   9.692  0.00  0.00     0.188 C 
HETATM    7  C   UNK N   1      21.430  13.021   8.244  0.00  0.00     0.256 C 
HETATM    8  C   UNK N   1      22.786  13.700   7.804  0.00  0.00     0.303 C 
HETATM    9  F   UNK N   1      20.371  13.351   7.419  0.00  0.00    -0.241 F 
HETATM   10  O   UNK N   1      23.846  13.554   8.760  0.00  0.00    -0.348 OA
BRANCH   5  11
HETATM   11  O   UNK N   1      21.930  11.700  11.217  0.00  0.00    -0.390 OA
HETATM   12  H   UNK N   1      21.153  11.128  11.114  0.00  0.00     0.210 HD
ENDBRANCH   5  11
BRANCH   6  13
HETATM   13  O   UNK N   1      19.939  13.023  10.152  0.00  0.00    -0.390 OA
HETATM   14  H   UNK N   1      19.717  12.089  10.293  0.00  0.00     0.210 HD
ENDBRANCH   6  13
BRANCH   8  15
HETATM   15  O   UNK N   1      22.620  15.071   7.598  0.00  0.00    -0.315 OA
BRANCH  15  16
HETATM   16  C   UNK N   1      22.111  15.570   6.448  0.00  0.00     0.105 A 
HETATM   17  C   UNK N   1      20.975  16.422   6.439  0.00  0.00     0.138 A 
HETATM   18  C   UNK N   1      20.600  17.028   5.231  0.00  0.00     0.075 A 
HETATM   19  C   UNK N   1      21.310  16.789   4.046  0.00  0.00     0.105 A 
HETATM   20  C   UNK N   1      22.375  15.883   4.056  0.00  0.00     0.039 A 
HETATM   21  C   UNK N   1      22.766  15.275   5.246  0.00  0.00     0.042 A 
BRANCH  17  22
HETATM   22  N   UNK N   1      20.207  16.687   7.616  0.00  0.00    -0.113 N 
HETATM   23  O   UNK N   1      19.122  15.981   7.861  0.00  0.00    -0.532 OA
HETATM   24  O   UNK N   1      20.591  17.463   8.436  0.00  0.00    -0.532 OA
ENDBRANCH  17  22
BRANCH  19  25
HETATM   25  N   UNK N   1      20.972  17.486   2.854  0.00  0.00    -0.116 N 
HETATM   26  O   UNK N   1      20.304  16.875   1.898  0.00  0.00    -0.532 OA
HETATM   27  O   UNK N   1      21.219  18.649   2.745  0.00  0.00    -0.532 OA
ENDBRANCH  19  25
ENDBRANCH  15  16
ENDBRANCH   8  15
ENDBRANCH   1   4
TORSDOF 7
ENDMDL
MODEL 8
REMARK VINA RESULT:      -6.4      1.728      2.041
REMARK  7 active torsions:
REMARK  status: ('A' for Active; 'I' for Inactive)
REMARK    1  A    between atoms: C_1  and  O_2 
REMARK    2  A    between atoms: O_2  and  C_13 
REMARK    3  A    between atoms: C_5  and  O_6 
REMARK    4  A    between atoms: C_7  and  O_8 
REMARK    5  A    between atoms: C_9  and  C_10 
REMARK    6  A    between atoms: C_14  and  N_15 
REMARK    7  A    between atoms: C_19  and  N_20 
ROOT
HETATM    1  C   UNK N   1      20.034  15.509   1.677  0.00  0.00     0.198 C 
HETATM    2  O   UNK N   1      20.887  15.753   0.600  0.00  0.00    -0.398 OA
HETATM    3  H   UNK N   1      21.534  16.024  -0.069  0.00  0.00     0.209 HD
ENDROOT
BRANCH   1   4
HETATM    4  C   UNK N   1      20.725  15.821   2.999  0.00  0.00     0.179 C 
HETATM    5  C   UNK N   1      20.405  17.255   3.514  0.00  0.00     0.180 C 
HETATM    6  C   UNK N   1      20.851  17.426   4.993  0.00  0.00     0.188 C 
HETATM    7  C   UNK N   1      21.901  16.368   5.320  0.00  0.00     0.256 C 
HETATM    8  C   UNK N   1      21.184  14.969   5.169  0.00  0.00     0.303 C 
HETATM    9  F   UNK N   1      22.463  16.552   6.569  0.00  0.00    -0.241 F 
HETATM   10  O   UNK N   1      20.409  14.840   3.968  0.00  0.00    -0.348 OA
BRANCH   5  11
HETATM   11  O   UNK N   1      21.075  18.167   2.691  0.00  0.00    -0.390 OA
HETATM   12  H   UNK N   1      21.958  18.565   2.730  0.00  0.00     0.210 HD
ENDBRANCH   5  11
BRANCH   6  13
HETATM   13  O   UNK N   1      21.325  18.718   5.237  0.00  0.00    -0.390 OA
HETATM   14  H   UNK N   1      22.152  18.891   5.715  0.00  0.00     0.210 HD
ENDBRANCH   6  13
BRANCH   8  15
HETATM   15  O   UNK N   1      20.313  14.731   6.234  0.00  0.00    -0.315 OA
BRANCH  15  16
HETATM   16  C   UNK N   1      20.738  14.216   7.411  0.00  0.00     0.105 A 
HETATM   17  C   UNK N   1      20.412  14.819   8.654  0.00  0.00     0.138 A 
HETATM   18  C   UNK N   1      20.750  14.145   9.837  0.00  0.00     0.075 A 
HETATM   19  C   UNK N   1      21.415  12.912   9.806  0.00  0.00     0.105 A 
HETATM   20  C   UNK N   1      21.803  12.373   8.575  0.00  0.00     0.039 A 
HETATM   21  C   UNK N   1      21.472  13.024   7.390  0.00  0.00     0.042 A 
BRANCH  17  22
HETATM   22  N   UNK N   1      19.747  16.082   8.742  0.00  0.00    -0.113 N 
HETATM   23  O   UNK N   1      20.453  17.195   8.738  0.00  0.00    -0.532 OA
HETATM   24  O   UNK N   1      18.556  16.152   8.709  0.00  0.00    -0.532 OA
ENDBRANCH  17  22
BRANCH  19  25
HETATM   25  N   UNK N   1      21.664  12.200  11.011  0.00  0.00    -0.116 N 
HETATM   26  O   UNK N   1      20.686  11.984  11.865  0.00  0.00    -0.532 OA
HETATM   27  O   UNK N   1      22.740  11.724  11.219  0.00  0.00    -0.532 OA
ENDBRANCH  19  25
ENDBRANCH  15  16
ENDBRANCH   8  15
ENDBRANCH   1   4
TORSDOF 7
ENDMDL
MODEL 9
REMARK VINA RESULT:      -6.3     11.291     13.265
REMARK  7 active torsions:
REMARK  status: ('A' for Active; 'I' for Inactive)
REMARK    1  A    between atoms: C_1  and  O_2 
REMARK    2  A    between atoms: O_2  and  C_13 
REMARK    3  A    between atoms: C_5  and  O_6 
REMARK    4  A    between atoms: C_7  and  O_8 
REMARK    5  A    between atoms: C_9  and  C_10 
REMARK    6  A    between atoms: C_14  and  N_15 
REMARK    7  A    between atoms: C_19  and  N_20 
ROOT
HETATM    1  C   UNK N   1      34.550  14.331  10.665  0.00  0.00     0.198 C 
HETATM    2  O   UNK N   1      34.577  14.481  12.051  0.00  0.00    -0.398 OA
HETATM    3  H   UNK N   1      34.616  14.722  12.990  0.00  0.00     0.209 HD
ENDROOT
BRANCH   1   4
HETATM    4  C   UNK N   1      33.981  15.574   9.993  0.00  0.00     0.179 C 
HETATM    5  C   UNK N   1      35.094  16.524   9.460  0.00  0.00     0.180 C 
HETATM    6  C   UNK N   1      34.496  17.601   8.513  0.00  0.00     0.188 C 
HETATM    7  C   UNK N   1      33.002  17.735   8.793  0.00  0.00     0.256 C 
HETATM    8  C   UNK N   1      32.357  16.338   8.436  0.00  0.00     0.303 C 
HETATM    9  F   UNK N   1      32.428  18.784   8.101  0.00  0.00    -0.241 F 
HETATM   10  O   UNK N   1      33.073  15.215   8.970  0.00  0.00    -0.348 OA
BRANCH   5  11
HETATM   11  O   UNK N   1      35.709  17.127  10.563  0.00  0.00    -0.390 OA
HETATM   12  H   UNK N   1      35.365  17.481  11.397  0.00  0.00     0.210 HD
ENDBRANCH   5  11
BRANCH   6  13
HETATM   13  O   UNK N   1      35.159  18.824   8.648  0.00  0.00    -0.390 OA
HETATM   14  H   UNK N   1      36.009  18.911   9.108  0.00  0.00     0.210 HD
ENDBRANCH   6  13
BRANCH   8  15
HETATM   15  O   UNK N   1      32.292  16.151   7.054  0.00  0.00    -0.315 OA
BRANCH  15  16
HETATM   16  C   UNK N   1      31.267  16.626   6.310  0.00  0.00     0.105 A 
HETATM   17  C   UNK N   1      31.466  17.148   5.005  0.00  0.00     0.138 A 
HETATM   18  C   UNK N   1      30.341  17.473   4.232  0.00  0.00     0.075 A 
HETATM   19  C   UNK N   1      29.043  17.312   4.735  0.00  0.00     0.105 A 
HETATM   20  C   UNK N   1      28.867  16.874   6.052  0.00  0.00     0.039 A 
HETATM   21  C   UNK N   1      29.970  16.541   6.832  0.00  0.00     0.042 A 
BRANCH  17  22
HETATM   22  N   UNK N   1      32.769  17.347   4.451  0.00  0.00    -0.113 N 
HETATM   23  O   UNK N   1      33.668  18.036   5.124  0.00  0.00    -0.532 OA
HETATM   24  O   UNK N   1      33.093  16.807   3.437  0.00  0.00    -0.532 OA
ENDBRANCH  17  22
BRANCH  19  25
HETATM   25  N   UNK N   1      27.916  17.557   3.904  0.00  0.00    -0.116 N 
HETATM   26  O   UNK N   1      27.402  16.584   3.182  0.00  0.00    -0.532 OA
HETATM   27  O   UNK N   1      27.380  18.624   3.916  0.00  0.00    -0.532 OA
ENDBRANCH  19  25
ENDBRANCH  15  16
ENDBRANCH   8  15
ENDBRANCH   1   4
TORSDOF 7
ENDMDL
