MODEL 1
REMARK VINA RESULT:      -7.7      0.000      0.000
REMARK  6 active torsions:
REMARK  status: ('A' for Active; 'I' for Inactive)
REMARK    1  A    between atoms: C_7  and  C_8 
REMARK    2  A    between atoms: C_12  and  S_13 
REMARK    3  A    between atoms: S_13  and  N_16 
REMARK    4  A    between atoms: N_16  and  C_18 
REMARK    5  A    between atoms: C_23  and  C_24 
REMARK       I    between atoms: C_24  and  N_26 
REMARK    6  A    between atoms: N_26  and  O_27 
ROOT
HETATM    1  S   UNK N   1      26.449  25.136  -7.429  0.00  0.00     0.271 S 
HETATM    2  O   UNK N   1      27.757  25.263  -8.225  0.00  0.00    -0.199 OA
HETATM    3  O   UNK N   1      25.443  24.782  -8.535  0.00  0.00    -0.199 OA
ENDROOT
BRANCH   1   4
HETATM    4  C   UNK N   1      25.987  26.635  -6.618  0.00  0.00     0.121 A 
HETATM    5  S   UNK N   1      27.154  27.689  -6.241  0.00  0.00    -0.074 SA
HETATM    6  C   UNK N   1      26.508  28.339  -4.888  0.00  0.00     0.033 A 
HETATM    7  C   UNK N   1      25.242  27.769  -4.699  0.00  0.00     0.023 A 
HETATM    8  C   UNK N   1      24.954  26.776  -5.681  0.00  0.00     0.034 A 
BRANCH   6   9
HETATM    9  C   UNK N   1      27.400  28.700  -3.796  0.00  0.00     0.049 A 
HETATM   10  C   UNK N   1      28.705  28.213  -3.722  0.00  0.00     0.031 A 
HETATM   11  C   UNK N   1      29.596  28.809  -2.825  0.00  0.00     0.004 A 
HETATM   12  C   UNK N   1      29.194  29.909  -2.062  0.00  0.00     0.017 A 
HETATM   13  C   UNK N   1      27.887  30.372  -2.172  0.00  0.00     0.088 A 
HETATM   14  N   UNK N   1      27.031  29.763  -3.024  0.00  0.00    -0.365 N 
ATOM     15  HN  UNK N   1      26.075  30.110  -3.091  1.00  0.00     0.165 HD
ENDBRANCH   6   9
ENDBRANCH   1   4
BRANCH   1  16
HETATM   16  N   UNK N   1      26.630  23.690  -6.464  0.00  0.00    -0.276 N 
HETATM   17  C   UNK N   1      26.013  22.470  -6.924  0.00  0.00     0.170 C 
BRANCH  16  18
HETATM   18  C   UNK N   1      27.758  23.661  -5.615  0.00  0.00     0.044 A 
HETATM   19  C   UNK N   1      27.754  24.353  -4.398  0.00  0.00     0.031 A 
HETATM   20  C   UNK N   1      28.731  24.068  -3.441  0.00  0.00     0.019 A 
HETATM   21  C   UNK N   1      29.721  23.111  -3.707  0.00  0.00     0.034 A 
HETATM   22  C   UNK N   1      29.769  22.491  -4.958  0.00  0.00     0.019 A 
HETATM   23  C   UNK N   1      28.789  22.756  -5.893  0.00  0.00     0.031 A 
BRANCH  21  24
HETATM   24  C   UNK N   1      30.647  22.658  -2.665  0.00  0.00     0.275 C 
HETATM   25  O   UNK N   1      30.461  22.987  -1.494  0.00  0.00    -0.265 OA
HETATM   26  N   UNK N   1      31.658  21.818  -2.976  0.00  0.00    -0.233 N 
HETATM   27  H   UNK N   1      31.796  21.559  -3.914  0.00  0.00     0.197 HD
BRANCH  26  28
HETATM   28  O   UNK N   1      32.474  21.331  -2.036  0.00  0.00    -0.287 OA
HETATM   29  H   UNK N   1      33.426  21.517  -2.068  0.00  0.00     0.244 HD
ENDBRANCH  26  28
ENDBRANCH  21  24
ENDBRANCH  16  18
ENDBRANCH   1  16
TORSDOF 6
ENDMDL
MODEL 2
REMARK VINA RESULT:      -7.5     11.499     13.695
REMARK  6 active torsions:
REMARK  status: ('A' for Active; 'I' for Inactive)
REMARK    1  A    between atoms: C_7  and  C_8 
REMARK    2  A    between atoms: C_12  and  S_13 
REMARK    3  A    between atoms: S_13  and  N_16 
REMARK    4  A    between atoms: N_16  and  C_18 
REMARK    5  A    between atoms: C_23  and  C_24 
REMARK       I    between atoms: C_24  and  N_26 
REMARK    6  A    between atoms: N_26  and  O_27 
ROOT
HETATM    1  S   UNK N   1      29.155  16.635   4.322  0.00  0.00     0.271 S 
HETATM    2  O   UNK N   1      29.980  16.850   3.045  0.00  0.00    -0.199 OA
HETATM    3  O   UNK N   1      28.128  15.590   3.860  0.00  0.00    -0.199 OA
ENDROOT
BRANCH   1   4
HETATM    4  C   UNK N   1      28.348  18.105   4.877  0.00  0.00     0.121 A 
HETATM    5  S   UNK N   1      26.863  17.970   5.501  0.00  0.00    -0.074 SA
HETATM    6  C   UNK N   1      26.245  19.414   5.049  0.00  0.00     0.033 A 
HETATM    7  C   UNK N   1      27.261  20.134   4.408  0.00  0.00     0.023 A 
HETATM    8  C   UNK N   1      28.461  19.373   4.291  0.00  0.00     0.034 A 
BRANCH   6   9
HETATM    9  C   UNK N   1      24.843  19.480   4.664  0.00  0.00     0.049 A 
HETATM   10  C   UNK N   1      24.416  20.241   3.575  0.00  0.00     0.031 A 
HETATM   11  C   UNK N   1      23.123  20.043   3.083  0.00  0.00     0.004 A 
HETATM   12  C   UNK N   1      22.302  19.059   3.640  0.00  0.00     0.017 A 
HETATM   13  C   UNK N   1      22.768  18.313   4.716  0.00  0.00     0.088 A 
HETATM   14  N   UNK N   1      24.011  18.540   5.200  0.00  0.00    -0.365 N 
ATOM     15  HN  UNK N   1      24.338  17.989   5.992  1.00  0.00     0.165 HD
ENDBRANCH   6   9
ENDBRANCH   1   4
BRANCH   1  16
HETATM   16  N   UNK N   1      30.221  15.802   5.430  0.00  0.00    -0.276 N 
HETATM   17  C   UNK N   1      30.483  14.400   5.216  0.00  0.00     0.170 C 
BRANCH  16  18
HETATM   18  C   UNK N   1      31.146  16.620   6.116  0.00  0.00     0.044 A 
HETATM   19  C   UNK N   1      30.890  17.044   7.426  0.00  0.00     0.031 A 
HETATM   20  C   UNK N   1      31.929  17.578   8.191  0.00  0.00     0.019 A 
HETATM   21  C   UNK N   1      33.215  17.707   7.644  0.00  0.00     0.034 A 
HETATM   22  C   UNK N   1      33.438  17.364   6.308  0.00  0.00     0.019 A 
HETATM   23  C   UNK N   1      32.416  16.814   5.561  0.00  0.00     0.031 A 
BRANCH  21  24
HETATM   24  C   UNK N   1      34.363  18.090   8.470  0.00  0.00     0.275 C 
HETATM   25  O   UNK N   1      34.939  19.157   8.265  0.00  0.00    -0.265 OA
HETATM   26  N   UNK N   1      34.742  17.310   9.506  0.00  0.00    -0.233 N 
HETATM   27  H   UNK N   1      34.274  16.459   9.664  0.00  0.00     0.197 HD
BRANCH  26  28
HETATM   28  O   UNK N   1      35.739  17.669  10.321  0.00  0.00    -0.287 OA
HETATM   29  H   UNK N   1      35.840  18.594  10.594  0.00  0.00     0.244 HD
ENDBRANCH  26  28
ENDBRANCH  21  24
ENDBRANCH  16  18
ENDBRANCH   1  16
TORSDOF 6
ENDMDL
MODEL 3
REMARK VINA RESULT:      -7.1     15.278     17.255
REMARK  6 active torsions:
REMARK  status: ('A' for Active; 'I' for Inactive)
REMARK    1  A    between atoms: C_7  and  C_8 
REMARK    2  A    between atoms: C_12  and  S_13 
REMARK    3  A    between atoms: S_13  and  N_16 
REMARK    4  A    between atoms: N_16  and  C_18 
REMARK    5  A    between atoms: C_23  and  C_24 
REMARK       I    between atoms: C_24  and  N_26 
REMARK    6  A    between atoms: N_26  and  O_27 
ROOT
HETATM    1  S   UNK N   1      19.783  14.493   4.967  0.00  0.00     0.271 S 
HETATM    2  O   UNK N   1      18.416  15.167   4.776  0.00  0.00    -0.199 OA
HETATM    3  O   UNK N   1      19.387  13.015   5.111  0.00  0.00    -0.199 OA
ENDROOT
BRANCH   1   4
HETATM    4  C   UNK N   1      20.633  15.057   6.409  0.00  0.00     0.121 A 
HETATM    5  S   UNK N   1      21.846  14.155   6.981  0.00  0.00    -0.074 SA
HETATM    6  C   UNK N   1      21.709  14.492   8.574  0.00  0.00     0.033 A 
HETATM    7  C   UNK N   1      20.685  15.436   8.727  0.00  0.00     0.023 A 
HETATM    8  C   UNK N   1      20.054  15.743   7.486  0.00  0.00     0.034 A 
BRANCH   6   9
HETATM    9  C   UNK N   1      21.979  13.432   9.534  0.00  0.00     0.049 A 
HETATM   10  C   UNK N   1      23.279  13.091   9.907  0.00  0.00     0.031 A 
HETATM   11  C   UNK N   1      23.466  12.278  11.028  0.00  0.00     0.004 A 
HETATM   12  C   UNK N   1      22.368  11.864  11.787  0.00  0.00     0.017 A 
HETATM   13  C   UNK N   1      21.088  12.233  11.389  0.00  0.00     0.088 A 
HETATM   14  N   UNK N   1      20.925  12.996  10.283  0.00  0.00    -0.365 N 
ATOM     15  HN  UNK N   1      19.980  13.255  10.001  1.00  0.00     0.165 HD
ENDBRANCH   6   9
ENDBRANCH   1   4
BRANCH   1  16
HETATM   16  N   UNK N   1      20.588  14.625   3.421  0.00  0.00    -0.276 N 
HETATM   17  C   UNK N   1      20.494  13.523   2.496  0.00  0.00     0.170 C 
BRANCH  16  18
HETATM   18  C   UNK N   1      20.819  15.942   2.966  0.00  0.00     0.044 A 
HETATM   19  C   UNK N   1      20.178  16.424   1.818  0.00  0.00     0.031 A 
HETATM   20  C   UNK N   1      20.170  17.797   1.560  0.00  0.00     0.019 A 
HETATM   21  C   UNK N   1      20.816  18.684   2.435  0.00  0.00     0.034 A 
HETATM   22  C   UNK N   1      21.528  18.184   3.528  0.00  0.00     0.019 A 
HETATM   23  C   UNK N   1      21.515  16.829   3.795  0.00  0.00     0.031 A 
BRANCH  21  24
HETATM   24  C   UNK N   1      20.674  20.135   2.296  0.00  0.00     0.275 C 
HETATM   25  O   UNK N   1      20.785  20.861   3.283  0.00  0.00    -0.265 OA
HETATM   26  N   UNK N   1      20.497  20.684   1.074  0.00  0.00    -0.233 N 
HETATM   27  H   UNK N   1      20.411  20.095   0.291  0.00  0.00     0.197 HD
BRANCH  26  28
HETATM   28  O   UNK N   1      20.435  22.008   0.907  0.00  0.00    -0.287 OA
HETATM   29  H   UNK N   1      20.846  22.426   0.133  0.00  0.00     0.244 HD
ENDBRANCH  26  28
ENDBRANCH  21  24
ENDBRANCH  16  18
ENDBRANCH   1  16
TORSDOF 6
ENDMDL
MODEL 4
REMARK VINA RESULT:      -7.1     12.064     14.277
REMARK  6 active torsions:
REMARK  status: ('A' for Active; 'I' for Inactive)
REMARK    1  A    between atoms: C_7  and  C_8 
REMARK    2  A    between atoms: C_12  and  S_13 
REMARK    3  A    between atoms: S_13  and  N_16 
REMARK    4  A    between atoms: N_16  and  C_18 
REMARK    5  A    between atoms: C_23  and  C_24 
REMARK       I    between atoms: C_24  and  N_26 
REMARK    6  A    between atoms: N_26  and  O_27 
ROOT
HETATM    1  S   UNK N   1      22.284  14.892   6.162  0.00  0.00     0.271 S 
HETATM    2  O   UNK N   1      22.578  14.669   7.653  0.00  0.00    -0.199 OA
HETATM    3  O   UNK N   1      21.370  13.698   5.841  0.00  0.00    -0.199 OA
ENDROOT
BRANCH   1   4
HETATM    4  C   UNK N   1      23.738  14.855   5.160  0.00  0.00     0.121 A 
HETATM    5  S   UNK N   1      25.047  15.644   5.687  0.00  0.00    -0.074 SA
HETATM    6  C   UNK N   1      25.700  16.078   4.253  0.00  0.00     0.033 A 
HETATM    7  C   UNK N   1      24.905  15.532   3.236  0.00  0.00     0.023 A 
HETATM    8  C   UNK N   1      23.767  14.849   3.758  0.00  0.00     0.034 A 
BRANCH   6   9
HETATM    9  C   UNK N   1      26.361  17.371   4.153  0.00  0.00     0.049 A 
HETATM   10  C   UNK N   1      25.782  18.442   3.472  0.00  0.00     0.031 A 
HETATM   11  C   UNK N   1      26.317  19.720   3.650  0.00  0.00     0.004 A 
HETATM   12  C   UNK N   1      27.376  19.921   4.539  0.00  0.00     0.017 A 
HETATM   13  C   UNK N   1      27.919  18.830   5.208  0.00  0.00     0.088 A 
HETATM   14  N   UNK N   1      27.408  17.595   5.000  0.00  0.00    -0.365 N 
ATOM     15  HN  UNK N   1      27.818  16.803   5.493  1.00  0.00     0.165 HD
ENDBRANCH   6   9
ENDBRANCH   1   4
BRANCH   1  16
HETATM   16  N   UNK N   1      21.262  16.308   6.095  0.00  0.00    -0.276 N 
HETATM   17  C   UNK N   1      20.767  16.864   7.330  0.00  0.00     0.170 C 
BRANCH  16  18
HETATM   18  C   UNK N   1      21.408  17.110   4.941  0.00  0.00     0.044 A 
HETATM   19  C   UNK N   1      20.511  16.996   3.873  0.00  0.00     0.031 A 
HETATM   20  C   UNK N   1      20.477  17.991   2.893  0.00  0.00     0.019 A 
HETATM   21  C   UNK N   1      21.349  19.087   2.969  0.00  0.00     0.034 A 
HETATM   22  C   UNK N   1      22.301  19.146   3.991  0.00  0.00     0.019 A 
HETATM   23  C   UNK N   1      22.317  18.174   4.971  0.00  0.00     0.031 A 
BRANCH  21  24
HETATM   24  C   UNK N   1      21.218  20.234   2.066  0.00  0.00     0.275 C 
HETATM   25  O   UNK N   1      21.618  21.342   2.419  0.00  0.00    -0.265 OA
HETATM   26  N   UNK N   1      20.728  20.060   0.819  0.00  0.00    -0.233 N 
HETATM   27  H   UNK N   1      20.413  19.170   0.546  0.00  0.00     0.197 HD
BRANCH  26  28
HETATM   28  O   UNK N   1      20.663  21.073  -0.051  0.00  0.00    -0.287 OA
HETATM   29  H   UNK N   1      20.178  21.883   0.174  0.00  0.00     0.244 HD
ENDBRANCH  26  28
ENDBRANCH  21  24
ENDBRANCH  16  18
ENDBRANCH   1  16
TORSDOF 6
ENDMDL
MODEL 5
REMARK VINA RESULT:      -7.1     15.570     17.483
REMARK  6 active torsions:
REMARK  status: ('A' for Active; 'I' for Inactive)
REMARK    1  A    between atoms: C_7  and  C_8 
REMARK    2  A    between atoms: C_12  and  S_13 
REMARK    3  A    between atoms: S_13  and  N_16 
REMARK    4  A    between atoms: N_16  and  C_18 
REMARK    5  A    between atoms: C_23  and  C_24 
REMARK       I    between atoms: C_24  and  N_26 
REMARK    6  A    between atoms: N_26  and  O_27 
ROOT
HETATM    1  S   UNK N   1      19.544  15.561   5.861  0.00  0.00     0.271 S 
HETATM    2  O   UNK N   1      19.390  14.033   5.827  0.00  0.00    -0.199 OA
HETATM    3  O   UNK N   1      18.079  16.024   5.859  0.00  0.00    -0.199 OA
ENDROOT
BRANCH   1   4
HETATM    4  C   UNK N   1      20.404  16.198   4.456  0.00  0.00     0.121 A 
HETATM    5  S   UNK N   1      20.089  15.548   3.010  0.00  0.00    -0.074 SA
HETATM    6  C   UNK N   1      21.550  15.735   2.302  0.00  0.00     0.033 A 
HETATM    7  C   UNK N   1      22.380  16.416   3.202  0.00  0.00     0.023 A 
HETATM    8  C   UNK N   1      21.727  16.662   4.446  0.00  0.00     0.034 A 
BRANCH   6   9
HETATM    9  C   UNK N   1      22.023  14.696   1.399  0.00  0.00     0.049 A 
HETATM   10  C   UNK N   1      23.379  14.533   1.111  0.00  0.00     0.031 A 
HETATM   11  C   UNK N   1      23.795  13.360   0.476  0.00  0.00     0.004 A 
HETATM   12  C   UNK N   1      22.872  12.351   0.189  0.00  0.00     0.017 A 
HETATM   13  C   UNK N   1      21.531  12.546   0.501  0.00  0.00     0.088 A 
HETATM   14  N   UNK N   1      21.142  13.701   1.088  0.00  0.00    -0.365 N 
ATOM     15  HN  UNK N   1      20.155  13.832   1.307  1.00  0.00     0.165 HD
ENDBRANCH   6   9
ENDBRANCH   1   4
BRANCH   1  16
HETATM   16  N   UNK N   1      20.163  15.931   7.453  0.00  0.00    -0.276 N 
HETATM   17  C   UNK N   1      19.550  17.001   8.202  0.00  0.00     0.170 C 
BRANCH  16  18
HETATM   18  C   UNK N   1      20.832  14.874   8.108  0.00  0.00     0.044 A 
HETATM   19  C   UNK N   1      22.114  14.482   7.705  0.00  0.00     0.031 A 
HETATM   20  C   UNK N   1      22.879  13.665   8.541  0.00  0.00     0.019 A 
HETATM   21  C   UNK N   1      22.357  13.224   9.767  0.00  0.00     0.034 A 
HETATM   22  C   UNK N   1      21.044  13.548  10.118  0.00  0.00     0.019 A 
HETATM   23  C   UNK N   1      20.299  14.375   9.302  0.00  0.00     0.031 A 
BRANCH  21  24
HETATM   24  C   UNK N   1      23.192  12.522  10.745  0.00  0.00     0.275 C 
HETATM   25  O   UNK N   1      22.678  11.733  11.537  0.00  0.00    -0.265 OA
HETATM   26  N   UNK N   1      24.533  12.681  10.729  0.00  0.00    -0.233 N 
HETATM   27  H   UNK N   1      24.934  13.313  10.091  0.00  0.00     0.197 HD
BRANCH  26  28
HETATM   28  O   UNK N   1      25.326  12.000  11.561  0.00  0.00    -0.287 OA
HETATM   29  H   UNK N   1      26.086  11.502  11.219  0.00  0.00     0.244 HD
ENDBRANCH  26  28
ENDBRANCH  21  24
ENDBRANCH  16  18
ENDBRANCH   1  16
TORSDOF 6
ENDMDL
MODEL 6
REMARK VINA RESULT:      -7.0     15.529     19.432
REMARK  6 active torsions:
REMARK  status: ('A' for Active; 'I' for Inactive)
REMARK    1  A    between atoms: C_7  and  C_8 
REMARK    2  A    between atoms: C_12  and  S_13 
REMARK    3  A    between atoms: S_13  and  N_16 
REMARK    4  A    between atoms: N_16  and  C_18 
REMARK    5  A    between atoms: C_23  and  C_24 
REMARK       I    between atoms: C_24  and  N_26 
REMARK    6  A    between atoms: N_26  and  O_27 
ROOT
HETATM    1  S   UNK N   1      33.306  15.548   8.955  0.00  0.00     0.271 S 
HETATM    2  O   UNK N   1      32.033  14.924   9.546  0.00  0.00    -0.199 OA
HETATM    3  O   UNK N   1      33.460  14.764   7.642  0.00  0.00    -0.199 OA
ENDROOT
BRANCH   1   4
HETATM    4  C   UNK N   1      34.723  15.328   9.986  0.00  0.00     0.121 A 
HETATM    5  S   UNK N   1      35.058  13.838  10.515  0.00  0.00    -0.074 SA
HETATM    6  C   UNK N   1      35.741  14.206  11.953  0.00  0.00     0.033 A 
HETATM    7  C   UNK N   1      35.800  15.602  12.056  0.00  0.00     0.023 A 
HETATM    8  C   UNK N   1      35.196  16.244  10.936  0.00  0.00     0.034 A 
BRANCH   6   9
HETATM    9  C   UNK N   1      35.497  13.323  13.084  0.00  0.00     0.049 A 
HETATM   10  C   UNK N   1      35.823  13.694  14.389  0.00  0.00     0.031 A 
HETATM   11  C   UNK N   1      35.312  12.942  15.450  0.00  0.00     0.004 A 
HETATM   12  C   UNK N   1      34.446  11.873  15.200  0.00  0.00     0.017 A 
HETATM   13  C   UNK N   1      34.137  11.541  13.886  0.00  0.00     0.088 A 
HETATM   14  N   UNK N   1      34.666  12.262  12.871  0.00  0.00    -0.365 N 
ATOM     15  HN  UNK N   1      34.434  12.005  11.912  1.00  0.00     0.165 HD
ENDBRANCH   6   9
ENDBRANCH   1   4
BRANCH   1  16
HETATM   16  N   UNK N   1      32.857  17.173   8.493  0.00  0.00    -0.276 N 
HETATM   17  C   UNK N   1      33.865  18.036   7.927  0.00  0.00     0.170 C 
BRANCH  16  18
HETATM   18  C   UNK N   1      31.487  17.369   8.210  0.00  0.00     0.044 A 
HETATM   19  C   UNK N   1      30.683  18.132   9.065  0.00  0.00     0.031 A 
HETATM   20  C   UNK N   1      29.434  18.573   8.623  0.00  0.00     0.019 A 
HETATM   21  C   UNK N   1      28.980  18.237   7.338  0.00  0.00     0.034 A 
HETATM   22  C   UNK N   1      29.752  17.401   6.527  0.00  0.00     0.019 A 
HETATM   23  C   UNK N   1      30.997  16.986   6.956  0.00  0.00     0.031 A 
BRANCH  21  24
HETATM   24  C   UNK N   1      27.763  18.830   6.777  0.00  0.00     0.275 C 
HETATM   25  O   UNK N   1      27.173  18.265   5.857  0.00  0.00    -0.265 OA
HETATM   26  N   UNK N   1      27.246  19.954   7.319  0.00  0.00    -0.233 N 
HETATM   27  H   UNK N   1      27.725  20.396   8.055  0.00  0.00     0.197 HD
BRANCH  26  28
HETATM   28  O   UNK N   1      26.100  20.478   6.875  0.00  0.00    -0.287 OA
HETATM   29  H   UNK N   1      25.406  19.905   6.512  0.00  0.00     0.244 HD
ENDBRANCH  26  28
ENDBRANCH  21  24
ENDBRANCH  16  18
ENDBRANCH   1  16
TORSDOF 6
ENDMDL
MODEL 7
REMARK VINA RESULT:      -7.0     11.638     15.115
REMARK  6 active torsions:
REMARK  status: ('A' for Active; 'I' for Inactive)
REMARK    1  A    between atoms: C_7  and  C_8 
REMARK    2  A    between atoms: C_12  and  S_13 
REMARK    3  A    between atoms: S_13  and  N_16 
REMARK    4  A    between atoms: N_16  and  C_18 
REMARK    5  A    between atoms: C_23  and  C_24 
REMARK       I    between atoms: C_24  and  N_26 
REMARK    6  A    between atoms: N_26  and  O_27 
ROOT
HETATM    1  S   UNK N   1      29.330  16.204   5.750  0.00  0.00     0.271 S 
HETATM    2  O   UNK N   1      28.012  15.897   6.477  0.00  0.00    -0.199 OA
HETATM    3  O   UNK N   1      29.907  14.795   5.541  0.00  0.00    -0.199 OA
ENDROOT
BRANCH   1   4
HETATM    4  C   UNK N   1      30.432  17.196   6.709  0.00  0.00     0.121 A 
HETATM    5  S   UNK N   1      32.009  16.844   6.666  0.00  0.00    -0.074 SA
HETATM    6  C   UNK N   1      32.433  17.302   8.177  0.00  0.00     0.033 A 
HETATM    7  C   UNK N   1      31.299  17.845   8.795  0.00  0.00     0.023 A 
HETATM    8  C   UNK N   1      30.146  17.764   7.959  0.00  0.00     0.034 A 
BRANCH   6   9
HETATM    9  C   UNK N   1      33.440  16.524   8.882  0.00  0.00     0.049 A 
HETATM   10  C   UNK N   1      33.839  15.263   8.438  0.00  0.00     0.031 A 
HETATM   11  C   UNK N   1      34.995  14.694   8.978  0.00  0.00     0.004 A 
HETATM   12  C   UNK N   1      35.763  15.406   9.904  0.00  0.00     0.017 A 
HETATM   13  C   UNK N   1      35.338  16.666  10.314  0.00  0.00     0.088 A 
HETATM   14  N   UNK N   1      34.199  17.187   9.802  0.00  0.00    -0.365 N 
ATOM     15  HN  UNK N   1      33.897  18.109  10.115  1.00  0.00     0.165 HD
ENDBRANCH   6   9
ENDBRANCH   1   4
BRANCH   1  16
HETATM   16  N   UNK N   1      28.866  16.772   4.164  0.00  0.00    -0.276 N 
HETATM   17  C   UNK N   1      29.230  15.985   3.012  0.00  0.00     0.170 C 
BRANCH  16  18
HETATM   18  C   UNK N   1      27.753  17.641   4.130  0.00  0.00     0.044 A 
HETATM   19  C   UNK N   1      27.900  19.004   4.415  0.00  0.00     0.031 A 
HETATM   20  C   UNK N   1      26.877  19.892   4.079  0.00  0.00     0.019 A 
HETATM   21  C   UNK N   1      25.700  19.419   3.478  0.00  0.00     0.034 A 
HETATM   22  C   UNK N   1      25.526  18.047   3.280  0.00  0.00     0.019 A 
HETATM   23  C   UNK N   1      26.549  17.173   3.591  0.00  0.00     0.031 A 
BRANCH  21  24
HETATM   24  C   UNK N   1      24.688  20.337   2.949  0.00  0.00     0.275 C 
HETATM   25  O   UNK N   1      25.006  21.189   2.121  0.00  0.00    -0.265 OA
HETATM   26  N   UNK N   1      23.394  20.201   3.311  0.00  0.00    -0.233 N 
HETATM   27  H   UNK N   1      23.150  19.515   3.973  0.00  0.00     0.197 HD
BRANCH  26  28
HETATM   28  O   UNK N   1      22.439  20.977   2.791  0.00  0.00    -0.287 OA
HETATM   29  H   UNK N   1      22.025  20.745   1.945  0.00  0.00     0.244 HD
ENDBRANCH  26  28
ENDBRANCH  21  24
ENDBRANCH  16  18
ENDBRANCH   1  16
TORSDOF 6
ENDMDL
MODEL 8
REMARK VINA RESULT:      -7.0     19.465     23.367
REMARK  6 active torsions:
REMARK  status: ('A' for Active; 'I' for Inactive)
REMARK    1  A    between atoms: C_7  and  C_8 
REMARK    2  A    between atoms: C_12  and  S_13 
REMARK    3  A    between atoms: S_13  and  N_16 
REMARK    4  A    between atoms: N_16  and  C_18 
REMARK    5  A    between atoms: C_23  and  C_24 
REMARK       I    between atoms: C_24  and  N_26 
REMARK    6  A    between atoms: N_26  and  O_27 
ROOT
HETATM    1  S   UNK N   1      36.679  11.854  12.062  0.00  0.00     0.271 S 
HETATM    2  O   UNK N   1      36.365  10.759  11.032  0.00  0.00    -0.199 OA
HETATM    3  O   UNK N   1      37.915  11.276  12.768  0.00  0.00    -0.199 OA
ENDROOT
BRANCH   1   4
HETATM    4  C   UNK N   1      35.365  12.116  13.212  0.00  0.00     0.121 A 
HETATM    5  S   UNK N   1      35.647  13.064  14.490  0.00  0.00    -0.074 SA
HETATM    6  C   UNK N   1      34.657  12.356  15.580  0.00  0.00     0.033 A 
HETATM    7  C   UNK N   1      33.971  11.322  14.929  0.00  0.00     0.023 A 
HETATM    8  C   UNK N   1      34.394  11.172  13.576  0.00  0.00     0.034 A 
BRANCH   6   9
HETATM    9  C   UNK N   1      35.087  12.289  16.969  0.00  0.00     0.049 A 
HETATM   10  C   UNK N   1      35.031  13.400  17.810  0.00  0.00     0.031 A 
HETATM   11  C   UNK N   1      35.181  13.211  19.186  0.00  0.00     0.004 A 
HETATM   12  C   UNK N   1      35.329  11.922  19.706  0.00  0.00     0.017 A 
HETATM   13  C   UNK N   1      35.369  10.838  18.836  0.00  0.00     0.088 A 
HETATM   14  N   UNK N   1      35.252  11.044  17.504  0.00  0.00    -0.365 N 
ATOM     15  HN  UNK N   1      35.287  10.241  16.877  1.00  0.00     0.165 HD
ENDBRANCH   6   9
ENDBRANCH   1   4
BRANCH   1  16
HETATM   16  N   UNK N   1      37.253  13.218  11.131  0.00  0.00    -0.276 N 
HETATM   17  C   UNK N   1      38.436  13.054  10.321  0.00  0.00     0.170 C 
BRANCH  16  18
HETATM   18  C   UNK N   1      36.281  14.191  10.812  0.00  0.00     0.044 A 
HETATM   19  C   UNK N   1      36.274  15.433  11.457  0.00  0.00     0.031 A 
HETATM   20  C   UNK N   1      35.521  16.481  10.924  0.00  0.00     0.019 A 
HETATM   21  C   UNK N   1      34.761  16.285   9.761  0.00  0.00     0.034 A 
HETATM   22  C   UNK N   1      34.704  15.017   9.175  0.00  0.00     0.019 A 
HETATM   23  C   UNK N   1      35.468  13.989   9.690  0.00  0.00     0.031 A 
BRANCH  21  24
HETATM   24  C   UNK N   1      34.108  17.403   9.075  0.00  0.00     0.275 C 
HETATM   25  O   UNK N   1      34.780  18.349   8.666  0.00  0.00    -0.265 OA
HETATM   26  N   UNK N   1      32.782  17.362   8.823  0.00  0.00    -0.233 N 
HETATM   27  H   UNK N   1      32.254  16.600   9.152  0.00  0.00     0.197 HD
BRANCH  26  28
HETATM   28  O   UNK N   1      32.172  18.333   8.137  0.00  0.00    -0.287 OA
HETATM   29  H   UNK N   1      31.208  18.435   8.182  0.00  0.00     0.244 HD
ENDBRANCH  26  28
ENDBRANCH  21  24
ENDBRANCH  16  18
ENDBRANCH   1  16
TORSDOF 6
ENDMDL
MODEL 9
REMARK VINA RESULT:      -6.9     15.185     16.690
REMARK  6 active torsions:
REMARK  status: ('A' for Active; 'I' for Inactive)
REMARK    1  A    between atoms: C_7  and  C_8 
REMARK    2  A    between atoms: C_12  and  S_13 
REMARK    3  A    between atoms: S_13  and  N_16 
REMARK    4  A    between atoms: N_16  and  C_18 
REMARK    5  A    between atoms: C_23  and  C_24 
REMARK       I    between atoms: C_24  and  N_26 
REMARK    6  A    between atoms: N_26  and  O_27 
ROOT
HETATM    1  S   UNK N   1      19.553  15.585   5.854  0.00  0.00     0.271 S 
HETATM    2  O   UNK N   1      19.470  14.052   5.787  0.00  0.00    -0.199 OA
HETATM    3  O   UNK N   1      18.067  15.979   5.843  0.00  0.00    -0.199 OA
ENDROOT
BRANCH   1   4
HETATM    4  C   UNK N   1      20.399  16.291   4.474  0.00  0.00     0.121 A 
HETATM    5  S   UNK N   1      21.953  15.903   4.253  0.00  0.00    -0.074 SA
HETATM    6  C   UNK N   1      22.486  17.289   3.572  0.00  0.00     0.033 A 
HETATM    7  C   UNK N   1      21.386  18.144   3.419  0.00  0.00     0.023 A 
HETATM    8  C   UNK N   1      20.193  17.578   3.957  0.00  0.00     0.034 A 
BRANCH   6   9
HETATM    9  C   UNK N   1      23.827  17.752   3.896  0.00  0.00     0.049 A 
HETATM   10  C   UNK N   1      24.171  19.103   3.846  0.00  0.00     0.031 A 
HETATM   11  C   UNK N   1      25.369  19.514   4.435  0.00  0.00     0.004 A 
HETATM   12  C   UNK N   1      26.174  18.592   5.109  0.00  0.00     0.017 A 
HETATM   13  C   UNK N   1      25.792  17.255   5.146  0.00  0.00     0.088 A 
HETATM   14  N   UNK N   1      24.644  16.870   4.543  0.00  0.00    -0.365 N 
ATOM     15  HN  UNK N   1      24.378  15.887   4.575  1.00  0.00     0.165 HD
ENDBRANCH   6   9
ENDBRANCH   1   4
BRANCH   1  16
HETATM   16  N   UNK N   1      20.133  15.950   7.462  0.00  0.00    -0.276 N 
HETATM   17  C   UNK N   1      19.500  17.014   8.202  0.00  0.00     0.170 C 
BRANCH  16  18
HETATM   18  C   UNK N   1      20.792  14.892   8.127  0.00  0.00     0.044 A 
HETATM   19  C   UNK N   1      22.077  14.494   7.738  0.00  0.00     0.031 A 
HETATM   20  C   UNK N   1      22.829  13.676   8.585  0.00  0.00     0.019 A 
HETATM   21  C   UNK N   1      22.293  13.241   9.807  0.00  0.00     0.034 A 
HETATM   22  C   UNK N   1      20.977  13.571  10.143  0.00  0.00     0.019 A 
HETATM   23  C   UNK N   1      20.244  14.399   9.317  0.00  0.00     0.031 A 
BRANCH  21  24
HETATM   24  C   UNK N   1      23.114  12.539  10.796  0.00  0.00     0.275 C 
HETATM   25  O   UNK N   1      22.585  11.778  11.605  0.00  0.00    -0.265 OA
HETATM   26  N   UNK N   1      24.459  12.665  10.772  0.00  0.00    -0.233 N 
HETATM   27  H   UNK N   1      24.873  13.275  10.120  0.00  0.00     0.197 HD
BRANCH  26  28
HETATM   28  O   UNK N   1      25.239  11.982  11.614  0.00  0.00    -0.287 OA
HETATM   29  H   UNK N   1      25.985  11.460  11.279  0.00  0.00     0.244 HD
ENDBRANCH  26  28
ENDBRANCH  21  24
ENDBRANCH  16  18
ENDBRANCH   1  16
TORSDOF 6
ENDMDL
