MODEL 1
REMARK VINA RESULT:      -6.0      0.000      0.000
REMARK  3 active torsions:
REMARK  status: ('A' for Active; 'I' for Inactive)
REMARK    1  A    between atoms: C_2  and  C_11 
REMARK    2  A    between atoms: C_11  and  C_12 
REMARK    3  A    between atoms: C_12  and  O_14 
ROOT
HETATM    1  C   UNK N   1      32.193  17.258   5.741  0.00  0.00    -0.019 A 
HETATM    2  C   UNK N   1      32.720  17.481   7.030  0.00  0.00    -0.037 A 
HETATM    3  C   UNK N   1      31.833  17.620   8.109  0.00  0.00     0.008 A 
HETATM    4  C   UNK N   1      30.453  17.537   7.921  0.00  0.00     0.001 A 
HETATM    5  C   UNK N   1      29.932  17.324   6.645  0.00  0.00     0.012 A 
HETATM    6  C   UNK N   1      30.791  17.184   5.555  0.00  0.00    -0.025 A 
HETATM    7  C   UNK N   1      30.264  16.973   4.278  0.00  0.00     0.012 A 
HETATM    8  C   UNK N   1      31.119  16.829   3.182  0.00  0.00     0.001 A 
HETATM    9  C   UNK N   1      32.504  16.895   3.357  0.00  0.00     0.001 A 
HETATM   10  C   UNK N   1      33.040  17.112   4.629  0.00  0.00     0.013 A 
ENDROOT
BRANCH   2  11
HETATM   11  C   UNK N   1      34.219  17.600   7.211  0.00  0.00     0.149 C 
BRANCH  11  12
HETATM   12  C   UNK N   1      34.756  18.156   8.503  0.00  0.00     0.143 C 
HETATM   13  O   UNK N   1      35.246  19.274   8.504  0.00  0.00    -0.650 OA
BRANCH  12  14
HETATM   14  O   UNK N   1      34.738  17.444   9.646  0.00  0.00    -0.776 OA
HETATM   15  H   UNK N   1      33.961  17.040   9.978  0.00  0.00     0.167 HD
ENDBRANCH  12  14
ENDBRANCH  11  12
ENDBRANCH   2  11
TORSDOF 3
ENDMDL
MODEL 2
REMARK VINA RESULT:      -6.0      9.601     11.271
REMARK  3 active torsions:
REMARK  status: ('A' for Active; 'I' for Inactive)
REMARK    1  A    between atoms: C_2  and  C_11 
REMARK    2  A    between atoms: C_11  and  C_12 
REMARK    3  A    between atoms: C_12  and  O_14 
ROOT
HETATM    1  C   UNK N   1      23.291  19.731   3.421  0.00  0.00    -0.019 A 
HETATM    2  C   UNK N   1      21.885  19.771   3.321  0.00  0.00    -0.037 A 
HETATM    3  C   UNK N   1      21.124  18.898   4.114  0.00  0.00     0.008 A 
HETATM    4  C   UNK N   1      21.738  18.004   4.992  0.00  0.00     0.001 A 
HETATM    5  C   UNK N   1      23.129  17.958   5.086  0.00  0.00     0.012 A 
HETATM    6  C   UNK N   1      23.909  18.815   4.308  0.00  0.00    -0.025 A 
HETATM    7  C   UNK N   1      25.302  18.764   4.402  0.00  0.00     0.012 A 
HETATM    8  C   UNK N   1      26.089  19.620   3.629  0.00  0.00     0.001 A 
HETATM    9  C   UNK N   1      25.488  20.531   2.757  0.00  0.00     0.001 A 
HETATM   10  C   UNK N   1      24.096  20.585   2.649  0.00  0.00     0.013 A 
ENDROOT
BRANCH   2  11
HETATM   11  C   UNK N   1      21.236  20.725   2.340  0.00  0.00     0.149 C 
BRANCH  11  12
HETATM   12  C   UNK N   1      20.964  20.255   0.936  0.00  0.00     0.143 C 
HETATM   13  O   UNK N   1      21.210  21.006   0.006  0.00  0.00    -0.650 OA
BRANCH  12  14
HETATM   14  O   UNK N   1      20.432  19.045   0.682  0.00  0.00    -0.776 OA
HETATM   15  H   UNK N   1      20.254  18.418   1.355  0.00  0.00     0.167 HD
ENDBRANCH  12  14
ENDBRANCH  11  12
ENDBRANCH   2  11
TORSDOF 3
ENDMDL
MODEL 3
REMARK VINA RESULT:      -5.9     10.613     12.710
REMARK  3 active torsions:
REMARK  status: ('A' for Active; 'I' for Inactive)
REMARK    1  A    between atoms: C_2  and  C_11 
REMARK    2  A    between atoms: C_11  and  C_12 
REMARK    3  A    between atoms: C_12  and  O_14 
ROOT
HETATM    1  C   UNK N   1      35.299  11.439  17.020  0.00  0.00    -0.019 A 
HETATM    2  C   UNK N   1      35.242  12.811  16.699  0.00  0.00    -0.037 A 
HETATM    3  C   UNK N   1      35.192  13.750  17.741  0.00  0.00     0.008 A 
HETATM    4  C   UNK N   1      35.201  13.344  19.076  0.00  0.00     0.001 A 
HETATM    5  C   UNK N   1      35.249  11.987  19.394  0.00  0.00     0.012 A 
HETATM    6  C   UNK N   1      35.299  11.033  18.377  0.00  0.00    -0.025 A 
HETATM    7  C   UNK N   1      35.344   9.674  18.701  0.00  0.00     0.012 A 
HETATM    8  C   UNK N   1      35.397   8.713  17.688  0.00  0.00     0.001 A 
HETATM    9  C   UNK N   1      35.404   9.106  16.347  0.00  0.00     0.001 A 
HETATM   10  C   UNK N   1      35.352  10.462  16.013  0.00  0.00     0.013 A 
ENDROOT
BRANCH   2  11
HETATM   11  C   UNK N   1      35.201  13.233  15.244  0.00  0.00     0.149 C 
BRANCH  11  12
HETATM   12  C   UNK N   1      36.406  13.910  14.646  0.00  0.00     0.143 C 
HETATM   13  O   UNK N   1      36.299  14.444  13.555  0.00  0.00    -0.650 OA
BRANCH  12  14
HETATM   14  O   UNK N   1      37.600  13.915  15.269  0.00  0.00    -0.776 OA
HETATM   15  H   UNK N   1      37.888  13.213  15.818  0.00  0.00     0.167 HD
ENDBRANCH  12  14
ENDBRANCH  11  12
ENDBRANCH   2  11
TORSDOF 3
ENDMDL
MODEL 4
REMARK VINA RESULT:      -5.9      3.032      4.668
REMARK  3 active torsions:
REMARK  status: ('A' for Active; 'I' for Inactive)
REMARK    1  A    between atoms: C_2  and  C_11 
REMARK    2  A    between atoms: C_11  and  C_12 
REMARK    3  A    between atoms: C_12  and  O_14 
ROOT
HETATM    1  C   UNK N   1      31.567  17.476   7.424  0.00  0.00    -0.019 A 
HETATM    2  C   UNK N   1      30.173  17.444   7.635  0.00  0.00    -0.037 A 
HETATM    3  C   UNK N   1      29.330  17.151   6.550  0.00  0.00     0.008 A 
HETATM    4  C   UNK N   1      29.853  16.892   5.283  0.00  0.00     0.001 A 
HETATM    5  C   UNK N   1      31.231  16.931   5.073  0.00  0.00     0.012 A 
HETATM    6  C   UNK N   1      32.091  17.221   6.133  0.00  0.00    -0.025 A 
HETATM    7  C   UNK N   1      33.471  17.262   5.917  0.00  0.00     0.012 A 
HETATM    8  C   UNK N   1      34.338  17.549   6.974  0.00  0.00     0.001 A 
HETATM    9  C   UNK N   1      33.830  17.796   8.252  0.00  0.00     0.001 A 
HETATM   10  C   UNK N   1      32.451  17.764   8.477  0.00  0.00     0.013 A 
ENDROOT
BRANCH   2  11
HETATM   11  C   UNK N   1      29.620  17.760   9.009  0.00  0.00     0.149 C 
BRANCH  11  12
HETATM   12  C   UNK N   1      28.130  17.863   9.191  0.00  0.00     0.143 C 
HETATM   13  O   UNK N   1      27.523  16.900   9.632  0.00  0.00    -0.650 OA
BRANCH  12  14
HETATM   14  O   UNK N   1      27.447  18.973   8.854  0.00  0.00    -0.776 OA
HETATM   15  H   UNK N   1      27.556  19.403   8.029  0.00  0.00     0.167 HD
ENDBRANCH  12  14
ENDBRANCH  11  12
ENDBRANCH   2  11
TORSDOF 3
ENDMDL
MODEL 5
REMARK VINA RESULT:      -5.9      2.836      3.944
REMARK  3 active torsions:
REMARK  status: ('A' for Active; 'I' for Inactive)
REMARK    1  A    between atoms: C_2  and  C_11 
REMARK    2  A    between atoms: C_11  and  C_12 
REMARK    3  A    between atoms: C_12  and  O_14 
ROOT
HETATM    1  C   UNK N   1      31.143  17.244   6.139  0.00  0.00    -0.019 A 
HETATM    2  C   UNK N   1      30.595  17.378   7.432  0.00  0.00    -0.037 A 
HETATM    3  C   UNK N   1      31.452  17.675   8.504  0.00  0.00     0.008 A 
HETATM    4  C   UNK N   1      32.823  17.841   8.304  0.00  0.00     0.001 A 
HETATM    5  C   UNK N   1      33.366  17.700   7.027  0.00  0.00     0.012 A 
HETATM    6  C   UNK N   1      32.537  17.404   5.944  0.00  0.00    -0.025 A 
HETATM    7  C   UNK N   1      33.086  17.262   4.668  0.00  0.00     0.012 A 
HETATM    8  C   UNK N   1      32.262  16.968   3.579  0.00  0.00     0.001 A 
HETATM    9  C   UNK N   1      30.885  16.815   3.761  0.00  0.00     0.001 A 
HETATM   10  C   UNK N   1      30.327  16.948   5.035  0.00  0.00     0.013 A 
ENDROOT
BRANCH   2  11
HETATM   11  C   UNK N   1      29.109  17.164   7.636  0.00  0.00     0.149 C 
BRANCH  11  12
HETATM   12  C   UNK N   1      28.276  18.296   8.174  0.00  0.00     0.143 C 
HETATM   13  O   UNK N   1      28.265  19.357   7.572  0.00  0.00    -0.650 OA
BRANCH  12  14
HETATM   14  O   UNK N   1      27.568  18.178   9.314  0.00  0.00    -0.776 OA
HETATM   15  H   UNK N   1      26.747  18.609   9.447  0.00  0.00     0.167 HD
ENDBRANCH  12  14
ENDBRANCH  11  12
ENDBRANCH   2  11
TORSDOF 3
ENDMDL
MODEL 6
REMARK VINA RESULT:      -5.9      1.708      3.592
REMARK  3 active torsions:
REMARK  status: ('A' for Active; 'I' for Inactive)
REMARK    1  A    between atoms: C_2  and  C_11 
REMARK    2  A    between atoms: C_11  and  C_12 
REMARK    3  A    between atoms: C_12  and  O_14 
ROOT
HETATM    1  C   UNK N   1      30.693  17.443   8.053  0.00  0.00    -0.019 A 
HETATM    2  C   UNK N   1      31.973  16.996   7.662  0.00  0.00    -0.037 A 
HETATM    3  C   UNK N   1      32.082  16.138   6.557  0.00  0.00     0.008 A 
HETATM    4  C   UNK N   1      30.951  15.731   5.847  0.00  0.00     0.001 A 
HETATM    5  C   UNK N   1      29.685  16.167   6.239  0.00  0.00     0.012 A 
HETATM    6  C   UNK N   1      29.548  17.019   7.335  0.00  0.00    -0.025 A 
HETATM    7  C   UNK N   1      28.278  17.450   7.725  0.00  0.00     0.012 A 
HETATM    8  C   UNK N   1      28.133  18.306   8.820  0.00  0.00     0.001 A 
HETATM    9  C   UNK N   1      29.258  18.734   9.530  0.00  0.00     0.001 A 
HETATM   10  C   UNK N   1      30.532  18.302   9.152  0.00  0.00     0.013 A 
ENDROOT
BRANCH   2  11
HETATM   11  C   UNK N   1      33.186  17.422   8.463  0.00  0.00     0.149 C 
BRANCH  11  12
HETATM   12  C   UNK N   1      34.288  18.178   7.770  0.00  0.00     0.143 C 
HETATM   13  O   UNK N   1      34.892  19.038   8.391  0.00  0.00    -0.650 OA
BRANCH  12  14
HETATM   14  O   UNK N   1      34.604  17.953   6.481  0.00  0.00    -0.776 OA
HETATM   15  H   UNK N   1      35.442  17.630   6.214  0.00  0.00     0.167 HD
ENDBRANCH  12  14
ENDBRANCH  11  12
ENDBRANCH   2  11
TORSDOF 3
ENDMDL
MODEL 7
REMARK VINA RESULT:      -5.8      9.870     12.374
REMARK  3 active torsions:
REMARK  status: ('A' for Active; 'I' for Inactive)
REMARK    1  A    between atoms: C_2  and  C_11 
REMARK    2  A    between atoms: C_11  and  C_12 
REMARK    3  A    between atoms: C_12  and  O_14 
ROOT
HETATM    1  C   UNK N   1      35.756  12.426  16.858  0.00  0.00    -0.019 A 
HETATM    2  C   UNK N   1      36.073  12.479  15.485  0.00  0.00    -0.037 A 
HETATM    3  C   UNK N   1      36.425  11.291  14.824  0.00  0.00     0.008 A 
HETATM    4  C   UNK N   1      36.459  10.073  15.504  0.00  0.00     0.001 A 
HETATM    5  C   UNK N   1      36.153  10.021  16.864  0.00  0.00     0.012 A 
HETATM    6  C   UNK N   1      35.802  11.187  17.545  0.00  0.00    -0.025 A 
HETATM    7  C   UNK N   1      35.500  11.131  18.908  0.00  0.00     0.012 A 
HETATM    8  C   UNK N   1      35.144  12.294  19.595  0.00  0.00     0.001 A 
HETATM    9  C   UNK N   1      35.091  13.519  18.924  0.00  0.00     0.001 A 
HETATM   10  C   UNK N   1      35.398  13.586  17.563  0.00  0.00     0.013 A 
ENDROOT
BRANCH   2  11
HETATM   11  C   UNK N   1      36.062  13.814  14.769  0.00  0.00     0.149 C 
BRANCH  11  12
HETATM   12  C   UNK N   1      35.936  13.838  13.269  0.00  0.00     0.143 C 
HETATM   13  O   UNK N   1      34.825  13.771  12.771  0.00  0.00    -0.650 OA
BRANCH  12  14
HETATM   14  O   UNK N   1      37.016  13.901  12.467  0.00  0.00    -0.776 OA
HETATM   15  H   UNK N   1      37.748  14.456  12.646  0.00  0.00     0.167 HD
ENDBRANCH  12  14
ENDBRANCH  11  12
ENDBRANCH   2  11
TORSDOF 3
ENDMDL
MODEL 8
REMARK VINA RESULT:      -5.8      9.401     11.087
REMARK  3 active torsions:
REMARK  status: ('A' for Active; 'I' for Inactive)
REMARK    1  A    between atoms: C_2  and  C_11 
REMARK    2  A    between atoms: C_11  and  C_12 
REMARK    3  A    between atoms: C_12  and  O_14 
ROOT
HETATM    1  C   UNK N   1      22.856  13.279   8.799  0.00  0.00    -0.019 A 
HETATM    2  C   UNK N   1      22.205  12.692   9.904  0.00  0.00    -0.037 A 
HETATM    3  C   UNK N   1      20.941  13.173  10.281  0.00  0.00     0.008 A 
HETATM    4  C   UNK N   1      20.328  14.212   9.579  0.00  0.00     0.001 A 
HETATM    5  C   UNK N   1      20.975  14.798   8.491  0.00  0.00     0.012 A 
HETATM    6  C   UNK N   1      22.232  14.339   8.096  0.00  0.00    -0.025 A 
HETATM    7  C   UNK N   1      22.877  14.932   7.008  0.00  0.00     0.012 A 
HETATM    8  C   UNK N   1      24.135  14.477   6.605  0.00  0.00     0.001 A 
HETATM    9  C   UNK N   1      24.754  13.427   7.289  0.00  0.00     0.001 A 
HETATM   10  C   UNK N   1      24.120  12.833   8.383  0.00  0.00     0.013 A 
ENDROOT
BRANCH   2  11
HETATM   11  C   UNK N   1      22.898  11.587  10.674  0.00  0.00     0.149 C 
BRANCH  11  12
HETATM   12  C   UNK N   1      23.676  11.938  11.915  0.00  0.00     0.143 C 
HETATM   13  O   UNK N   1      23.111  11.891  12.995  0.00  0.00    -0.650 OA
BRANCH  12  14
HETATM   14  O   UNK N   1      24.963  12.329  11.860  0.00  0.00    -0.776 OA
HETATM   15  H   UNK N   1      25.645  11.779  11.530  0.00  0.00     0.167 HD
ENDBRANCH  12  14
ENDBRANCH  11  12
ENDBRANCH   2  11
TORSDOF 3
ENDMDL
MODEL 9
REMARK VINA RESULT:      -5.8     11.039     11.835
REMARK  3 active torsions:
REMARK  status: ('A' for Active; 'I' for Inactive)
REMARK    1  A    between atoms: C_2  and  C_11 
REMARK    2  A    between atoms: C_11  and  C_12 
REMARK    3  A    between atoms: C_12  and  O_14 
ROOT
HETATM    1  C   UNK N   1      21.875  12.979   9.163  0.00  0.00    -0.019 A 
HETATM    2  C   UNK N   1      22.593  11.982   9.857  0.00  0.00    -0.037 A 
HETATM    3  C   UNK N   1      23.366  11.068   9.123  0.00  0.00     0.008 A 
HETATM    4  C   UNK N   1      23.432  11.137   7.731  0.00  0.00     0.001 A 
HETATM    5  C   UNK N   1      22.716  12.117   7.044  0.00  0.00     0.012 A 
HETATM    6  C   UNK N   1      21.939  13.037   7.749  0.00  0.00    -0.025 A 
HETATM    7  C   UNK N   1      21.221  14.015   7.056  0.00  0.00     0.012 A 
HETATM    8  C   UNK N   1      20.444  14.942   7.755  0.00  0.00     0.001 A 
HETATM    9  C   UNK N   1      20.381  14.895   9.150  0.00  0.00     0.001 A 
HETATM   10  C   UNK N   1      21.089  13.916   9.852  0.00  0.00     0.013 A 
ENDROOT
BRANCH   2  11
HETATM   11  C   UNK N   1      22.485  11.902  11.366  0.00  0.00     0.149 C 
BRANCH  11  12
HETATM   12  C   UNK N   1      23.722  12.108  12.198  0.00  0.00     0.143 C 
HETATM   13  O   UNK N   1      23.631  12.046  13.413  0.00  0.00    -0.650 OA
BRANCH  12  14
HETATM   14  O   UNK N   1      24.916  12.387  11.641  0.00  0.00    -0.776 OA
HETATM   15  H   UNK N   1      25.677  11.861  11.783  0.00  0.00     0.167 HD
ENDBRANCH  12  14
ENDBRANCH  11  12
ENDBRANCH   2  11
TORSDOF 3
ENDMDL
