REMARK  3 active torsions:
REMARK  status: ('A' for Active; 'I' for Inactive)
REMARK    1  A    between atoms: C_2  and  C_11 
REMARK    2  A    between atoms: C_11  and  C_12 
REMARK    3  A    between atoms: C_12  and  O_14 
ROOT
HETATM    1  C   UNK N   1       0.965   0.210   0.016  0.00  0.00    -0.019 A 
HETATM    2  C   UNK N   1      -0.322  -0.368   0.017  0.00  0.00    -0.037 A 
HETATM    3  C   UNK N   1      -1.443   0.474  -0.055  0.00  0.00     0.008 A 
HETATM    4  C   UNK N   1      -1.298   1.860  -0.130  0.00  0.00     0.001 A 
HETATM    5  C   UNK N   1      -0.026   2.432  -0.123  0.00  0.00     0.012 A 
HETATM    6  C   UNK N   1       1.105   1.618  -0.051  0.00  0.00    -0.025 A 
HETATM    7  C   UNK N   1       2.377   2.196  -0.041  0.00  0.00     0.012 A 
HETATM    8  C   UNK N   1       3.514   1.387   0.028  0.00  0.00     0.001 A 
HETATM    9  C   UNK N   1       3.385  -0.003   0.088  0.00  0.00     0.001 A 
HETATM   10  C   UNK N   1       2.117  -0.590   0.086  0.00  0.00     0.013 A 
ENDROOT
BRANCH   2  11
HETATM   11  C   UNK N   1      -0.462  -1.872   0.131  0.00  0.00     0.149 C 
BRANCH  11  12
HETATM   12  C   UNK N   1      -1.839  -2.480   0.118  0.00  0.00     0.143 C 
HETATM   13  O   UNK N   1      -1.969  -3.649   0.442  0.00  0.00    -0.650 OA
BRANCH  12  14
HETATM   14  O   UNK N   1      -2.922  -1.779  -0.268  0.00  0.00    -0.776 OA
HETATM   15  H   UNK N   1      -2.876  -0.883  -0.536  0.00  0.00     0.167 HD
ENDBRANCH  12  14
ENDBRANCH  11  12
ENDBRANCH   2  11
TORSDOF 3
