REMARK  1 active torsions:
REMARK  status: ('A' for Active; 'I' for Inactive)
REMARK    1  A    between atoms: C_5  and  O_13 
ROOT
HETATM    1  C   UNK N   1       4.274   2.006  -0.035  0.00  0.00     0.004 A 
HETATM    2  C   UNK N   1       2.908   2.233   0.126  0.00  0.00     0.017 A 
HETATM    3  C   UNK N   1       2.001   1.166   0.077  0.00  0.00     0.032 A 
HETATM    4  C   UNK N   1       2.466  -0.146  -0.134  0.00  0.00     0.062 A 
HETATM    5  C   UNK N   1       3.856  -0.367  -0.293  0.00  0.00     0.080 A 
HETATM    6  C   UNK N   1       4.745   0.710  -0.242  0.00  0.00     0.037 A 
HETATM    7  C   UNK N   1       0.555   1.418   0.248  0.00  0.00     0.193 A 
HETATM    8  C   UNK N   1      -0.414   0.291   0.176  0.00  0.00     0.037 A 
HETATM    9  C   UNK N   1       0.016  -0.972  -0.041  0.00  0.00     0.034 A 
HETATM   10  C   UNK N   1       1.475  -1.260  -0.188  0.00  0.00     0.195 A 
HETATM   11  O   UNK N   1       1.847  -2.409  -0.368  0.00  0.00    -0.287 OA
HETATM   12  O   UNK N   1       0.153   2.556   0.443  0.00  0.00    -0.287 OA
HETATM   13  C   UNK N   1      -1.886   0.579   0.363  0.00  0.00     0.199 C 
HETATM   14  C   UNK N   1      -2.795  -0.679   0.306  0.00  0.00     0.165 C 
HETATM   15  O   UNK N   1      -2.270  -1.645  -0.582  0.00  0.00    -0.373 OA
HETATM   16  C   UNK N   1      -0.991  -2.100  -0.162  0.00  0.00     0.155 C 
HETATM   17  C   UNK N   1      -1.049  -2.944   1.107  0.00  0.00     0.045 C 
HETATM   18  C   UNK N   1      -4.099  -0.158  -0.307  0.00  0.00     0.146 C 
HETATM   19  C   UNK N   1      -3.595   1.054  -0.989  0.00  0.00     0.262 C 
HETATM   20  O   UNK N   1      -4.263   1.727  -1.756  0.00  0.00    -0.265 OA
HETATM   21  O   UNK N   1      -2.366   1.410  -0.615  0.00  0.00    -0.308 OA
ENDROOT
BRANCH   5  22
HETATM   22  O   UNK N   1       4.345  -1.603  -0.495  0.00  0.00    -0.360 OA
HETATM   23  H   UNK N   1       3.769  -2.329  -0.637  0.00  0.00     0.217 HD
ENDBRANCH   5  22
TORSDOF 1
