MODEL 1
REMARK VINA RESULT:      -7.4      0.000      0.000
REMARK  1 active torsions:
REMARK  status: ('A' for Active; 'I' for Inactive)
REMARK    1  A    between atoms: C_5  and  O_13 
ROOT
HETATM    1  C   UNK N   1      19.719  19.704   2.704  0.00  0.00     0.004 A 
HETATM    2  C   UNK N   1      20.997  20.251   2.800  0.00  0.00     0.017 A 
HETATM    3  C   UNK N   1      22.084  19.454   3.182  0.00  0.00     0.032 A 
HETATM    4  C   UNK N   1      21.891  18.089   3.471  0.00  0.00     0.062 A 
HETATM    5  C   UNK N   1      20.589  17.541   3.368  0.00  0.00     0.080 A 
HETATM    6  C   UNK N   1      19.517  18.353   2.986  0.00  0.00     0.037 A 
HETATM    7  C   UNK N   1      23.435  20.045   3.281  0.00  0.00     0.193 A 
HETATM    8  C   UNK N   1      24.588  19.207   3.707  0.00  0.00     0.037 A 
HETATM    9  C   UNK N   1      24.416  17.899   4.003  0.00  0.00     0.034 A 
HETATM   10  C   UNK N   1      23.066  17.268   3.883  0.00  0.00     0.195 A 
HETATM   11  O   UNK N   1      22.931  16.082   4.138  0.00  0.00    -0.287 OA
HETATM   12  O   UNK N   1      23.604  21.227   3.019  0.00  0.00    -0.287 OA
HETATM   13  C   UNK N   1      25.959  19.838   3.791  0.00  0.00     0.199 C 
HETATM   14  C   UNK N   1      27.089  18.857   4.208  0.00  0.00     0.165 C 
HETATM   15  O   UNK N   1      26.602  17.868   5.093  0.00  0.00    -0.373 OA
HETATM   16  C   UNK N   1      25.594  17.074   4.484  0.00  0.00     0.155 C 
HETATM   17  C   UNK N   1      26.136  16.168   3.383  0.00  0.00     0.045 C 
HETATM   18  C   UNK N   1      28.061  19.738   5.000  0.00  0.00     0.146 C 
HETATM   19  C   UNK N   1      27.152  20.837   5.389  0.00  0.00     0.262 C 
HETATM   20  O   UNK N   1      27.452  21.718   6.178  0.00  0.00    -0.265 OA
HETATM   21  O   UNK N   1      25.997  20.841   4.723  0.00  0.00    -0.308 OA
ENDROOT
BRANCH   5  22
HETATM   22  O   UNK N   1      20.358  16.244   3.633  0.00  0.00    -0.360 OA
HETATM   23  H   UNK N   1      20.355  15.928   4.516  0.00  0.00     0.217 HD
ENDBRANCH   5  22
TORSDOF 1
ENDMDL
MODEL 2
REMARK VINA RESULT:      -7.4      1.384      3.634
REMARK  1 active torsions:
REMARK  status: ('A' for Active; 'I' for Inactive)
REMARK    1  A    between atoms: C_5  and  O_13 
ROOT
HETATM    1  C   UNK N   1      19.838  18.149   2.997  0.00  0.00     0.004 A 
HETATM    2  C   UNK N   1      20.983  17.442   3.361  0.00  0.00     0.017 A 
HETATM    3  C   UNK N   1      22.216  18.097   3.471  0.00  0.00     0.032 A 
HETATM    4  C   UNK N   1      22.306  19.479   3.215  0.00  0.00     0.062 A 
HETATM    5  C   UNK N   1      21.137  20.189   2.849  0.00  0.00     0.080 A 
HETATM    6  C   UNK N   1      19.916  19.518   2.744  0.00  0.00     0.037 A 
HETATM    7  C   UNK N   1      23.424  17.338   3.857  0.00  0.00     0.193 A 
HETATM    8  C   UNK N   1      24.740  18.026   3.955  0.00  0.00     0.037 A 
HETATM    9  C   UNK N   1      24.845  19.349   3.698  0.00  0.00     0.034 A 
HETATM   10  C   UNK N   1      23.635  20.147   3.334  0.00  0.00     0.195 A 
HETATM   11  O   UNK N   1      23.745  21.344   3.120  0.00  0.00    -0.287 OA
HETATM   12  O   UNK N   1      23.343  16.141   4.091  0.00  0.00    -0.287 OA
HETATM   13  C   UNK N   1      25.956  17.224   4.360  0.00  0.00     0.199 C 
HETATM   14  C   UNK N   1      27.263  18.056   4.466  0.00  0.00     0.165 C 
HETATM   15  O   UNK N   1      27.271  19.111   3.526  0.00  0.00    -0.373 OA
HETATM   16  C   UNK N   1      26.203  20.021   3.753  0.00  0.00     0.155 C 
HETATM   17  C   UNK N   1      26.379  20.835   5.031  0.00  0.00     0.045 C 
HETATM   18  C   UNK N   1      28.357  17.068   4.051  0.00  0.00     0.146 C 
HETATM   19  C   UNK N   1      27.549  16.100   3.278  0.00  0.00     0.262 C 
HETATM   20  O   UNK N   1      28.027  15.198   2.610  0.00  0.00    -0.265 OA
HETATM   21  O   UNK N   1      26.234  16.236   3.452  0.00  0.00    -0.308 OA
ENDROOT
BRANCH   5  22
HETATM   22  O   UNK N   1      21.175  21.509   2.597  0.00  0.00    -0.360 OA
HETATM   23  H   UNK N   1      20.510  21.917   2.077  0.00  0.00     0.217 HD
ENDBRANCH   5  22
TORSDOF 1
ENDMDL
MODEL 3
REMARK VINA RESULT:      -7.4      5.456      7.925
REMARK  1 active torsions:
REMARK  status: ('A' for Active; 'I' for Inactive)
REMARK    1  A    between atoms: C_5  and  O_13 
ROOT
HETATM    1  C   UNK N   1      23.858  11.734  10.200  0.00  0.00     0.004 A 
HETATM    2  C   UNK N   1      23.989  12.649   9.156  0.00  0.00     0.017 A 
HETATM    3  C   UNK N   1      22.924  13.494   8.817  0.00  0.00     0.032 A 
HETATM    4  C   UNK N   1      21.713  13.425   9.531  0.00  0.00     0.062 A 
HETATM    5  C   UNK N   1      21.591  12.494  10.592  0.00  0.00     0.080 A 
HETATM    6  C   UNK N   1      22.664  11.659  10.915  0.00  0.00     0.037 A 
HETATM    7  C   UNK N   1      23.072  14.460   7.709  0.00  0.00     0.193 A 
HETATM    8  C   UNK N   1      21.937  15.345   7.331  0.00  0.00     0.037 A 
HETATM    9  C   UNK N   1      20.763  15.279   7.998  0.00  0.00     0.034 A 
HETATM   10  C   UNK N   1      20.595  14.333   9.142  0.00  0.00     0.195 A 
HETATM   11  O   UNK N   1      19.532  14.297   9.743  0.00  0.00    -0.287 OA
HETATM   12  O   UNK N   1      24.128  14.529   7.096  0.00  0.00    -0.287 OA
HETATM   13  C   UNK N   1      22.122  16.329   6.198  0.00  0.00     0.199 C 
HETATM   14  C   UNK N   1      20.884  17.224   5.921  0.00  0.00     0.165 C 
HETATM   15  O   UNK N   1      19.684  16.530   6.197  0.00  0.00    -0.373 OA
HETATM   16  C   UNK N   1      19.601  16.153   7.565  0.00  0.00     0.155 C 
HETATM   17  C   UNK N   1      19.412  17.345   8.498  0.00  0.00     0.045 C 
HETATM   18  C   UNK N   1      20.936  17.459   4.408  0.00  0.00     0.146 C 
HETATM   19  C   UNK N   1      21.761  16.302   3.997  0.00  0.00     0.262 C 
HETATM   20  O   UNK N   1      21.946  15.981   2.836  0.00  0.00    -0.265 OA
HETATM   21  O   UNK N   1      22.373  15.691   5.012  0.00  0.00    -0.308 OA
ENDROOT
BRANCH   5  22
HETATM   22  O   UNK N   1      20.454  12.394  11.302  0.00  0.00    -0.360 OA
HETATM   23  H   UNK N   1      19.786  13.048  11.233  0.00  0.00     0.217 HD
ENDBRANCH   5  22
TORSDOF 1
ENDMDL
MODEL 4
REMARK VINA RESULT:      -7.3      5.526      7.412
REMARK  1 active torsions:
REMARK  status: ('A' for Active; 'I' for Inactive)
REMARK    1  A    between atoms: C_5  and  O_13 
ROOT
HETATM    1  C   UNK N   1      21.189  12.268  11.400  0.00  0.00     0.004 A 
HETATM    2  C   UNK N   1      20.770  13.075  10.343  0.00  0.00     0.017 A 
HETATM    3  C   UNK N   1      21.689  13.520   9.383  0.00  0.00     0.032 A 
HETATM    4  C   UNK N   1      23.045  13.153   9.481  0.00  0.00     0.062 A 
HETATM    5  C   UNK N   1      23.460  12.331  10.557  0.00  0.00     0.080 A 
HETATM    6  C   UNK N   1      22.529  11.897  11.505  0.00  0.00     0.037 A 
HETATM    7  C   UNK N   1      21.234  14.375   8.267  0.00  0.00     0.193 A 
HETATM    8  C   UNK N   1      22.210  14.867   7.257  0.00  0.00     0.037 A 
HETATM    9  C   UNK N   1      23.517  14.536   7.346  0.00  0.00     0.034 A 
HETATM   10  C   UNK N   1      24.000  13.649   8.447  0.00  0.00     0.195 A 
HETATM   11  O   UNK N   1      25.181  13.346   8.503  0.00  0.00    -0.287 OA
HETATM   12  O   UNK N   1      20.055  14.684   8.177  0.00  0.00    -0.287 OA
HETATM   13  C   UNK N   1      21.713  15.734   6.122  0.00  0.00     0.199 C 
HETATM   14  C   UNK N   1      22.814  16.154   5.111  0.00  0.00     0.165 C 
HETATM   15  O   UNK N   1      24.063  16.308   5.754  0.00  0.00    -0.373 OA
HETATM   16  C   UNK N   1      24.505  15.089   6.336  0.00  0.00     0.155 C 
HETATM   17  C   UNK N   1      24.895  14.044   5.297  0.00  0.00     0.045 C 
HETATM   18  C   UNK N   1      22.368  17.543   4.644  0.00  0.00     0.146 C 
HETATM   19  C   UNK N   1      21.496  17.926   5.776  0.00  0.00     0.262 C 
HETATM   20  O   UNK N   1      21.027  19.042   5.922  0.00  0.00    -0.265 OA
HETATM   21  O   UNK N   1      21.182  16.911   6.581  0.00  0.00    -0.308 OA
ENDROOT
BRANCH   5  22
HETATM   22  O   UNK N   1      24.744  11.954  10.689  0.00  0.00    -0.360 OA
HETATM   23  H   UNK N   1      25.084  11.693  11.523  0.00  0.00     0.217 HD
ENDBRANCH   5  22
TORSDOF 1
ENDMDL
MODEL 5
REMARK VINA RESULT:      -7.3      1.563      5.613
REMARK  1 active torsions:
REMARK  status: ('A' for Active; 'I' for Inactive)
REMARK    1  A    between atoms: C_5  and  O_13 
ROOT
HETATM    1  C   UNK N   1      28.362  19.289   4.569  0.00  0.00     0.004 A 
HETATM    2  C   UNK N   1      27.236  19.966   4.105  0.00  0.00     0.017 A 
HETATM    3  C   UNK N   1      25.974  19.359   4.153  0.00  0.00     0.032 A 
HETATM    4  C   UNK N   1      25.835  18.059   4.676  0.00  0.00     0.062 A 
HETATM    5  C   UNK N   1      26.986  17.381   5.148  0.00  0.00     0.080 A 
HETATM    6  C   UNK N   1      28.236  18.002   5.091  0.00  0.00     0.037 A 
HETATM    7  C   UNK N   1      24.786  20.085   3.657  0.00  0.00     0.193 A 
HETATM    8  C   UNK N   1      23.447  19.437   3.688  0.00  0.00     0.037 A 
HETATM    9  C   UNK N   1      23.301  18.184   4.172  0.00  0.00     0.034 A 
HETATM   10  C   UNK N   1      24.479  17.437   4.708  0.00  0.00     0.195 A 
HETATM   11  O   UNK N   1      24.327  16.312   5.156  0.00  0.00    -0.287 OA
HETATM   12  O   UNK N   1      24.905  21.219   3.215  0.00  0.00    -0.287 OA
HETATM   13  C   UNK N   1      22.250  20.209   3.181  0.00  0.00     0.199 C 
HETATM   14  C   UNK N   1      20.902  19.445   3.299  0.00  0.00     0.165 C 
HETATM   15  O   UNK N   1      21.091  18.054   3.138  0.00  0.00    -0.373 OA
HETATM   16  C   UNK N   1      21.936  17.521   4.148  0.00  0.00     0.155 C 
HETATM   17  C   UNK N   1      21.285  17.519   5.527  0.00  0.00     0.045 C 
HETATM   18  C   UNK N   1      20.098  19.939   2.092  0.00  0.00     0.146 C 
HETATM   19  C   UNK N   1      21.201  20.405   1.223  0.00  0.00     0.262 C 
HETATM   20  O   UNK N   1      21.050  20.748   0.062  0.00  0.00    -0.265 OA
HETATM   21  O   UNK N   1      22.371  20.513   1.851  0.00  0.00    -0.308 OA
ENDROOT
BRANCH   5  22
HETATM   22  O   UNK N   1      26.901  16.139   5.657  0.00  0.00    -0.360 OA
HETATM   23  H   UNK N   1      26.581  15.998   6.527  0.00  0.00     0.217 HD
ENDBRANCH   5  22
TORSDOF 1
ENDMDL
MODEL 6
REMARK VINA RESULT:      -7.2      4.308      6.924
REMARK  1 active torsions:
REMARK  status: ('A' for Active; 'I' for Inactive)
REMARK    1  A    between atoms: C_5  and  O_13 
ROOT
HETATM    1  C   UNK N   1      26.557  17.092   3.160  0.00  0.00     0.004 A 
HETATM    2  C   UNK N   1      27.789  16.665   3.654  0.00  0.00     0.017 A 
HETATM    3  C   UNK N   1      28.265  17.144   4.881  0.00  0.00     0.032 A 
HETATM    4  C   UNK N   1      27.500  18.061   5.627  0.00  0.00     0.062 A 
HETATM    5  C   UNK N   1      26.248  18.486   5.119  0.00  0.00     0.080 A 
HETATM    6  C   UNK N   1      25.789  17.998   3.892  0.00  0.00     0.037 A 
HETATM    7  C   UNK N   1      29.573  16.686   5.395  0.00  0.00     0.193 A 
HETATM    8  C   UNK N   1      30.093  17.207   6.688  0.00  0.00     0.037 A 
HETATM    9  C   UNK N   1      29.376  18.099   7.407  0.00  0.00     0.034 A 
HETATM   10  C   UNK N   1      28.037  18.558   6.927  0.00  0.00     0.195 A 
HETATM   11  O   UNK N   1      27.396  19.352   7.597  0.00  0.00    -0.287 OA
HETATM   12  O   UNK N   1      30.232  15.881   4.753  0.00  0.00    -0.287 OA
HETATM   13  C   UNK N   1      31.430  16.713   7.191  0.00  0.00     0.199 C 
HETATM   14  C   UNK N   1      31.850  17.297   8.567  0.00  0.00     0.165 C 
HETATM   15  O   UNK N   1      31.366  18.615   8.729  0.00  0.00    -0.373 OA
HETATM   16  C   UNK N   1      29.946  18.658   8.697  0.00  0.00     0.155 C 
HETATM   17  C   UNK N   1      29.306  18.014   9.923  0.00  0.00     0.045 C 
HETATM   18  C   UNK N   1      33.377  17.381   8.477  0.00  0.00     0.146 C 
HETATM   19  C   UNK N   1      33.546  17.395   7.007  0.00  0.00     0.262 C 
HETATM   20  O   UNK N   1      34.609  17.610   6.449  0.00  0.00    -0.265 OA
HETATM   21  O   UNK N   1      32.447  17.050   6.336  0.00  0.00    -0.308 OA
ENDROOT
BRANCH   5  22
HETATM   22  O   UNK N   1      25.482  19.359   5.797  0.00  0.00    -0.360 OA
HETATM   23  H   UNK N   1      24.619  19.122   6.077  0.00  0.00     0.217 HD
ENDBRANCH   5  22
TORSDOF 1
ENDMDL
MODEL 7
REMARK VINA RESULT:      -7.2     15.909     18.979
REMARK  1 active torsions:
REMARK  status: ('A' for Active; 'I' for Inactive)
REMARK    1  A    between atoms: C_5  and  O_13 
ROOT
HETATM    1  C   UNK N   1      35.061   9.422  20.229  0.00  0.00     0.004 A 
HETATM    2  C   UNK N   1      35.178   9.174  18.862  0.00  0.00     0.017 A 
HETATM    3  C   UNK N   1      35.249  10.237  17.952  0.00  0.00     0.032 A 
HETATM    4  C   UNK N   1      35.205  11.566  18.414  0.00  0.00     0.062 A 
HETATM    5  C   UNK N   1      35.090  11.808  19.805  0.00  0.00     0.080 A 
HETATM    6  C   UNK N   1      35.019  10.734  20.697  0.00  0.00     0.037 A 
HETATM    7  C   UNK N   1      35.372   9.963  16.505  0.00  0.00     0.193 A 
HETATM    8  C   UNK N   1      35.427  11.089  15.533  0.00  0.00     0.037 A 
HETATM    9  C   UNK N   1      35.371  12.370  15.961  0.00  0.00     0.034 A 
HETATM   10  C   UNK N   1      35.276  12.676  17.420  0.00  0.00     0.195 A 
HETATM   11  O   UNK N   1      35.242  13.840  17.790  0.00  0.00    -0.287 OA
HETATM   12  O   UNK N   1      35.423   8.809  16.105  0.00  0.00    -0.287 OA
HETATM   13  C   UNK N   1      35.562  10.777  14.060  0.00  0.00     0.199 C 
HETATM   14  C   UNK N   1      35.648  12.031  13.147  0.00  0.00     0.165 C 
HETATM   15  O   UNK N   1      34.890  13.099  13.678  0.00  0.00    -0.373 OA
HETATM   16  C   UNK N   1      35.377  13.502  14.951  0.00  0.00     0.155 C 
HETATM   17  C   UNK N   1      36.739  14.185  14.877  0.00  0.00     0.045 C 
HETATM   18  C   UNK N   1      34.962  11.585  11.852  0.00  0.00     0.146 C 
HETATM   19  C   UNK N   1      34.143  10.467  12.367  0.00  0.00     0.262 C 
HETATM   20  O   UNK N   1      33.292   9.891  11.710  0.00  0.00    -0.265 OA
HETATM   21  O   UNK N   1      34.484  10.070  13.593  0.00  0.00    -0.308 OA
ENDROOT
BRANCH   5  22
HETATM   22  O   UNK N   1      35.045  13.060  20.292  0.00  0.00    -0.360 OA
HETATM   23  H   UNK N   1      34.980  13.797  19.715  0.00  0.00     0.217 HD
ENDBRANCH   5  22
TORSDOF 1
ENDMDL
MODEL 8
REMARK VINA RESULT:      -7.1     10.607     12.564
REMARK  1 active torsions:
REMARK  status: ('A' for Active; 'I' for Inactive)
REMARK    1  A    between atoms: C_5  and  O_13 
ROOT
HETATM    1  C   UNK N   1      33.072  19.557  -5.107  0.00  0.00     0.004 A 
HETATM    2  C   UNK N   1      32.027  20.131  -5.830  0.00  0.00     0.017 A 
HETATM    3  C   UNK N   1      31.247  21.147  -5.262  0.00  0.00     0.032 A 
HETATM    4  C   UNK N   1      31.516  21.597  -3.956  0.00  0.00     0.062 A 
HETATM    5  C   UNK N   1      32.582  21.010  -3.231  0.00  0.00     0.080 A 
HETATM    6  C   UNK N   1      33.349  19.997  -3.813  0.00  0.00     0.037 A 
HETATM    7  C   UNK N   1      30.142  21.748  -6.037  0.00  0.00     0.193 A 
HETATM    8  C   UNK N   1      29.297  22.814  -5.431  0.00  0.00     0.037 A 
HETATM    9  C   UNK N   1      29.534  23.245  -4.172  0.00  0.00     0.034 A 
HETATM   10  C   UNK N   1      30.664  22.676  -3.377  0.00  0.00     0.195 A 
HETATM   11  O   UNK N   1      30.873  23.089  -2.247  0.00  0.00    -0.287 OA
HETATM   12  O   UNK N   1      29.916  21.366  -7.176  0.00  0.00    -0.287 OA
HETATM   13  C   UNK N   1      28.179  23.415  -6.251  0.00  0.00     0.199 C 
HETATM   14  C   UNK N   1      27.393  24.543  -5.529  0.00  0.00     0.165 C 
HETATM   15  O   UNK N   1      27.335  24.309  -4.136  0.00  0.00    -0.373 OA
HETATM   16  C   UNK N   1      28.631  24.296  -3.554  0.00  0.00     0.155 C 
HETATM   17  C   UNK N   1      29.290  25.671  -3.541  0.00  0.00     0.045 C 
HETATM   18  C   UNK N   1      25.968  24.400  -6.074  0.00  0.00     0.146 C 
HETATM   19  C   UNK N   1      26.006  22.992  -6.525  0.00  0.00     0.262 C 
HETATM   20  O   UNK N   1      25.024  22.374  -6.899  0.00  0.00    -0.265 OA
HETATM   21  O   UNK N   1      27.235  22.478  -6.581  0.00  0.00    -0.308 OA
ENDROOT
BRANCH   5  22
HETATM   22  O   UNK N   1      32.876  21.409  -1.981  0.00  0.00    -0.360 OA
HETATM   23  H   UNK N   1      33.728  21.260  -1.619  0.00  0.00     0.217 HD
ENDBRANCH   5  22
TORSDOF 1
ENDMDL
MODEL 9
REMARK VINA RESULT:      -7.0      5.501      7.698
REMARK  1 active torsions:
REMARK  status: ('A' for Active; 'I' for Inactive)
REMARK    1  A    between atoms: C_5  and  O_13 
ROOT
HETATM    1  C   UNK N   1      23.392  11.799  11.362  0.00  0.00     0.004 A 
HETATM    2  C   UNK N   1      24.068  12.371  10.285  0.00  0.00     0.017 A 
HETATM    3  C   UNK N   1      23.370  13.116   9.325  0.00  0.00     0.032 A 
HETATM    4  C   UNK N   1      21.979  13.294   9.445  0.00  0.00     0.062 A 
HETATM    5  C   UNK N   1      21.302  12.713  10.545  0.00  0.00     0.080 A 
HETATM    6  C   UNK N   1      22.015  11.972  11.491  0.00  0.00     0.037 A 
HETATM    7  C   UNK N   1      24.096  13.716   8.186  0.00  0.00     0.193 A 
HETATM    8  C   UNK N   1      23.357  14.491   7.153  0.00  0.00     0.037 A 
HETATM    9  C   UNK N   1      22.018  14.658   7.247  0.00  0.00     0.034 A 
HETATM   10  C   UNK N   1      21.263  14.087   8.403  0.00  0.00     0.195 A 
HETATM   11  O   UNK N   1      20.057  14.261   8.479  0.00  0.00    -0.287 OA
HETATM   12  O   UNK N   1      25.306  13.571   8.089  0.00  0.00    -0.287 OA
HETATM   13  C   UNK N   1      24.128  15.100   6.005  0.00  0.00     0.199 C 
HETATM   14  C   UNK N   1      23.256  15.917   5.013  0.00  0.00     0.165 C 
HETATM   15  O   UNK N   1      21.956  15.372   4.910  0.00  0.00    -0.373 OA
HETATM   16  C   UNK N   1      21.275  15.408   6.157  0.00  0.00     0.155 C 
HETATM   17  C   UNK N   1      20.910  16.823   6.593  0.00  0.00     0.045 C 
HETATM   18  C   UNK N   1      23.947  15.705   3.662  0.00  0.00     0.146 C 
HETATM   19  C   UNK N   1      24.681  14.453   3.944  0.00  0.00     0.262 C 
HETATM   20  O   UNK N   1      25.267  13.804   3.093  0.00  0.00    -0.265 OA
HETATM   21  O   UNK N   1      24.734  14.140   5.239  0.00  0.00    -0.308 OA
ENDROOT
BRANCH   5  22
HETATM   22  O   UNK N   1      19.974  12.858  10.700  0.00  0.00    -0.360 OA
HETATM   23  H   UNK N   1      19.495  12.295  11.276  0.00  0.00     0.217 HD
ENDBRANCH   5  22
TORSDOF 1
ENDMDL
