REMARK  8 active torsions:
REMARK  status: ('A' for Active; 'I' for Inactive)
REMARK    1  A    between atoms: C_1  and  C_2 
REMARK    2  A    between atoms: C_1  and  O_11 
REMARK    3  A    between atoms: C_2  and  C_3 
REMARK    4  A    between atoms: C_3  and  C_4 
REMARK    5  A    between atoms: C_4  and  C_5 
REMARK    6  A    between atoms: C_5  and  C_6 
REMARK    7  A    between atoms: C_6  and  C_7 
REMARK    8  A    between atoms: C_7  and  C_8 
ROOT
HETATM    1  C   UNK N   1       1.618  -1.460  -0.000  0.00  0.00     0.010 C 
ENDROOT
BRANCH   1   2
HETATM    2  C   UNK N   1       2.876  -2.303  -0.000  0.00  0.00     0.111 C 
BRANCH   2   3
HETATM    3  C   UNK N   1       4.109  -1.449  -0.000  0.00  0.00     0.258 C 
HETATM    4  O   UNK N   1       4.021  -0.226  -0.000  0.00  0.00    -0.265 OA
BRANCH   3   5
HETATM    5  O   UNK N   1       5.320  -2.050   0.000  0.00  0.00    -0.326 OA
HETATM    6  C   UNK N   1       6.494  -1.334   0.000  0.00  0.00     0.213 C 
ENDBRANCH   3   5
ENDBRANCH   2   3
ENDBRANCH   1   2
BRANCH   1   7
HETATM    7  C   UNK N   1       0.388  -2.331  -0.000  0.00  0.00     0.000 C 
BRANCH   7   8
HETATM    8  C   UNK N   1      -0.795  -1.397   0.000  0.00  0.00     0.000 C 
BRANCH   8   9
HETATM    9  C   UNK N   1      -2.092  -2.162   0.000  0.00  0.00     0.000 C 
BRANCH   9  10
HETATM   10  C   UNK N   1      -3.203  -1.139  -0.000  0.00  0.00    -0.000 C 
BRANCH  10  11
HETATM   11  C   UNK N   1      -4.548  -1.822  -0.000  0.00  0.00    -0.005 C 
HETATM   12  C   UNK N   1      -5.625  -0.759  -0.000  0.00  0.00     0.005 C 
ENDBRANCH  10  11
ENDBRANCH   9  10
ENDBRANCH   8   9
ENDBRANCH   7   8
ENDBRANCH   1   7
TORSDOF 8
