MODEL 1
REMARK VINA RESULT:      -4.4      0.000      0.000
REMARK  8 active torsions:
REMARK  status: ('A' for Active; 'I' for Inactive)
REMARK    1  A    between atoms: C_1  and  C_2 
REMARK    2  A    between atoms: C_1  and  O_11 
REMARK    3  A    between atoms: C_2  and  C_3 
REMARK    4  A    between atoms: C_3  and  C_4 
REMARK    5  A    between atoms: C_4  and  C_5 
REMARK    6  A    between atoms: C_5  and  C_6 
REMARK    7  A    between atoms: C_6  and  C_7 
REMARK    8  A    between atoms: C_7  and  C_8 
ROOT
HETATM    1  C   UNK N   1      31.994  17.903   8.542  0.00  0.00     0.010 C 
ENDROOT
BRANCH   1   2
HETATM    2  C   UNK N   1      33.405  17.367   8.665  0.00  0.00     0.111 C 
BRANCH   2   3
HETATM    3  C   UNK N   1      34.371  18.174   7.850  0.00  0.00     0.258 C 
HETATM    4  O   UNK N   1      35.011  19.086   8.362  0.00  0.00    -0.265 OA
BRANCH   3   5
HETATM    5  O   UNK N   1      34.527  17.878   6.540  0.00  0.00    -0.326 OA
HETATM    6  C   UNK N   1      34.118  16.678   6.006  0.00  0.00     0.213 C 
ENDBRANCH   3   5
ENDBRANCH   2   3
ENDBRANCH   1   2
BRANCH   1   7
HETATM    7  C   UNK N   1      31.025  16.794   8.222  0.00  0.00     0.000 C 
BRANCH   7   8
HETATM    8  C   UNK N   1      29.779  17.456   7.693  0.00  0.00     0.000 C 
BRANCH   8   9
HETATM    9  C   UNK N   1      29.366  18.614   8.563  0.00  0.00     0.000 C 
BRANCH   9  10
HETATM   10  C   UNK N   1      27.969  19.001   8.142  0.00  0.00    -0.000 C 
BRANCH  10  11
HETATM   11  C   UNK N   1      27.916  19.248   6.655  0.00  0.00    -0.005 C 
HETATM   12  C   UNK N   1      27.479  20.678   6.422  0.00  0.00     0.005 C 
ENDBRANCH  10  11
ENDBRANCH   9  10
ENDBRANCH   8   9
ENDBRANCH   7   8
ENDBRANCH   1   7
TORSDOF 8
ENDMDL
MODEL 2
REMARK VINA RESULT:      -4.4      2.159      3.523
REMARK  8 active torsions:
REMARK  status: ('A' for Active; 'I' for Inactive)
REMARK    1  A    between atoms: C_1  and  C_2 
REMARK    2  A    between atoms: C_1  and  O_11 
REMARK    3  A    between atoms: C_2  and  C_3 
REMARK    4  A    between atoms: C_3  and  C_4 
REMARK    5  A    between atoms: C_4  and  C_5 
REMARK    6  A    between atoms: C_5  and  C_6 
REMARK    7  A    between atoms: C_6  and  C_7 
REMARK    8  A    between atoms: C_7  and  C_8 
ROOT
HETATM    1  C   UNK N   1      31.950  17.854   8.402  0.00  0.00     0.010 C 
ENDROOT
BRANCH   1   2
HETATM    2  C   UNK N   1      33.358  17.439   8.774  0.00  0.00     0.111 C 
BRANCH   2   3
HETATM    3  C   UNK N   1      34.377  18.111   7.903  0.00  0.00     0.258 C 
HETATM    4  O   UNK N   1      35.002  19.084   8.309  0.00  0.00    -0.265 OA
BRANCH   3   5
HETATM    5  O   UNK N   1      34.596  17.625   6.660  0.00  0.00    -0.326 OA
HETATM    6  C   UNK N   1      34.700  16.278   6.407  0.00  0.00     0.213 C 
ENDBRANCH   3   5
ENDBRANCH   2   3
ENDBRANCH   1   2
BRANCH   1   7
HETATM    7  C   UNK N   1      31.193  16.700   7.796  0.00  0.00     0.000 C 
BRANCH   7   8
HETATM    8  C   UNK N   1      30.584  17.216   6.517  0.00  0.00     0.000 C 
BRANCH   8   9
HETATM    9  C   UNK N   1      31.194  16.545   5.315  0.00  0.00     0.000 C 
BRANCH   9  10
HETATM   10  C   UNK N   1      31.621  17.644   4.371  0.00  0.00    -0.000 C 
BRANCH  10  11
HETATM   11  C   UNK N   1      32.741  17.167   3.480  0.00  0.00    -0.005 C 
HETATM   12  C   UNK N   1      32.497  15.713   3.140  0.00  0.00     0.005 C 
ENDBRANCH  10  11
ENDBRANCH   9  10
ENDBRANCH   8   9
ENDBRANCH   7   8
ENDBRANCH   1   7
TORSDOF 8
ENDMDL
MODEL 3
REMARK VINA RESULT:      -4.4     11.303     13.211
REMARK  8 active torsions:
REMARK  status: ('A' for Active; 'I' for Inactive)
REMARK    1  A    between atoms: C_1  and  C_2 
REMARK    2  A    between atoms: C_1  and  O_11 
REMARK    3  A    between atoms: C_2  and  C_3 
REMARK    4  A    between atoms: C_3  and  C_4 
REMARK    5  A    between atoms: C_4  and  C_5 
REMARK    6  A    between atoms: C_5  and  C_6 
REMARK    7  A    between atoms: C_6  and  C_7 
REMARK    8  A    between atoms: C_7  and  C_8 
ROOT
HETATM    1  C   UNK N   1      30.050  24.802  -3.600  0.00  0.00     0.010 C 
ENDROOT
BRANCH   1   2
HETATM    2  C   UNK N   1      30.199  23.295  -3.635  0.00  0.00     0.111 C 
BRANCH   2   3
HETATM    3  C   UNK N   1      30.726  22.766  -2.335  0.00  0.00     0.258 C 
HETATM    4  O   UNK N   1      30.180  23.056  -1.276  0.00  0.00    -0.265 OA
BRANCH   3   5
HETATM    5  O   UNK N   1      31.814  21.963  -2.349  0.00  0.00    -0.326 OA
HETATM    6  C   UNK N   1      32.500  21.678  -3.506  0.00  0.00     0.213 C 
ENDBRANCH   3   5
ENDBRANCH   2   3
ENDBRANCH   1   2
BRANCH   1   7
HETATM    7  C   UNK N   1      28.828  25.238  -4.367  0.00  0.00     0.000 C 
BRANCH   7   8
HETATM    8  C   UNK N   1      27.648  24.584  -3.696  0.00  0.00     0.000 C 
BRANCH   8   9
HETATM    9  C   UNK N   1      26.372  25.329  -3.990  0.00  0.00     0.000 C 
BRANCH   9  10
HETATM   10  C   UNK N   1      26.557  26.734  -3.469  0.00  0.00    -0.000 C 
BRANCH  10  11
HETATM   11  C   UNK N   1      25.561  27.669  -4.110  0.00  0.00    -0.005 C 
HETATM   12  C   UNK N   1      25.152  27.089  -5.446  0.00  0.00     0.005 C 
ENDBRANCH  10  11
ENDBRANCH   9  10
ENDBRANCH   8   9
ENDBRANCH   7   8
ENDBRANCH   1   7
TORSDOF 8
ENDMDL
MODEL 4
REMARK VINA RESULT:      -4.3     11.328     12.899
REMARK  8 active torsions:
REMARK  status: ('A' for Active; 'I' for Inactive)
REMARK    1  A    between atoms: C_1  and  C_2 
REMARK    2  A    between atoms: C_1  and  O_11 
REMARK    3  A    between atoms: C_2  and  C_3 
REMARK    4  A    between atoms: C_3  and  C_4 
REMARK    5  A    between atoms: C_4  and  C_5 
REMARK    6  A    between atoms: C_5  and  C_6 
REMARK    7  A    between atoms: C_6  and  C_7 
REMARK    8  A    between atoms: C_7  and  C_8 
ROOT
HETATM    1  C   UNK N   1      19.773  16.079   8.754  0.00  0.00     0.010 C 
ENDROOT
BRANCH   1   2
HETATM    2  C   UNK N   1      19.815  17.556   8.419  0.00  0.00     0.111 C 
BRANCH   2   3
HETATM    3  C   UNK N   1      19.313  18.392   9.559  0.00  0.00     0.258 C 
HETATM    4  O   UNK N   1      19.966  19.346   9.967  0.00  0.00    -0.265 OA
BRANCH   3   5
HETATM    5  O   UNK N   1      18.130  18.075  10.130  0.00  0.00    -0.326 OA
HETATM    6  C   UNK N   1      17.551  18.858  11.102  0.00  0.00     0.213 C 
ENDBRANCH   3   5
ENDBRANCH   2   3
ENDBRANCH   1   2
BRANCH   1   7
HETATM    7  C   UNK N   1      21.082  15.415   8.416  0.00  0.00     0.000 C 
BRANCH   7   8
HETATM    8  C   UNK N   1      21.423  14.526   9.585  0.00  0.00     0.000 C 
BRANCH   8   9
HETATM    9  C   UNK N   1      20.311  13.552   9.870  0.00  0.00     0.000 C 
BRANCH   9  10
HETATM   10  C   UNK N   1      20.839  12.571  10.890  0.00  0.00    -0.000 C 
BRANCH  10  11
HETATM   11  C   UNK N   1      22.233  12.127  10.522  0.00  0.00    -0.005 C 
HETATM   12  C   UNK N   1      23.047  12.002  11.791  0.00  0.00     0.005 C 
ENDBRANCH  10  11
ENDBRANCH   9  10
ENDBRANCH   8   9
ENDBRANCH   7   8
ENDBRANCH   1   7
TORSDOF 8
ENDMDL
MODEL 5
REMARK VINA RESULT:      -4.2     10.263     12.516
REMARK  8 active torsions:
REMARK  status: ('A' for Active; 'I' for Inactive)
REMARK    1  A    between atoms: C_1  and  C_2 
REMARK    2  A    between atoms: C_1  and  O_11 
REMARK    3  A    between atoms: C_2  and  C_3 
REMARK    4  A    between atoms: C_3  and  C_4 
REMARK    5  A    between atoms: C_4  and  C_5 
REMARK    6  A    between atoms: C_5  and  C_6 
REMARK    7  A    between atoms: C_6  and  C_7 
REMARK    8  A    between atoms: C_7  and  C_8 
ROOT
HETATM    1  C   UNK N   1      21.099  14.912   9.036  0.00  0.00     0.010 C 
ENDROOT
BRANCH   1   2
HETATM    2  C   UNK N   1      20.509  16.270   8.716  0.00  0.00     0.111 C 
BRANCH   2   3
HETATM    3  C   UNK N   1      19.320  16.152   7.810  0.00  0.00     0.258 C 
HETATM    4  O   UNK N   1      19.436  15.671   6.688  0.00  0.00    -0.265 OA
BRANCH   3   5
HETATM    5  O   UNK N   1      18.117  16.584   8.250  0.00  0.00    -0.326 OA
HETATM    6  C   UNK N   1      17.987  17.377   9.367  0.00  0.00     0.213 C 
ENDBRANCH   3   5
ENDBRANCH   2   3
ENDBRANCH   1   2
BRANCH   1   7
HETATM    7  C   UNK N   1      20.121  14.072   9.814  0.00  0.00     0.000 C 
BRANCH   7   8
HETATM    8  C   UNK N   1      20.923  12.969  10.457  0.00  0.00     0.000 C 
BRANCH   8   9
HETATM    9  C   UNK N   1      22.359  13.006  10.003  0.00  0.00     0.000 C 
BRANCH   9  10
HETATM   10  C   UNK N   1      23.078  11.900  10.737  0.00  0.00    -0.000 C 
BRANCH  10  11
HETATM   11  C   UNK N   1      24.557  12.187  10.804  0.00  0.00    -0.005 C 
HETATM   12  C   UNK N   1      24.907  13.159   9.699  0.00  0.00     0.005 C 
ENDBRANCH  10  11
ENDBRANCH   9  10
ENDBRANCH   8   9
ENDBRANCH   7   8
ENDBRANCH   1   7
TORSDOF 8
ENDMDL
MODEL 6
REMARK VINA RESULT:      -4.2      1.508      2.452
REMARK  8 active torsions:
REMARK  status: ('A' for Active; 'I' for Inactive)
REMARK    1  A    between atoms: C_1  and  C_2 
REMARK    2  A    between atoms: C_1  and  O_11 
REMARK    3  A    between atoms: C_2  and  C_3 
REMARK    4  A    between atoms: C_3  and  C_4 
REMARK    5  A    between atoms: C_4  and  C_5 
REMARK    6  A    between atoms: C_5  and  C_6 
REMARK    7  A    between atoms: C_6  and  C_7 
REMARK    8  A    between atoms: C_7  and  C_8 
ROOT
HETATM    1  C   UNK N   1      32.100  16.774   7.007  0.00  0.00     0.010 C 
ENDROOT
BRANCH   1   2
HETATM    2  C   UNK N   1      32.597  17.699   8.098  0.00  0.00     0.111 C 
BRANCH   2   3
HETATM    3  C   UNK N   1      34.068  17.962   7.968  0.00  0.00     0.258 C 
HETATM    4  O   UNK N   1      34.566  18.190   6.871  0.00  0.00    -0.265 OA
BRANCH   3   5
HETATM    5  O   UNK N   1      34.836  17.943   9.080  0.00  0.00    -0.326 OA
HETATM    6  C   UNK N   1      34.949  16.826   9.875  0.00  0.00     0.213 C 
ENDBRANCH   3   5
ENDBRANCH   2   3
ENDBRANCH   1   2
BRANCH   1   7
HETATM    7  C   UNK N   1      30.889  17.354   6.322  0.00  0.00     0.000 C 
BRANCH   7   8
HETATM    8  C   UNK N   1      29.781  16.346   6.491  0.00  0.00     0.000 C 
BRANCH   8   9
HETATM    9  C   UNK N   1      28.468  17.024   6.780  0.00  0.00     0.000 C 
BRANCH   9  10
HETATM   10  C   UNK N   1      28.789  18.294   7.532  0.00  0.00    -0.000 C 
BRANCH  10  11
HETATM   11  C   UNK N   1      28.351  18.179   8.971  0.00  0.00    -0.005 C 
HETATM   12  C   UNK N   1      29.517  18.555   9.859  0.00  0.00     0.005 C 
ENDBRANCH  10  11
ENDBRANCH   9  10
ENDBRANCH   8   9
ENDBRANCH   7   8
ENDBRANCH   1   7
TORSDOF 8
ENDMDL
MODEL 7
REMARK VINA RESULT:      -4.2      3.290      5.292
REMARK  8 active torsions:
REMARK  status: ('A' for Active; 'I' for Inactive)
REMARK    1  A    between atoms: C_1  and  C_2 
REMARK    2  A    between atoms: C_1  and  O_11 
REMARK    3  A    between atoms: C_2  and  C_3 
REMARK    4  A    between atoms: C_3  and  C_4 
REMARK    5  A    between atoms: C_4  and  C_5 
REMARK    6  A    between atoms: C_5  and  C_6 
REMARK    7  A    between atoms: C_6  and  C_7 
REMARK    8  A    between atoms: C_7  and  C_8 
ROOT
HETATM    1  C   UNK N   1      30.917  18.326   8.761  0.00  0.00     0.010 C 
ENDROOT
BRANCH   1   2
HETATM    2  C   UNK N   1      29.755  18.505   9.715  0.00  0.00     0.111 C 
BRANCH   2   3
HETATM    3  C   UNK N   1      28.440  18.300   9.024  0.00  0.00     0.258 C 
HETATM    4  O   UNK N   1      27.658  17.440   9.413  0.00  0.00    -0.265 OA
BRANCH   3   5
HETATM    5  O   UNK N   1      28.132  19.080   7.963  0.00  0.00    -0.326 OA
HETATM    6  C   UNK N   1      27.853  18.554   6.723  0.00  0.00     0.213 C 
ENDBRANCH   3   5
ENDBRANCH   2   3
ENDBRANCH   1   2
BRANCH   1   7
HETATM    7  C   UNK N   1      30.913  16.943   8.163  0.00  0.00     0.000 C 
BRANCH   7   8
HETATM    8  C   UNK N   1      31.367  17.095   6.734  0.00  0.00     0.000 C 
BRANCH   8   9
HETATM    9  C   UNK N   1      32.856  16.905   6.614  0.00  0.00     0.000 C 
BRANCH   9  10
HETATM   10  C   UNK N   1      33.274  17.541   5.309  0.00  0.00    -0.000 C 
BRANCH  10  11
HETATM   11  C   UNK N   1      32.105  17.610   4.358  0.00  0.00    -0.005 C 
HETATM   12  C   UNK N   1      32.495  16.920   3.069  0.00  0.00     0.005 C 
ENDBRANCH  10  11
ENDBRANCH   9  10
ENDBRANCH   8   9
ENDBRANCH   7   8
ENDBRANCH   1   7
TORSDOF 8
ENDMDL
MODEL 8
REMARK VINA RESULT:      -4.1      1.247      1.740
REMARK  8 active torsions:
REMARK  status: ('A' for Active; 'I' for Inactive)
REMARK    1  A    between atoms: C_1  and  C_2 
REMARK    2  A    between atoms: C_1  and  O_11 
REMARK    3  A    between atoms: C_2  and  C_3 
REMARK    4  A    between atoms: C_3  and  C_4 
REMARK    5  A    between atoms: C_4  and  C_5 
REMARK    6  A    between atoms: C_5  and  C_6 
REMARK    7  A    between atoms: C_6  and  C_7 
REMARK    8  A    between atoms: C_7  and  C_8 
ROOT
HETATM    1  C   UNK N   1      32.043  17.167   8.474  0.00  0.00     0.010 C 
ENDROOT
BRANCH   1   2
HETATM    2  C   UNK N   1      33.186  17.769   7.684  0.00  0.00     0.111 C 
BRANCH   2   3
HETATM    3  C   UNK N   1      34.339  18.128   8.574  0.00  0.00     0.258 C 
HETATM    4  O   UNK N   1      35.055  19.088   8.311  0.00  0.00    -0.265 OA
BRANCH   3   5
HETATM    5  O   UNK N   1      34.578  17.373   9.670  0.00  0.00    -0.326 OA
HETATM    6  C   UNK N   1      35.231  16.165   9.601  0.00  0.00     0.213 C 
ENDBRANCH   3   5
ENDBRANCH   2   3
ENDBRANCH   1   2
BRANCH   1   7
HETATM    7  C   UNK N   1      30.967  18.192   8.728  0.00  0.00     0.000 C 
BRANCH   7   8
HETATM    8  C   UNK N   1      29.823  17.844   7.810  0.00  0.00     0.000 C 
BRANCH   8   9
HETATM    9  C   UNK N   1      28.645  18.753   8.041  0.00  0.00     0.000 C 
BRANCH   9  10
HETATM   10  C   UNK N   1      27.825  18.736   6.773  0.00  0.00    -0.000 C 
BRANCH  10  11
HETATM   11  C   UNK N   1      27.680  20.132   6.221  0.00  0.00    -0.005 C 
HETATM   12  C   UNK N   1      27.799  20.066   4.713  0.00  0.00     0.005 C 
ENDBRANCH  10  11
ENDBRANCH   9  10
ENDBRANCH   8   9
ENDBRANCH   7   8
ENDBRANCH   1   7
TORSDOF 8
ENDMDL
MODEL 9
REMARK VINA RESULT:      -4.1     10.240     11.730
REMARK  8 active torsions:
REMARK  status: ('A' for Active; 'I' for Inactive)
REMARK    1  A    between atoms: C_1  and  C_2 
REMARK    2  A    between atoms: C_1  and  O_11 
REMARK    3  A    between atoms: C_2  and  C_3 
REMARK    4  A    between atoms: C_3  and  C_4 
REMARK    5  A    between atoms: C_4  and  C_5 
REMARK    6  A    between atoms: C_5  and  C_6 
REMARK    7  A    between atoms: C_6  and  C_7 
REMARK    8  A    between atoms: C_7  and  C_8 
ROOT
HETATM    1  C   UNK N   1      34.952  12.988  17.340  0.00  0.00     0.010 C 
ENDROOT
BRANCH   1   2
HETATM    2  C   UNK N   1      35.840  14.210  17.240  0.00  0.00     0.111 C 
BRANCH   2   3
HETATM    3  C   UNK N   1      36.521  14.286  15.906  0.00  0.00     0.258 C 
HETATM    4  O   UNK N   1      37.576  14.899  15.778  0.00  0.00    -0.265 OA
BRANCH   3   5
HETATM    5  O   UNK N   1      35.953  13.668  14.846  0.00  0.00    -0.326 OA
HETATM    6  C   UNK N   1      36.694  12.974  13.919  0.00  0.00     0.213 C 
ENDBRANCH   3   5
ENDBRANCH   2   3
ENDBRANCH   1   2
BRANCH   1   7
HETATM    7  C   UNK N   1      35.315  12.158  18.545  0.00  0.00     0.000 C 
BRANCH   7   8
HETATM    8  C   UNK N   1      35.258  10.718  18.102  0.00  0.00     0.000 C 
BRANCH   8   9
HETATM    9  C   UNK N   1      35.930  10.532  16.768  0.00  0.00     0.000 C 
BRANCH   9  10
HETATM   10  C   UNK N   1      35.176   9.440  16.047  0.00  0.00    -0.000 C 
BRANCH  10  11
HETATM   11  C   UNK N   1      34.857   9.864  14.634  0.00  0.00    -0.005 C 
HETATM   12  C   UNK N   1      33.639  10.762  14.667  0.00  0.00     0.005 C 
ENDBRANCH  10  11
ENDBRANCH   9  10
ENDBRANCH   8   9
ENDBRANCH   7   8
ENDBRANCH   1   7
TORSDOF 8
ENDMDL
