MODEL 1
REMARK VINA RESULT:      -6.4      0.000      0.000
REMARK  8 active torsions:
REMARK  status: ('A' for Active; 'I' for Inactive)
REMARK    1  A    between atoms: O_2  and  C_3 
REMARK    2  A    between atoms: C_3  and  C_4 
REMARK    3  A    between atoms: C_4  and  C_5 
REMARK    4  A    between atoms: C_5  and  C_7 
REMARK       I    between atoms: C_7  and  N_8 
REMARK    5  A    between atoms: C_12  and  N_8 
REMARK    6  A    between atoms: O_10  and  C_11 
REMARK    7  A    between atoms: C_11  and  C_12 
REMARK    8  A    between atoms: C_12  and  C_13 
ROOT
HETATM    1  C   UNK N   1      33.542  17.518   8.893  0.00  0.00     0.215 C 
ENDROOT
BRANCH   1   2
HETATM    2  N   UNK N   1      34.174  16.256   9.256  0.00  0.00    -0.343 N 
HETATM    3  C   UNK N   1      35.245  16.168  10.088  0.00  0.00     0.219 C 
HETATM    4  O   UNK N   1      35.661  17.152  10.677  0.00  0.00    -0.274 OA
HETATM    5  H   UNK N   1      33.806  15.424   8.878  0.00  0.00     0.163 HD
BRANCH   3   6
HETATM    6  C   UNK N   1      35.970  14.868  10.222  0.00  0.00     0.113 C 
BRANCH   6   7
HETATM    7  C   UNK N   1      35.257  13.907  11.160  0.00  0.00     0.119 C 
BRANCH   7   8
HETATM    8  C   UNK N   1      35.556  14.179  12.605  0.00  0.00     0.139 C 
HETATM    9  O   UNK N   1      34.947  13.603  13.495  0.00  0.00    -0.650 OA
BRANCH   8  10
HETATM   10  O   UNK N   1      36.502  15.082  12.923  0.00  0.00    -0.776 OA
HETATM   11  H   UNK N   1      37.066  15.424  12.257  0.00  0.00     0.167 HD
ENDBRANCH   8  10
ENDBRANCH   7   8
ENDBRANCH   6   7
ENDBRANCH   3   6
ENDBRANCH   1   2
BRANCH   1  12
HETATM   12  C   UNK N   1      34.456  18.306   7.972  0.00  0.00     0.168 C 
HETATM   13  O   UNK N   1      34.465  18.092   6.768  0.00  0.00    -0.648 OA
BRANCH  12  14
HETATM   14  O   UNK N   1      35.273  19.249   8.478  0.00  0.00    -0.775 OA
HETATM   15  H   UNK N   1      36.183  19.348   8.278  0.00  0.00     0.167 HD
ENDBRANCH  12  14
ENDBRANCH   1  12
BRANCH   1  16
HETATM   16  C   UNK N   1      32.208  17.263   8.215  0.00  0.00    -0.025 A 
HETATM   17  C   UNK N   1      32.088  16.240   7.261  0.00  0.00     0.010 A 
HETATM   18  C   UNK N   1      30.863  15.991   6.634  0.00  0.00     0.001 A 
HETATM   19  C   UNK N   1      29.749  16.775   6.943  0.00  0.00     0.000 A 
HETATM   20  C   UNK N   1      29.858  17.806   7.879  0.00  0.00     0.001 A 
HETATM   21  C   UNK N   1      31.079  18.046   8.515  0.00  0.00     0.010 A 
ENDBRANCH   1  16
TORSDOF 8
ENDMDL
MODEL 2
REMARK VINA RESULT:      -6.2      3.455      5.402
REMARK  8 active torsions:
REMARK  status: ('A' for Active; 'I' for Inactive)
REMARK    1  A    between atoms: O_2  and  C_3 
REMARK    2  A    between atoms: C_3  and  C_4 
REMARK    3  A    between atoms: C_4  and  C_5 
REMARK    4  A    between atoms: C_5  and  C_7 
REMARK       I    between atoms: C_7  and  N_8 
REMARK    5  A    between atoms: C_12  and  N_8 
REMARK    6  A    between atoms: O_10  and  C_11 
REMARK    7  A    between atoms: C_11  and  C_12 
REMARK    8  A    between atoms: C_12  and  C_13 
ROOT
HETATM    1  C   UNK N   1      29.088  17.643   7.680  0.00  0.00     0.215 C 
ENDROOT
BRANCH   1   2
HETATM    2  N   UNK N   1      30.539  17.624   7.553  0.00  0.00    -0.343 N 
HETATM    3  C   UNK N   1      31.234  16.562   7.066  0.00  0.00     0.219 C 
HETATM    4  O   UNK N   1      30.652  15.600   6.590  0.00  0.00    -0.274 OA
HETATM    5  H   UNK N   1      31.043  18.422   7.835  0.00  0.00     0.163 HD
BRANCH   3   6
HETATM    6  C   UNK N   1      32.723  16.537   7.184  0.00  0.00     0.113 C 
BRANCH   6   7
HETATM    7  C   UNK N   1      33.321  17.935   7.211  0.00  0.00     0.119 C 
BRANCH   7   8
HETATM    8  C   UNK N   1      34.244  18.148   8.374  0.00  0.00     0.139 C 
HETATM    9  O   UNK N   1      34.216  17.409   9.346  0.00  0.00    -0.650 OA
BRANCH   8  10
HETATM   10  O   UNK N   1      35.108  19.180   8.347  0.00  0.00    -0.776 OA
HETATM   11  H   UNK N   1      35.974  19.076   8.690  0.00  0.00     0.167 HD
ENDBRANCH   8  10
ENDBRANCH   7   8
ENDBRANCH   6   7
ENDBRANCH   3   6
ENDBRANCH   1   2
BRANCH   1  12
HETATM   12  C   UNK N   1      28.699  18.091   9.078  0.00  0.00     0.168 C 
HETATM   13  O   UNK N   1      29.514  18.635   9.809  0.00  0.00    -0.648 OA
BRANCH  12  14
HETATM   14  O   UNK N   1      27.447  17.883   9.529  0.00  0.00    -0.775 OA
HETATM   15  H   UNK N   1      26.668  18.257   9.169  0.00  0.00     0.167 HD
ENDBRANCH  12  14
ENDBRANCH   1  12
BRANCH   1  16
HETATM   16  C   UNK N   1      28.480  18.573   6.645  0.00  0.00    -0.025 A 
HETATM   17  C   UNK N   1      28.432  18.187   5.295  0.00  0.00     0.010 A 
HETATM   18  C   UNK N   1      27.869  19.031   4.334  0.00  0.00     0.001 A 
HETATM   19  C   UNK N   1      27.362  20.277   4.709  0.00  0.00     0.000 A 
HETATM   20  C   UNK N   1      27.418  20.679   6.046  0.00  0.00     0.001 A 
HETATM   21  C   UNK N   1      27.969  19.831   7.010  0.00  0.00     0.010 A 
ENDBRANCH   1  16
TORSDOF 8
ENDMDL
MODEL 3
REMARK VINA RESULT:      -6.2      3.412      8.218
REMARK  8 active torsions:
REMARK  status: ('A' for Active; 'I' for Inactive)
REMARK    1  A    between atoms: O_2  and  C_3 
REMARK    2  A    between atoms: C_3  and  C_4 
REMARK    3  A    between atoms: C_4  and  C_5 
REMARK    4  A    between atoms: C_5  and  C_7 
REMARK       I    between atoms: C_7  and  N_8 
REMARK    5  A    between atoms: C_12  and  N_8 
REMARK    6  A    between atoms: O_10  and  C_11 
REMARK    7  A    between atoms: C_11  and  C_12 
REMARK    8  A    between atoms: C_12  and  C_13 
ROOT
HETATM    1  C   UNK N   1      36.328  12.962  14.179  0.00  0.00     0.215 C 
ENDROOT
BRANCH   1   2
HETATM    2  N   UNK N   1      36.750  13.780  13.050  0.00  0.00    -0.343 N 
HETATM    3  C   UNK N   1      35.890  14.266  12.116  0.00  0.00     0.219 C 
HETATM    4  O   UNK N   1      34.684  14.136  12.249  0.00  0.00    -0.274 OA
HETATM    5  H   UNK N   1      37.707  13.992  12.959  0.00  0.00     0.163 HD
BRANCH   3   6
HETATM    6  C   UNK N   1      36.430  14.897  10.873  0.00  0.00     0.113 C 
BRANCH   6   7
HETATM    7  C   UNK N   1      35.325  15.324   9.919  0.00  0.00     0.119 C 
BRANCH   7   8
HETATM    8  C   UNK N   1      35.039  16.795   9.987  0.00  0.00     0.139 C 
HETATM    9  O   UNK N   1      35.874  17.582  10.405  0.00  0.00    -0.650 OA
BRANCH   8  10
HETATM   10  O   UNK N   1      33.835  17.249   9.591  0.00  0.00    -0.776 OA
HETATM   11  H   UNK N   1      33.295  17.728  10.188  0.00  0.00     0.167 HD
ENDBRANCH   8  10
ENDBRANCH   7   8
ENDBRANCH   6   7
ENDBRANCH   3   6
ENDBRANCH   1   2
BRANCH   1  12
HETATM   12  C   UNK N   1      37.241  11.756  14.312  0.00  0.00     0.168 C 
HETATM   13  O   UNK N   1      36.778  10.627  14.388  0.00  0.00    -0.648 OA
BRANCH  12  14
HETATM   14  O   UNK N   1      38.577  11.922  14.354  0.00  0.00    -0.775 OA
HETATM   15  H   UNK N   1      39.075  12.483  13.794  0.00  0.00     0.167 HD
ENDBRANCH  12  14
ENDBRANCH   1  12
BRANCH   1  16
HETATM   16  C   UNK N   1      36.350  13.778  15.459  0.00  0.00    -0.025 A 
HETATM   17  C   UNK N   1      37.179  14.908  15.558  0.00  0.00     0.010 A 
HETATM   18  C   UNK N   1      37.202  15.671  16.729  0.00  0.00     0.001 A 
HETATM   19  C   UNK N   1      36.410  15.304  17.819  0.00  0.00     0.000 A 
HETATM   20  C   UNK N   1      35.593  14.174  17.739  0.00  0.00     0.001 A 
HETATM   21  C   UNK N   1      35.559  13.417  16.564  0.00  0.00     0.010 A 
ENDBRANCH   1  16
TORSDOF 8
ENDMDL
MODEL 4
REMARK VINA RESULT:      -6.1      3.836      6.080
REMARK  8 active torsions:
REMARK  status: ('A' for Active; 'I' for Inactive)
REMARK    1  A    between atoms: O_2  and  C_3 
REMARK    2  A    between atoms: C_3  and  C_4 
REMARK    3  A    between atoms: C_4  and  C_5 
REMARK    4  A    between atoms: C_5  and  C_7 
REMARK       I    between atoms: C_7  and  N_8 
REMARK    5  A    between atoms: C_12  and  N_8 
REMARK    6  A    between atoms: O_10  and  C_11 
REMARK    7  A    between atoms: C_11  and  C_12 
REMARK    8  A    between atoms: C_12  and  C_13 
ROOT
HETATM    1  C   UNK N   1      28.616  17.487   6.941  0.00  0.00     0.215 C 
ENDROOT
BRANCH   1   2
HETATM    2  N   UNK N   1      29.699  17.961   7.791  0.00  0.00    -0.343 N 
HETATM    3  C   UNK N   1      30.994  17.573   7.639  0.00  0.00     0.219 C 
HETATM    4  O   UNK N   1      31.333  16.887   6.689  0.00  0.00    -0.274 OA
HETATM    5  H   UNK N   1      29.484  18.595   8.513  0.00  0.00     0.163 HD
BRANCH   3   6
HETATM    6  C   UNK N   1      31.998  17.923   8.690  0.00  0.00     0.113 C 
BRANCH   6   7
HETATM    7  C   UNK N   1      33.339  17.249   8.450  0.00  0.00     0.119 C 
BRANCH   7   8
HETATM    8  C   UNK N   1      34.303  18.126   7.706  0.00  0.00     0.139 C 
HETATM    9  O   UNK N   1      34.514  17.963   6.513  0.00  0.00    -0.650 OA
BRANCH   8  10
HETATM   10  O   UNK N   1      34.954  19.100   8.370  0.00  0.00    -0.776 OA
HETATM   11  H   UNK N   1      34.903  19.146   9.304  0.00  0.00     0.167 HD
ENDBRANCH   8  10
ENDBRANCH   7   8
ENDBRANCH   6   7
ENDBRANCH   3   6
ENDBRANCH   1   2
BRANCH   1  12
HETATM   12  C   UNK N   1      27.540  16.836   7.793  0.00  0.00     0.168 C 
HETATM   13  O   UNK N   1      26.767  16.022   7.309  0.00  0.00    -0.648 OA
BRANCH  12  14
HETATM   14  O   UNK N   1      27.424  17.158   9.095  0.00  0.00    -0.775 OA
HETATM   15  H   UNK N   1      27.045  17.946   9.432  0.00  0.00     0.167 HD
ENDBRANCH  12  14
ENDBRANCH   1  12
BRANCH   1  16
HETATM   16  C   UNK N   1      28.028  18.637   6.145  0.00  0.00    -0.025 A 
HETATM   17  C   UNK N   1      27.675  19.833   6.793  0.00  0.00     0.010 A 
HETATM   18  C   UNK N   1      27.139  20.902   6.069  0.00  0.00     0.001 A 
HETATM   19  C   UNK N   1      26.935  20.782   4.692  0.00  0.00     0.000 A 
HETATM   20  C   UNK N   1      27.267  19.593   4.039  0.00  0.00     0.001 A 
HETATM   21  C   UNK N   1      27.815  18.528   4.759  0.00  0.00     0.010 A 
ENDBRANCH   1  16
TORSDOF 8
ENDMDL
MODEL 5
REMARK VINA RESULT:      -6.1      2.724      7.265
REMARK  8 active torsions:
REMARK  status: ('A' for Active; 'I' for Inactive)
REMARK    1  A    between atoms: O_2  and  C_3 
REMARK    2  A    between atoms: C_3  and  C_4 
REMARK    3  A    between atoms: C_4  and  C_5 
REMARK    4  A    between atoms: C_5  and  C_7 
REMARK       I    between atoms: C_7  and  N_8 
REMARK    5  A    between atoms: C_12  and  N_8 
REMARK    6  A    between atoms: O_10  and  C_11 
REMARK    7  A    between atoms: C_11  and  C_12 
REMARK    8  A    between atoms: C_12  and  C_13 
ROOT
HETATM    1  C   UNK N   1      35.831  13.550  12.103  0.00  0.00     0.215 C 
ENDROOT
BRANCH   1   2
HETATM    2  N   UNK N   1      35.919  14.929  11.642  0.00  0.00    -0.343 N 
HETATM    3  C   UNK N   1      34.951  15.536  10.905  0.00  0.00     0.219 C 
HETATM    4  O   UNK N   1      33.887  14.978  10.692  0.00  0.00    -0.274 OA
HETATM    5  H   UNK N   1      36.722  15.449  11.876  0.00  0.00     0.163 HD
BRANCH   3   6
HETATM    6  C   UNK N   1      35.223  16.867  10.282  0.00  0.00     0.113 C 
BRANCH   6   7
HETATM    7  C   UNK N   1      34.199  17.221   9.214  0.00  0.00     0.119 C 
BRANCH   7   8
HETATM    8  C   UNK N   1      34.712  18.233   8.233  0.00  0.00     0.139 C 
HETATM    9  O   UNK N   1      34.524  18.100   7.033  0.00  0.00    -0.650 OA
BRANCH   8  10
HETATM   10  O   UNK N   1      35.401  19.297   8.685  0.00  0.00    -0.776 OA
HETATM   11  H   UNK N   1      34.992  20.139   8.724  0.00  0.00     0.167 HD
ENDBRANCH   8  10
ENDBRANCH   7   8
ENDBRANCH   6   7
ENDBRANCH   3   6
ENDBRANCH   1   2
BRANCH   1  12
HETATM   12  C   UNK N   1      37.020  12.757  11.588  0.00  0.00     0.168 C 
HETATM   13  O   UNK N   1      36.942  11.548  11.429  0.00  0.00    -0.648 OA
BRANCH  12  14
HETATM   14  O   UNK N   1      38.178  13.384  11.308  0.00  0.00    -0.775 OA
HETATM   15  H   UNK N   1      38.260  14.229  10.913  0.00  0.00     0.167 HD
ENDBRANCH  12  14
ENDBRANCH   1  12
BRANCH   1  16
HETATM   16  C   UNK N   1      35.787  13.503  13.619  0.00  0.00    -0.025 A 
HETATM   17  C   UNK N   1      34.858  12.674  14.270  0.00  0.00     0.010 A 
HETATM   18  C   UNK N   1      34.813  12.616  15.666  0.00  0.00     0.001 A 
HETATM   19  C   UNK N   1      35.684  13.400  16.426  0.00  0.00     0.000 A 
HETATM   20  C   UNK N   1      36.601  14.240  15.792  0.00  0.00     0.001 A 
HETATM   21  C   UNK N   1      36.656  14.289  14.396  0.00  0.00     0.010 A 
ENDBRANCH   1  16
TORSDOF 8
ENDMDL
MODEL 6
REMARK VINA RESULT:      -6.0      1.643      2.309
REMARK  8 active torsions:
REMARK  status: ('A' for Active; 'I' for Inactive)
REMARK    1  A    between atoms: O_2  and  C_3 
REMARK    2  A    between atoms: C_3  and  C_4 
REMARK    3  A    between atoms: C_4  and  C_5 
REMARK    4  A    between atoms: C_5  and  C_7 
REMARK       I    between atoms: C_7  and  N_8 
REMARK    5  A    between atoms: C_12  and  N_8 
REMARK    6  A    between atoms: O_10  and  C_11 
REMARK    7  A    between atoms: C_11  and  C_12 
REMARK    8  A    between atoms: C_12  and  C_13 
ROOT
HETATM    1  C   UNK N   1      33.436  17.530   8.395  0.00  0.00     0.215 C 
ENDROOT
BRANCH   1   2
HETATM    2  N   UNK N   1      33.753  16.626   9.492  0.00  0.00    -0.343 N 
HETATM    3  C   UNK N   1      34.848  16.767  10.285  0.00  0.00     0.219 C 
HETATM    4  O   UNK N   1      35.567  17.748  10.188  0.00  0.00    -0.274 OA
HETATM    5  H   UNK N   1      33.144  15.873   9.668  0.00  0.00     0.163 HD
BRANCH   3   6
HETATM    6  C   UNK N   1      35.220  15.672  11.232  0.00  0.00     0.113 C 
BRANCH   6   7
HETATM    7  C   UNK N   1      35.559  14.378  10.508  0.00  0.00     0.119 C 
BRANCH   7   8
HETATM    8  C   UNK N   1      36.786  14.496   9.653  0.00  0.00     0.139 C 
HETATM    9  O   UNK N   1      36.778  14.138   8.485  0.00  0.00    -0.650 OA
BRANCH   8  10
HETATM   10  O   UNK N   1      37.916  14.994  10.189  0.00  0.00    -0.776 OA
HETATM   11  H   UNK N   1      38.533  15.446   9.647  0.00  0.00     0.167 HD
ENDBRANCH   8  10
ENDBRANCH   7   8
ENDBRANCH   6   7
ENDBRANCH   3   6
ENDBRANCH   1   2
BRANCH   1  12
HETATM   12  C   UNK N   1      34.201  17.118   7.149  0.00  0.00     0.168 C 
HETATM   13  O   UNK N   1      34.349  17.899   6.221  0.00  0.00    -0.648 OA
BRANCH  12  14
HETATM   14  O   UNK N   1      34.719  15.879   7.054  0.00  0.00    -0.775 OA
HETATM   15  H   UNK N   1      35.318  15.489   7.660  0.00  0.00     0.167 HD
ENDBRANCH  12  14
ENDBRANCH   1  12
BRANCH   1  16
HETATM   16  C   UNK N   1      31.943  17.521   8.119  0.00  0.00    -0.025 A 
HETATM   17  C   UNK N   1      31.086  18.349   8.863  0.00  0.00     0.010 A 
HETATM   18  C   UNK N   1      29.710  18.355   8.614  0.00  0.00     0.001 A 
HETATM   19  C   UNK N   1      29.175  17.520   7.630  0.00  0.00     0.000 A 
HETATM   20  C   UNK N   1      30.014  16.681   6.895  0.00  0.00     0.001 A 
HETATM   21  C   UNK N   1      31.391  16.684   7.134  0.00  0.00     0.010 A 
ENDBRANCH   1  16
TORSDOF 8
ENDMDL
MODEL 7
REMARK VINA RESULT:      -5.9      2.706      3.493
REMARK  8 active torsions:
REMARK  status: ('A' for Active; 'I' for Inactive)
REMARK    1  A    between atoms: O_2  and  C_3 
REMARK    2  A    between atoms: C_3  and  C_4 
REMARK    3  A    between atoms: C_4  and  C_5 
REMARK    4  A    between atoms: C_5  and  C_7 
REMARK       I    between atoms: C_7  and  N_8 
REMARK    5  A    between atoms: C_12  and  N_8 
REMARK    6  A    between atoms: O_10  and  C_11 
REMARK    7  A    between atoms: C_11  and  C_12 
REMARK    8  A    between atoms: C_12  and  C_13 
ROOT
HETATM    1  C   UNK N   1      31.109  16.435   8.163  0.00  0.00     0.215 C 
ENDROOT
BRANCH   1   2
HETATM    2  N   UNK N   1      32.246  16.190   9.040  0.00  0.00    -0.343 N 
HETATM    3  C   UNK N   1      32.700  14.946   9.348  0.00  0.00     0.219 C 
HETATM    4  O   UNK N   1      32.240  13.959   8.796  0.00  0.00    -0.274 OA
HETATM    5  H   UNK N   1      32.710  16.966   9.431  0.00  0.00     0.163 HD
BRANCH   3   6
HETATM    6  C   UNK N   1      33.717  14.778  10.429  0.00  0.00     0.113 C 
BRANCH   6   7
HETATM    7  C   UNK N   1      35.136  14.982   9.921  0.00  0.00     0.119 C 
BRANCH   7   8
HETATM    8  C   UNK N   1      35.813  16.162  10.553  0.00  0.00     0.139 C 
HETATM    9  O   UNK N   1      35.211  17.207  10.747  0.00  0.00    -0.650 OA
BRANCH   8  10
HETATM   10  O   UNK N   1      37.110  16.067  10.902  0.00  0.00    -0.776 OA
HETATM   11  H   UNK N   1      37.384  16.314  11.763  0.00  0.00     0.167 HD
ENDBRANCH   8  10
ENDBRANCH   7   8
ENDBRANCH   6   7
ENDBRANCH   3   6
ENDBRANCH   1   2
BRANCH   1  12
HETATM   12  C   UNK N   1      30.211  17.499   8.768  0.00  0.00     0.168 C 
HETATM   13  O   UNK N   1      28.996  17.369   8.760  0.00  0.00    -0.648 OA
BRANCH  12  14
HETATM   14  O   UNK N   1      30.750  18.605   9.315  0.00  0.00    -0.775 OA
HETATM   15  H   UNK N   1      30.628  18.894  10.197  0.00  0.00     0.167 HD
ENDBRANCH  12  14
ENDBRANCH   1  12
BRANCH   1  16
HETATM   16  C   UNK N   1      31.587  16.871   6.790  0.00  0.00    -0.025 A 
HETATM   17  C   UNK N   1      30.672  16.986   5.730  0.00  0.00     0.010 A 
HETATM   18  C   UNK N   1      31.099  17.394   4.463  0.00  0.00     0.001 A 
HETATM   19  C   UNK N   1      32.448  17.676   4.237  0.00  0.00     0.000 A 
HETATM   20  C   UNK N   1      33.371  17.551   5.278  0.00  0.00     0.001 A 
HETATM   21  C   UNK N   1      32.943  17.156   6.549  0.00  0.00     0.010 A 
ENDBRANCH   1  16
TORSDOF 8
ENDMDL
MODEL 8
REMARK VINA RESULT:      -5.8     14.258     16.800
REMARK  8 active torsions:
REMARK  status: ('A' for Active; 'I' for Inactive)
REMARK    1  A    between atoms: O_2  and  C_3 
REMARK    2  A    between atoms: C_3  and  C_4 
REMARK    3  A    between atoms: C_4  and  C_5 
REMARK    4  A    between atoms: C_5  and  C_7 
REMARK       I    between atoms: C_7  and  N_8 
REMARK    5  A    between atoms: C_12  and  N_8 
REMARK    6  A    between atoms: O_10  and  C_11 
REMARK    7  A    between atoms: C_11  and  C_12 
REMARK    8  A    between atoms: C_12  and  C_13 
ROOT
HETATM    1  C   UNK N   1      30.237  23.709  -3.668  0.00  0.00     0.215 C 
ENDROOT
BRANCH   1   2
HETATM    2  N   UNK N   1      29.495  24.891  -4.084  0.00  0.00    -0.343 N 
HETATM    3  C   UNK N   1      29.836  26.156  -3.718  0.00  0.00     0.219 C 
HETATM    4  O   UNK N   1      30.871  26.372  -3.109  0.00  0.00    -0.274 OA
HETATM    5  H   UNK N   1      28.706  24.769  -4.660  0.00  0.00     0.163 HD
BRANCH   3   6
HETATM    6  C   UNK N   1      28.895  27.283  -3.995  0.00  0.00     0.113 C 
BRANCH   6   7
HETATM    7  C   UNK N   1      27.542  26.795  -4.490  0.00  0.00     0.119 C 
BRANCH   7   8
HETATM    8  C   UNK N   1      26.604  26.455  -3.370  0.00  0.00     0.139 C 
HETATM    9  O   UNK N   1      25.960  27.324  -2.801  0.00  0.00    -0.650 OA
BRANCH   8  10
HETATM   10  O   UNK N   1      26.482  25.173  -2.979  0.00  0.00    -0.776 OA
HETATM   11  H   UNK N   1      25.669  24.864  -2.630  0.00  0.00     0.167 HD
ENDBRANCH   8  10
ENDBRANCH   7   8
ENDBRANCH   6   7
ENDBRANCH   3   6
ENDBRANCH   1   2
BRANCH   1  12
HETATM   12  C   UNK N   1      29.723  23.224  -2.323  0.00  0.00     0.168 C 
HETATM   13  O   UNK N   1      30.500  22.955  -1.419  0.00  0.00    -0.648 OA
BRANCH  12  14
HETATM   14  O   UNK N   1      28.400  23.081  -2.119  0.00  0.00    -0.775 OA
HETATM   15  H   UNK N   1      27.869  22.383  -2.447  0.00  0.00     0.167 HD
ENDBRANCH  12  14
ENDBRANCH   1  12
BRANCH   1  16
HETATM   16  C   UNK N   1      30.103  22.610  -4.707  0.00  0.00    -0.025 A 
HETATM   17  C   UNK N   1      30.930  21.477  -4.641  0.00  0.00     0.010 A 
HETATM   18  C   UNK N   1      30.812  20.454  -5.588  0.00  0.00     0.001 A 
HETATM   19  C   UNK N   1      29.877  20.563  -6.620  0.00  0.00     0.000 A 
HETATM   20  C   UNK N   1      29.060  21.693  -6.705  0.00  0.00     0.001 A 
HETATM   21  C   UNK N   1      29.168  22.709  -5.752  0.00  0.00     0.010 A 
ENDBRANCH   1  16
TORSDOF 8
ENDMDL
MODEL 9
REMARK VINA RESULT:      -5.7      9.816     12.666
REMARK  8 active torsions:
REMARK  status: ('A' for Active; 'I' for Inactive)
REMARK    1  A    between atoms: O_2  and  C_3 
REMARK    2  A    between atoms: C_3  and  C_4 
REMARK    3  A    between atoms: C_4  and  C_5 
REMARK    4  A    between atoms: C_5  and  C_7 
REMARK       I    between atoms: C_7  and  N_8 
REMARK    5  A    between atoms: C_12  and  N_8 
REMARK    6  A    between atoms: O_10  and  C_11 
REMARK    7  A    between atoms: C_11  and  C_12 
REMARK    8  A    between atoms: C_12  and  C_13 
ROOT
HETATM    1  C   UNK N   1      24.616  19.273   3.608  0.00  0.00     0.215 C 
ENDROOT
BRANCH   1   2
HETATM    2  N   UNK N   1      23.366  18.918   4.265  0.00  0.00    -0.343 N 
HETATM    3  C   UNK N   1      22.781  17.696   4.151  0.00  0.00     0.219 C 
HETATM    4  O   UNK N   1      23.350  16.782   3.577  0.00  0.00    -0.274 OA
HETATM    5  H   UNK N   1      22.921  19.598   4.821  0.00  0.00     0.163 HD
BRANCH   3   6
HETATM    6  C   UNK N   1      21.393  17.491   4.666  0.00  0.00     0.113 C 
BRANCH   6   7
HETATM    7  C   UNK N   1      20.338  17.963   3.677  0.00  0.00     0.119 C 
BRANCH   7   8
HETATM    8  C   UNK N   1      20.613  19.340   3.151  0.00  0.00     0.139 C 
HETATM    9  O   UNK N   1      20.933  19.519   1.985  0.00  0.00    -0.650 OA
BRANCH   8  10
HETATM   10  O   UNK N   1      20.516  20.394   3.982  0.00  0.00    -0.776 OA
HETATM   11  H   UNK N   1      21.165  20.531   4.644  0.00  0.00     0.167 HD
ENDBRANCH   8  10
ENDBRANCH   7   8
ENDBRANCH   6   7
ENDBRANCH   3   6
ENDBRANCH   1   2
BRANCH   1  12
HETATM   12  C   UNK N   1      24.430  20.543   2.797  0.00  0.00     0.168 C 
HETATM   13  O   UNK N   1      25.287  20.911   2.007  0.00  0.00    -0.648 OA
BRANCH  12  14
HETATM   14  O   UNK N   1      23.315  21.282   2.948  0.00  0.00    -0.775 OA
HETATM   15  H   UNK N   1      23.288  22.203   3.117  0.00  0.00     0.167 HD
ENDBRANCH  12  14
ENDBRANCH   1  12
BRANCH   1  16
HETATM   16  C   UNK N   1      25.717  19.465   4.636  0.00  0.00    -0.025 A 
HETATM   17  C   UNK N   1      26.585  18.404   4.943  0.00  0.00     0.010 A 
HETATM   18  C   UNK N   1      27.606  18.571   5.883  0.00  0.00     0.001 A 
HETATM   19  C   UNK N   1      27.760  19.795   6.538  0.00  0.00     0.000 A 
HETATM   20  C   UNK N   1      26.894  20.852   6.253  0.00  0.00     0.001 A 
HETATM   21  C   UNK N   1      25.881  20.691   5.304  0.00  0.00     0.010 A 
ENDBRANCH   1  16
TORSDOF 8
ENDMDL
