REMARK  8 active torsions:
REMARK  status: ('A' for Active; 'I' for Inactive)
REMARK    1  A    between atoms: O_2  and  C_3 
REMARK    2  A    between atoms: C_3  and  C_4 
REMARK    3  A    between atoms: C_4  and  C_5 
REMARK    4  A    between atoms: C_5  and  C_7 
REMARK       I    between atoms: C_7  and  N_8 
REMARK    5  A    between atoms: C_12  and  N_8 
REMARK    6  A    between atoms: O_10  and  C_11 
REMARK    7  A    between atoms: C_11  and  C_12 
REMARK    8  A    between atoms: C_12  and  C_13 
ROOT
HETATM    1  C   UNK N   1       1.106   0.384  -0.297  0.00  0.00     0.215 C 
ENDROOT
BRANCH   1   2
HETATM    2  N   UNK N   1      -0.176   0.475   0.388  0.00  0.00    -0.343 N 
HETATM    3  C   UNK N   1      -1.059   1.490   0.192  0.00  0.00     0.219 C 
HETATM    4  O   UNK N   1      -0.866   2.327  -0.675  0.00  0.00    -0.274 OA
HETATM    5  H   UNK N   1      -0.416  -0.235   1.027  0.00  0.00     0.163 HD
BRANCH   3   6
HETATM    6  C   UNK N   1      -2.239   1.628   1.099  0.00  0.00     0.113 C 
BRANCH   6   7
HETATM    7  C   UNK N   1      -3.148   0.410   1.048  0.00  0.00     0.119 C 
BRANCH   7   8
HETATM    8  C   UNK N   1      -4.374   0.637   0.214  0.00  0.00     0.139 C 
HETATM    9  O   UNK N   1      -4.545   1.689  -0.384  0.00  0.00    -0.650 OA
BRANCH   8  10
HETATM   10  O   UNK N   1      -5.305  -0.332   0.135  0.00  0.00    -0.776 OA
HETATM   11  H   UNK N   1      -6.213  -0.107   0.080  0.00  0.00     0.167 HD
ENDBRANCH   8  10
ENDBRANCH   7   8
ENDBRANCH   6   7
ENDBRANCH   3   6
ENDBRANCH   1   2
BRANCH   1  12
HETATM   12  C   UNK N   1       2.026   1.494   0.181  0.00  0.00     0.168 C 
HETATM   13  O   UNK N   1       1.669   2.266   1.059  0.00  0.00    -0.648 OA
BRANCH  12  14
HETATM   14  O   UNK N   1       3.247   1.641  -0.367  0.00  0.00    -0.775 OA
HETATM   15  H   UNK N   1       3.761   0.957  -0.748  0.00  0.00     0.167 HD
ENDBRANCH  12  14
ENDBRANCH   1  12
BRANCH   1  16
HETATM   16  C   UNK N   1       1.744  -0.970  -0.044  0.00  0.00    -0.025 A 
HETATM   17  C   UNK N   1       3.007  -1.264  -0.584  0.00  0.00     0.010 A 
HETATM   18  C   UNK N   1       3.608  -2.505  -0.352  0.00  0.00     0.001 A 
HETATM   19  C   UNK N   1       2.945  -3.471   0.408  0.00  0.00     0.000 A 
HETATM   20  C   UNK N   1       1.682  -3.197   0.937  0.00  0.00     0.001 A 
HETATM   21  C   UNK N   1       1.086  -1.952   0.717  0.00  0.00     0.010 A 
ENDBRANCH   1  16
TORSDOF 8
