MODEL 1
REMARK VINA RESULT:      -5.6      0.000      0.000
REMARK  1 active torsions:
REMARK  status: ('A' for Active; 'I' for Inactive)
REMARK    1  A    between atoms: C_1  and  O_2 
ROOT
HETATM    1  C   UNK N   1      23.909  12.294  11.308  0.00  0.00     0.093 A 
HETATM    2  C   UNK N   1      23.556  12.764  10.038  0.00  0.00     0.082 A 
HETATM    3  N   UNK N   1      24.519  13.129   9.154  0.00  0.00    -0.343 N 
ATOM      4  HN  UNK N   1      25.500  13.057   9.424  1.00  0.00     0.167 HD
HETATM    5  C   UNK N   1      24.201  13.588   7.917  0.00  0.00     0.080 A 
HETATM    6  C   UNK N   1      25.283  13.977   6.978  0.00  0.00     0.089 C 
HETATM    7  N   UNK N   1      22.898  13.691   7.539  0.00  0.00    -0.313 N 
HETATM    8  C   UNK N   1      21.885  13.336   8.393  0.00  0.00     0.259 A 
HETATM    9  O   UNK N   1      20.725  13.438   8.029  0.00  0.00    -0.267 OA
HETATM   10  C   UNK N   1      22.197  12.860   9.674  0.00  0.00     0.061 A 
HETATM   11  C   UNK N   1      21.203  12.482  10.590  0.00  0.00     0.019 A 
HETATM   12  C   UNK N   1      21.564  12.013  11.858  0.00  0.00     0.004 A 
HETATM   13  C   UNK N   1      22.913  11.919  12.214  0.00  0.00     0.039 A 
HETATM   14  H   UNK N   1      22.680  14.025   6.640  0.00  0.00     0.170 HD
ENDROOT
BRANCH   1  15
HETATM   15  O   UNK N   1      25.203  12.200  11.661  0.00  0.00    -0.358 OA
HETATM   16  H   UNK N   1      25.449  12.282  12.561  0.00  0.00     0.217 HD
ENDBRANCH   1  15
TORSDOF 1
ENDMDL
MODEL 2
REMARK VINA RESULT:      -5.5     10.424     11.719
REMARK  1 active torsions:
REMARK  status: ('A' for Active; 'I' for Inactive)
REMARK    1  A    between atoms: C_1  and  O_2 
ROOT
HETATM    1  C   UNK N   1      33.486  14.891   9.818  0.00  0.00     0.093 A 
HETATM    2  C   UNK N   1      33.561  15.988   8.954  0.00  0.00     0.082 A 
HETATM    3  N   UNK N   1      32.768  16.045   7.853  0.00  0.00    -0.343 N 
ATOM      4  HN  UNK N   1      32.118  15.281   7.664  1.00  0.00     0.167 HD
HETATM    5  C   UNK N   1      32.823  17.099   7.001  0.00  0.00     0.080 A 
HETATM    6  C   UNK N   1      31.939  17.125   5.808  0.00  0.00     0.089 C 
HETATM    7  N   UNK N   1      33.682  18.127   7.236  0.00  0.00    -0.313 N 
HETATM    8  C   UNK N   1      34.506  18.121   8.332  0.00  0.00     0.259 A 
HETATM    9  O   UNK N   1      35.267  19.055   8.521  0.00  0.00    -0.267 OA
HETATM   10  C   UNK N   1      34.462  17.039   9.224  0.00  0.00     0.061 A 
HETATM   11  C   UNK N   1      35.280  16.978  10.362  0.00  0.00     0.019 A 
HETATM   12  C   UNK N   1      35.199  15.878  11.221  0.00  0.00     0.004 A 
HETATM   13  C   UNK N   1      34.305  14.838  10.950  0.00  0.00     0.039 A 
HETATM   14  H   UNK N   1      33.713  18.885   6.610  0.00  0.00     0.170 HD
ENDROOT
BRANCH   1  15
HETATM   15  O   UNK N   1      32.629  13.886   9.566  0.00  0.00    -0.358 OA
HETATM   16  H   UNK N   1      32.839  13.244   8.916  0.00  0.00     0.217 HD
ENDBRANCH   1  15
TORSDOF 1
ENDMDL
MODEL 3
REMARK VINA RESULT:      -5.5      7.854      9.272
REMARK  1 active torsions:
REMARK  status: ('A' for Active; 'I' for Inactive)
REMARK    1  A    between atoms: C_1  and  O_2 
ROOT
HETATM    1  C   UNK N   1      26.665  20.572   7.022  0.00  0.00     0.093 A 
HETATM    2  C   UNK N   1      27.542  19.493   7.172  0.00  0.00     0.082 A 
HETATM    3  N   UNK N   1      27.754  18.952   8.399  0.00  0.00    -0.343 N 
ATOM      4  HN  UNK N   1      27.270  19.339   9.209  1.00  0.00     0.167 HD
HETATM    5  C   UNK N   1      28.601  17.905   8.569  0.00  0.00     0.080 A 
HETATM    6  C   UNK N   1      28.807  17.340   9.927  0.00  0.00     0.089 C 
HETATM    7  N   UNK N   1      29.257  17.374   7.502  0.00  0.00    -0.313 N 
HETATM    8  C   UNK N   1      29.079  17.881   6.241  0.00  0.00     0.259 A 
HETATM    9  O   UNK N   1      29.679  17.387   5.301  0.00  0.00    -0.267 OA
HETATM   10  C   UNK N   1      28.208  18.963   6.048  0.00  0.00     0.061 A 
HETATM   11  C   UNK N   1      27.987  19.524   4.780  0.00  0.00     0.019 A 
HETATM   12  C   UNK N   1      27.108  20.603   4.639  0.00  0.00     0.004 A 
HETATM   13  C   UNK N   1      26.450  21.125   5.756  0.00  0.00     0.039 A 
HETATM   14  H   UNK N   1      29.867  16.614   7.638  0.00  0.00     0.170 HD
ENDROOT
BRANCH   1  15
HETATM   15  O   UNK N   1      26.027  21.081   8.091  0.00  0.00    -0.358 OA
HETATM   16  H   UNK N   1      26.410  21.789   8.570  0.00  0.00     0.217 HD
ENDBRANCH   1  15
TORSDOF 1
ENDMDL
MODEL 4
REMARK VINA RESULT:      -5.5      8.056      9.475
REMARK  1 active torsions:
REMARK  status: ('A' for Active; 'I' for Inactive)
REMARK    1  A    between atoms: C_1  and  O_2 
ROOT
HETATM    1  C   UNK N   1      29.532  18.138   9.303  0.00  0.00     0.093 A 
HETATM    2  C   UNK N   1      30.563  17.848   8.403  0.00  0.00     0.082 A 
HETATM    3  N   UNK N   1      31.848  18.154   8.716  0.00  0.00    -0.343 N 
ATOM      4  HN  UNK N   1      32.054  18.596   9.612  1.00  0.00     0.167 HD
HETATM    5  C   UNK N   1      32.864  17.882   7.859  0.00  0.00     0.080 A 
HETATM    6  C   UNK N   1      34.257  18.232   8.237  0.00  0.00     0.089 C 
HETATM    7  N   UNK N   1      32.610  17.293   6.660  0.00  0.00    -0.313 N 
HETATM    8  C   UNK N   1      31.331  16.962   6.293  0.00  0.00     0.259 A 
HETATM    9  O   UNK N   1      31.130  16.435   5.212  0.00  0.00    -0.267 OA
HETATM   10  C   UNK N   1      30.269  17.236   7.167  0.00  0.00     0.061 A 
HETATM   11  C   UNK N   1      28.940  16.921   6.845  0.00  0.00     0.019 A 
HETATM   12  C   UNK N   1      27.915  17.214   7.751  0.00  0.00     0.004 A 
HETATM   13  C   UNK N   1      28.210  17.820   8.976  0.00  0.00     0.039 A 
HETATM   14  H   UNK N   1      33.355  17.101   6.047  0.00  0.00     0.170 HD
ENDROOT
BRANCH   1  15
HETATM   15  O   UNK N   1      29.806  18.720  10.483  0.00  0.00    -0.358 OA
HETATM   16  H   UNK N   1      29.345  18.455  11.255  0.00  0.00     0.217 HD
ENDBRANCH   1  15
TORSDOF 1
ENDMDL
MODEL 5
REMARK VINA RESULT:      -5.4     12.369     13.688
REMARK  1 active torsions:
REMARK  status: ('A' for Active; 'I' for Inactive)
REMARK    1  A    between atoms: C_1  and  O_2 
ROOT
HETATM    1  C   UNK N   1      34.429  11.495  14.183  0.00  0.00     0.093 A 
HETATM    2  C   UNK N   1      35.207  12.652  14.067  0.00  0.00     0.082 A 
HETATM    3  N   UNK N   1      35.229  13.345  12.899  0.00  0.00    -0.343 N 
ATOM      4  HN  UNK N   1      34.675  13.014  12.109  1.00  0.00     0.167 HD
HETATM    5  C   UNK N   1      35.976  14.469  12.762  0.00  0.00     0.080 A 
HETATM    6  C   UNK N   1      35.974  15.199  11.469  0.00  0.00     0.089 C 
HETATM    7  N   UNK N   1      36.722  14.927  13.803  0.00  0.00    -0.313 N 
HETATM    8  C   UNK N   1      36.737  14.267  15.005  0.00  0.00     0.259 A 
HETATM    9  O   UNK N   1      37.415  14.698  15.923  0.00  0.00    -0.267 OA
HETATM   10  C   UNK N   1      35.971  13.103  15.163  0.00  0.00     0.061 A 
HETATM   11  C   UNK N   1      35.946  12.386  16.369  0.00  0.00     0.019 A 
HETATM   12  C   UNK N   1      35.166  11.230  16.477  0.00  0.00     0.004 A 
HETATM   13  C   UNK N   1      34.410  10.787  15.388  0.00  0.00     0.039 A 
HETATM   14  H   UNK N   1      37.260  15.744  13.692  0.00  0.00     0.170 HD
ENDROOT
BRANCH   1  15
HETATM   15  O   UNK N   1      33.699  11.062  13.141  0.00  0.00    -0.358 OA
HETATM   16  H   UNK N   1      32.796  11.303  13.069  0.00  0.00     0.217 HD
ENDBRANCH   1  15
TORSDOF 1
ENDMDL
MODEL 6
REMARK VINA RESULT:      -5.3     22.035     22.700
REMARK  1 active torsions:
REMARK  status: ('A' for Active; 'I' for Inactive)
REMARK    1  A    between atoms: C_1  and  O_2 
ROOT
HETATM    1  C   UNK N   1      43.238  22.787   3.466  0.00  0.00     0.093 A 
HETATM    2  C   UNK N   1      42.346  22.804   2.388  0.00  0.00     0.082 A 
HETATM    3  N   UNK N   1      41.825  23.981   1.953  0.00  0.00    -0.343 N 
ATOM      4  HN  UNK N   1      42.090  24.849   2.418  1.00  0.00     0.167 HD
HETATM    5  C   UNK N   1      40.958  24.023   0.910  0.00  0.00     0.080 A 
HETATM    6  C   UNK N   1      40.410  25.329   0.464  0.00  0.00     0.089 C 
HETATM    7  N   UNK N   1      40.592  22.876   0.276  0.00  0.00    -0.313 N 
HETATM    8  C   UNK N   1      41.088  21.661   0.674  0.00  0.00     0.259 A 
HETATM    9  O   UNK N   1      40.744  20.647   0.089  0.00  0.00    -0.267 OA
HETATM   10  C   UNK N   1      41.984  21.600   1.750  0.00  0.00     0.061 A 
HETATM   11  C   UNK N   1      42.524  20.385   2.202  0.00  0.00     0.019 A 
HETATM   12  C   UNK N   1      43.416  20.376   3.280  0.00  0.00     0.004 A 
HETATM   13  C   UNK N   1      43.771  21.573   3.909  0.00  0.00     0.039 A 
HETATM   14  H   UNK N   1      39.963  22.920  -0.479  0.00  0.00     0.170 HD
ENDROOT
BRANCH   1  15
HETATM   15  O   UNK N   1      43.586  23.932   4.077  0.00  0.00    -0.358 OA
HETATM   16  H   UNK N   1      44.482  24.206   4.083  0.00  0.00     0.217 HD
ENDBRANCH   1  15
TORSDOF 1
ENDMDL
MODEL 7
REMARK VINA RESULT:      -5.3     10.099     11.929
REMARK  1 active torsions:
REMARK  status: ('A' for Active; 'I' for Inactive)
REMARK    1  A    between atoms: C_1  and  O_2 
ROOT
HETATM    1  C   UNK N   1      32.758  14.162   8.968  0.00  0.00     0.093 A 
HETATM    2  C   UNK N   1      33.704  14.749   9.816  0.00  0.00     0.082 A 
HETATM    3  N   UNK N   1      34.141  14.082  10.915  0.00  0.00    -0.343 N 
ATOM      4  HN  UNK N   1      33.773  13.152  11.117  1.00  0.00     0.167 HD
HETATM    5  C   UNK N   1      35.057  14.631  11.752  0.00  0.00     0.080 A 
HETATM    6  C   UNK N   1      35.510  13.871  12.945  0.00  0.00     0.089 C 
HETATM    7  N   UNK N   1      35.559  15.871  11.501  0.00  0.00    -0.313 N 
HETATM    8  C   UNK N   1      35.153  16.587  10.405  0.00  0.00     0.259 A 
HETATM    9  O   UNK N   1      35.618  17.697  10.203  0.00  0.00    -0.267 OA
HETATM   10  C   UNK N   1      34.206  16.035   9.530  0.00  0.00     0.061 A 
HETATM   11  C   UNK N   1      33.754  16.722   8.393  0.00  0.00     0.019 A 
HETATM   12  C   UNK N   1      32.808  16.128   7.550  0.00  0.00     0.004 A 
HETATM   13  C   UNK N   1      32.312  14.853   7.837  0.00  0.00     0.039 A 
HETATM   14  H   UNK N   1      36.223  16.258  12.115  0.00  0.00     0.170 HD
ENDROOT
BRANCH   1  15
HETATM   15  O   UNK N   1      32.276  12.936   9.236  0.00  0.00    -0.358 OA
HETATM   16  H   UNK N   1      31.362  12.760   9.130  0.00  0.00     0.217 HD
ENDBRANCH   1  15
TORSDOF 1
ENDMDL
MODEL 8
REMARK VINA RESULT:      -5.3     10.266     11.953
REMARK  1 active torsions:
REMARK  status: ('A' for Active; 'I' for Inactive)
REMARK    1  A    between atoms: C_1  and  O_2 
ROOT
HETATM    1  C   UNK N   1      32.594  15.081   7.707  0.00  0.00     0.093 A 
HETATM    2  C   UNK N   1      33.472  15.900   8.425  0.00  0.00     0.082 A 
HETATM    3  N   UNK N   1      34.024  15.457   9.584  0.00  0.00    -0.343 N 
ATOM      4  HN  UNK N   1      33.792  14.524   9.925  1.00  0.00     0.167 HD
HETATM    5  C   UNK N   1      34.878  16.233  10.297  0.00  0.00     0.080 A 
HETATM    6  C   UNK N   1      35.461  15.714  11.560  0.00  0.00     0.089 C 
HETATM    7  N   UNK N   1      35.199  17.480   9.859  0.00  0.00    -0.313 N 
HETATM    8  C   UNK N   1      34.671  17.977   8.696  0.00  0.00     0.259 A 
HETATM    9  O   UNK N   1      34.975  19.099   8.325  0.00  0.00    -0.267 OA
HETATM   10  C   UNK N   1      33.787  17.188   7.946  0.00  0.00     0.061 A 
HETATM   11  C   UNK N   1      33.215  17.644   6.748  0.00  0.00     0.019 A 
HETATM   12  C   UNK N   1      32.338  16.819   6.036  0.00  0.00     0.004 A 
HETATM   13  C   UNK N   1      32.029  15.542   6.515  0.00  0.00     0.039 A 
HETATM   14  H   UNK N   1      35.820  18.034  10.385  0.00  0.00     0.170 HD
ENDROOT
BRANCH   1  15
HETATM   15  O   UNK N   1      32.290  13.852   8.159  0.00  0.00    -0.358 OA
HETATM   16  H   UNK N   1      32.390  13.650   9.069  0.00  0.00     0.217 HD
ENDBRANCH   1  15
TORSDOF 1
ENDMDL
MODEL 9
REMARK VINA RESULT:      -5.2      7.944     10.344
REMARK  1 active torsions:
REMARK  status: ('A' for Active; 'I' for Inactive)
REMARK    1  A    between atoms: C_1  and  O_2 
ROOT
HETATM    1  C   UNK N   1      33.360  17.402   8.244  0.00  0.00     0.093 A 
HETATM    2  C   UNK N   1      31.981  17.345   8.019  0.00  0.00     0.082 A 
HETATM    3  N   UNK N   1      31.117  17.360   9.067  0.00  0.00    -0.343 N 
ATOM      4  HN  UNK N   1      31.484  17.413  10.017  1.00  0.00     0.167 HD
HETATM    5  C   UNK N   1      29.775  17.307   8.873  0.00  0.00     0.080 A 
HETATM    6  C   UNK N   1      28.863  17.325  10.044  0.00  0.00     0.089 C 
HETATM    7  N   UNK N   1      29.267  17.236   7.613  0.00  0.00    -0.313 N 
HETATM    8  C   UNK N   1      30.094  17.217   6.519  0.00  0.00     0.259 A 
HETATM    9  O   UNK N   1      29.613  17.154   5.400  0.00  0.00    -0.267 OA
HETATM   10  C   UNK N   1      31.483  17.272   6.702  0.00  0.00     0.061 A 
HETATM   11  C   UNK N   1      32.377  17.257   5.620  0.00  0.00     0.019 A 
HETATM   12  C   UNK N   1      33.755  17.314   5.854  0.00  0.00     0.004 A 
HETATM   13  C   UNK N   1      34.244  17.386   7.161  0.00  0.00     0.039 A 
HETATM   14  H   UNK N   1      28.293  17.197   7.485  0.00  0.00     0.170 HD
ENDROOT
BRANCH   1  15
HETATM   15  O   UNK N   1      33.840  17.472   9.498  0.00  0.00    -0.358 OA
HETATM   16  H   UNK N   1      34.406  16.797   9.820  0.00  0.00     0.217 HD
ENDBRANCH   1  15
TORSDOF 1
ENDMDL
