REMARK  5 active torsions:
REMARK  status: ('A' for Active; 'I' for Inactive)
REMARK    1  A    between atoms: C_2  and  C_3 
REMARK    2  A    between atoms: C_2  and  O_13 
REMARK    3  A    between atoms: C_3  and  C_4 
REMARK    4  A    between atoms: C_4  and  C_6 
REMARK    5  A    between atoms: C_11  and  O_12 
ROOT
HETATM    1  C   UNK N   1      -0.446  -0.759   0.397  0.00  0.00    -0.024 A 
HETATM    2  C   UNK N   1      -0.049  -2.073   0.112  0.00  0.00     0.010 A 
HETATM    3  C   UNK N   1      -0.997  -3.047  -0.219  0.00  0.00     0.001 A 
HETATM    4  C   UNK N   1      -2.352  -2.715  -0.266  0.00  0.00     0.003 A 
HETATM    5  C   UNK N   1      -2.761  -1.413   0.027  0.00  0.00     0.037 A 
HETATM    6  C   UNK N   1      -1.820  -0.435   0.364  0.00  0.00     0.071 A 
ENDROOT
BRANCH   1   7
HETATM    7  C   UNK N   1       0.617   0.235   0.796  0.00  0.00     0.056 C 
BRANCH   7   8
HETATM    8  C   UNK N   1       0.931   1.349  -0.216  0.00  0.00     0.084 C 
HETATM    9  C   UNK N   1      -0.208   2.354  -0.309  0.00  0.00     0.021 C 
BRANCH   8  10
HETATM   10  C   UNK N   1       2.208   2.036   0.207  0.00  0.00     0.143 C 
HETATM   11  O   UNK N   1       2.221   3.223   0.493  0.00  0.00    -0.650 OA
BRANCH  10  12
HETATM   12  O   UNK N   1       3.355   1.331   0.265  0.00  0.00    -0.776 OA
HETATM   13  H   UNK N   1       3.329   0.395   0.305  0.00  0.00     0.167 HD
ENDBRANCH  10  12
ENDBRANCH   8  10
ENDBRANCH   7   8
ENDBRANCH   1   7
BRANCH   6  14
HETATM   14  O   UNK N   1      -2.249   0.798   0.676  0.00  0.00    -0.360 OA
HETATM   15  H   UNK N   1      -1.654   1.488   0.893  0.00  0.00     0.217 HD
ENDBRANCH   6  14
TORSDOF 5
