MODEL 1
REMARK VINA RESULT:      -5.4      0.000      0.000
REMARK  5 active torsions:
REMARK  status: ('A' for Active; 'I' for Inactive)
REMARK    1  A    between atoms: C_2  and  C_3 
REMARK    2  A    between atoms: C_2  and  O_13 
REMARK    3  A    between atoms: C_3  and  C_4 
REMARK    4  A    between atoms: C_4  and  C_6 
REMARK    5  A    between atoms: C_11  and  O_12 
ROOT
HETATM    1  C   UNK N   1      35.235  12.458  17.355  0.00  0.00    -0.024 A 
HETATM    2  C   UNK N   1      35.219  11.068  17.533  0.00  0.00     0.010 A 
HETATM    3  C   UNK N   1      35.197  10.515  18.818  0.00  0.00     0.001 A 
HETATM    4  C   UNK N   1      35.194  11.349  19.937  0.00  0.00     0.003 A 
HETATM    5  C   UNK N   1      35.222  12.735  19.773  0.00  0.00     0.037 A 
HETATM    6  C   UNK N   1      35.249  13.295  18.492  0.00  0.00     0.071 A 
ENDROOT
BRANCH   1   7
HETATM    7  C   UNK N   1      35.308  12.994  15.946  0.00  0.00     0.056 C 
BRANCH   7   8
HETATM    8  C   UNK N   1      36.711  13.113  15.328  0.00  0.00     0.084 C 
HETATM    9  C   UNK N   1      36.785  12.415  13.977  0.00  0.00     0.021 C 
BRANCH   8  10
HETATM   10  C   UNK N   1      37.050  14.578  15.184  0.00  0.00     0.143 C 
HETATM   11  O   UNK N   1      37.499  15.216  16.123  0.00  0.00    -0.650 OA
BRANCH  10  12
HETATM   12  O   UNK N   1      36.849  15.195  14.003  0.00  0.00    -0.776 OA
HETATM   13  H   UNK N   1      37.375  14.971  13.261  0.00  0.00     0.167 HD
ENDBRANCH  10  12
ENDBRANCH   8  10
ENDBRANCH   7   8
ENDBRANCH   1   7
BRANCH   6  14
HETATM   14  O   UNK N   1      35.312  14.630  18.368  0.00  0.00    -0.360 OA
HETATM   15  H   UNK N   1      35.764  15.163  18.992  0.00  0.00     0.217 HD
ENDBRANCH   6  14
TORSDOF 5
ENDMDL
MODEL 2
REMARK VINA RESULT:      -5.3     19.303     20.731
REMARK  5 active torsions:
REMARK  status: ('A' for Active; 'I' for Inactive)
REMARK    1  A    between atoms: C_2  and  C_3 
REMARK    2  A    between atoms: C_2  and  O_13 
REMARK    3  A    between atoms: C_3  and  C_4 
REMARK    4  A    between atoms: C_4  and  C_6 
REMARK    5  A    between atoms: C_11  and  O_12 
ROOT
HETATM    1  C   UNK N   1      22.990  19.208   3.644  0.00  0.00    -0.024 A 
HETATM    2  C   UNK N   1      23.395  17.909   3.981  0.00  0.00     0.010 A 
HETATM    3  C   UNK N   1      24.751  17.566   3.994  0.00  0.00     0.001 A 
HETATM    4  C   UNK N   1      25.715  18.522   3.669  0.00  0.00     0.003 A 
HETATM    5  C   UNK N   1      25.325  19.815   3.320  0.00  0.00     0.037 A 
HETATM    6  C   UNK N   1      23.971  20.164   3.299  0.00  0.00     0.071 A 
ENDROOT
BRANCH   1   7
HETATM    7  C   UNK N   1      21.511  19.504   3.598  0.00  0.00     0.056 C 
BRANCH   7   8
HETATM    8  C   UNK N   1      20.758  19.050   2.337  0.00  0.00     0.084 C 
HETATM    9  C   UNK N   1      19.319  18.670   2.655  0.00  0.00     0.021 C 
BRANCH   8  10
HETATM   10  C   UNK N   1      20.797  20.171   1.325  0.00  0.00     0.143 C 
HETATM   11  O   UNK N   1      20.983  21.327   1.671  0.00  0.00    -0.650 OA
BRANCH  10  12
HETATM   12  O   UNK N   1      20.618  19.894   0.019  0.00  0.00    -0.776 OA
HETATM   13  H   UNK N   1      20.656  20.582  -0.616  0.00  0.00     0.167 HD
ENDBRANCH  10  12
ENDBRANCH   8  10
ENDBRANCH   7   8
ENDBRANCH   1   7
BRANCH   6  14
HETATM   14  O   UNK N   1      23.626  21.406   2.924  0.00  0.00    -0.360 OA
HETATM   15  H   UNK N   1      23.254  22.019   3.527  0.00  0.00     0.217 HD
ENDBRANCH   6  14
TORSDOF 5
ENDMDL
MODEL 3
REMARK VINA RESULT:      -5.3     10.997     12.594
REMARK  5 active torsions:
REMARK  status: ('A' for Active; 'I' for Inactive)
REMARK    1  A    between atoms: C_2  and  C_3 
REMARK    2  A    between atoms: C_2  and  O_13 
REMARK    3  A    between atoms: C_3  and  C_4 
REMARK    4  A    between atoms: C_4  and  C_6 
REMARK    5  A    between atoms: C_11  and  O_12 
ROOT
HETATM    1  C   UNK N   1      31.184  17.185   6.807  0.00  0.00    -0.024 A 
HETATM    2  C   UNK N   1      31.399  17.147   5.422  0.00  0.00     0.010 A 
HETATM    3  C   UNK N   1      32.689  17.281   4.898  0.00  0.00     0.001 A 
HETATM    4  C   UNK N   1      33.777  17.456   5.756  0.00  0.00     0.003 A 
HETATM    5  C   UNK N   1      33.574  17.507   7.136  0.00  0.00     0.037 A 
HETATM    6  C   UNK N   1      32.287  17.379   7.667  0.00  0.00     0.071 A 
ENDROOT
BRANCH   1   7
HETATM    7  C   UNK N   1      29.765  17.085   7.310  0.00  0.00     0.056 C 
BRANCH   7   8
HETATM    8  C   UNK N   1      29.052  18.410   7.624  0.00  0.00     0.084 C 
HETATM    9  C   UNK N   1      27.815  18.596   6.756  0.00  0.00     0.021 C 
BRANCH   8  10
HETATM   10  C   UNK N   1      28.676  18.418   9.087  0.00  0.00     0.143 C 
HETATM   11  O   UNK N   1      29.504  18.668   9.949  0.00  0.00    -0.650 OA
BRANCH  10  12
HETATM   12  O   UNK N   1      27.409  18.141   9.450  0.00  0.00    -0.776 OA
HETATM   13  H   UNK N   1      26.782  17.878   8.804  0.00  0.00     0.167 HD
ENDBRANCH  10  12
ENDBRANCH   8  10
ENDBRANCH   7   8
ENDBRANCH   1   7
BRANCH   6  14
HETATM   14  O   UNK N   1      32.122  17.469   8.996  0.00  0.00    -0.360 OA
HETATM   15  H   UNK N   1      31.429  17.973   9.375  0.00  0.00     0.217 HD
ENDBRANCH   6  14
TORSDOF 5
ENDMDL
MODEL 4
REMARK VINA RESULT:      -5.3      9.549     11.414
REMARK  5 active torsions:
REMARK  status: ('A' for Active; 'I' for Inactive)
REMARK    1  A    between atoms: C_2  and  C_3 
REMARK    2  A    between atoms: C_2  and  O_13 
REMARK    3  A    between atoms: C_3  and  C_4 
REMARK    4  A    between atoms: C_4  and  C_6 
REMARK    5  A    between atoms: C_11  and  O_12 
ROOT
HETATM    1  C   UNK N   1      30.708  17.460   8.019  0.00  0.00    -0.024 A 
HETATM    2  C   UNK N   1      30.535  18.257   9.159  0.00  0.00     0.010 A 
HETATM    3  C   UNK N   1      29.253  18.597   9.603  0.00  0.00     0.001 A 
HETATM    4  C   UNK N   1      28.130  18.143   8.908  0.00  0.00     0.003 A 
HETATM    5  C   UNK N   1      28.289  17.358   7.765  0.00  0.00     0.037 A 
HETATM    6  C   UNK N   1      29.568  17.019   7.312  0.00  0.00     0.071 A 
ENDROOT
BRANCH   1   7
HETATM    7  C   UNK N   1      32.115  17.168   7.561  0.00  0.00     0.056 C 
BRANCH   7   8
HETATM    8  C   UNK N   1      33.243  17.493   8.554  0.00  0.00     0.084 C 
HETATM    9  C   UNK N   1      33.806  16.230   9.191  0.00  0.00     0.021 C 
BRANCH   8  10
HETATM   10  C   UNK N   1      34.329  18.243   7.820  0.00  0.00     0.143 C 
HETATM   11  O   UNK N   1      35.016  19.077   8.389  0.00  0.00    -0.650 OA
BRANCH  10  12
HETATM   12  O   UNK N   1      34.541  17.995   6.512  0.00  0.00    -0.776 OA
HETATM   13  H   UNK N   1      35.318  17.547   6.240  0.00  0.00     0.167 HD
ENDBRANCH  10  12
ENDBRANCH   8  10
ENDBRANCH   7   8
ENDBRANCH   1   7
BRANCH   6  14
HETATM   14  O   UNK N   1      29.687  16.293   6.189  0.00  0.00    -0.360 OA
HETATM   15  H   UNK N   1      29.719  16.694   5.343  0.00  0.00     0.217 HD
ENDBRANCH   6  14
TORSDOF 5
ENDMDL
MODEL 5
REMARK VINA RESULT:      -5.1     15.285     16.124
REMARK  5 active torsions:
REMARK  status: ('A' for Active; 'I' for Inactive)
REMARK    1  A    between atoms: C_2  and  C_3 
REMARK    2  A    between atoms: C_2  and  O_13 
REMARK    3  A    between atoms: C_3  and  C_4 
REMARK    4  A    between atoms: C_4  and  C_6 
REMARK    5  A    between atoms: C_11  and  O_12 
ROOT
HETATM    1  C   UNK N   1      22.446  12.827   9.747  0.00  0.00    -0.024 A 
HETATM    2  C   UNK N   1      23.816  12.915   9.462  0.00  0.00     0.010 A 
HETATM    3  C   UNK N   1      24.766  12.487  10.395  0.00  0.00     0.001 A 
HETATM    4  C   UNK N   1      24.354  11.967  11.623  0.00  0.00     0.003 A 
HETATM    5  C   UNK N   1      22.993  11.884  11.924  0.00  0.00     0.037 A 
HETATM    6  C   UNK N   1      22.037  12.315  10.999  0.00  0.00     0.071 A 
ENDROOT
BRANCH   1   7
HETATM    7  C   UNK N   1      21.470  13.351   8.722  0.00  0.00     0.056 C 
BRANCH   7   8
HETATM    8  C   UNK N   1      21.164  14.856   8.772  0.00  0.00     0.084 C 
HETATM    9  C   UNK N   1      21.414  15.520   7.425  0.00  0.00     0.021 C 
BRANCH   8  10
HETATM   10  C   UNK N   1      19.724  15.040   9.192  0.00  0.00     0.143 C 
HETATM   11  O   UNK N   1      19.174  14.235   9.927  0.00  0.00    -0.650 OA
BRANCH  10  12
HETATM   12  O   UNK N   1      19.031  16.105   8.744  0.00  0.00    -0.776 OA
HETATM   13  H   UNK N   1      19.433  16.712   8.153  0.00  0.00     0.167 HD
ENDBRANCH  10  12
ENDBRANCH   8  10
ENDBRANCH   7   8
ENDBRANCH   1   7
BRANCH   6  14
HETATM   14  O   UNK N   1      20.739  12.256  11.332  0.00  0.00    -0.360 OA
HETATM   15  H   UNK N   1      20.359  11.486  11.705  0.00  0.00     0.217 HD
ENDBRANCH   6  14
TORSDOF 5
ENDMDL
MODEL 6
REMARK VINA RESULT:      -5.1     12.418     13.843
REMARK  5 active torsions:
REMARK  status: ('A' for Active; 'I' for Inactive)
REMARK    1  A    between atoms: C_2  and  C_3 
REMARK    2  A    between atoms: C_2  and  O_13 
REMARK    3  A    between atoms: C_3  and  C_4 
REMARK    4  A    between atoms: C_4  and  C_6 
REMARK    5  A    between atoms: C_11  and  O_12 
ROOT
HETATM    1  C   UNK N   1      28.647  17.889   7.259  0.00  0.00    -0.024 A 
HETATM    2  C   UNK N   1      29.831  17.433   6.665  0.00  0.00     0.010 A 
HETATM    3  C   UNK N   1      30.882  16.948   7.452  0.00  0.00     0.001 A 
HETATM    4  C   UNK N   1      30.756  16.917   8.841  0.00  0.00     0.003 A 
HETATM    5  C   UNK N   1      29.586  17.379   9.446  0.00  0.00     0.037 A 
HETATM    6  C   UNK N   1      28.534  17.870   8.667  0.00  0.00     0.071 A 
ENDROOT
BRANCH   1   7
HETATM    7  C   UNK N   1      27.569  18.447   6.362  0.00  0.00     0.056 C 
BRANCH   7   8
HETATM    8  C   UNK N   1      27.842  19.824   5.734  0.00  0.00     0.084 C 
HETATM    9  C   UNK N   1      27.481  19.843   4.256  0.00  0.00     0.021 C 
BRANCH   8  10
HETATM   10  C   UNK N   1      27.042  20.861   6.486  0.00  0.00     0.143 C 
HETATM   11  O   UNK N   1      27.018  22.026   6.121  0.00  0.00    -0.650 OA
BRANCH  10  12
HETATM   12  O   UNK N   1      26.347  20.500   7.582  0.00  0.00    -0.776 OA
HETATM   13  H   UNK N   1      26.799  20.250   8.364  0.00  0.00     0.167 HD
ENDBRANCH  10  12
ENDBRANCH   8  10
ENDBRANCH   7   8
ENDBRANCH   1   7
BRANCH   6  14
HETATM   14  O   UNK N   1      27.437  18.341   9.280  0.00  0.00    -0.360 OA
HETATM   15  H   UNK N   1      26.904  17.797   9.826  0.00  0.00     0.217 HD
ENDBRANCH   6  14
TORSDOF 5
ENDMDL
MODEL 7
REMARK VINA RESULT:      -5.1     21.807     23.097
REMARK  5 active torsions:
REMARK  status: ('A' for Active; 'I' for Inactive)
REMARK    1  A    between atoms: C_2  and  C_3 
REMARK    2  A    between atoms: C_2  and  O_13 
REMARK    3  A    between atoms: C_3  and  C_4 
REMARK    4  A    between atoms: C_4  and  C_6 
REMARK    5  A    between atoms: C_11  and  O_12 
ROOT
HETATM    1  C   UNK N   1      31.939  20.813  -4.163  0.00  0.00    -0.024 A 
HETATM    2  C   UNK N   1      32.224  20.488  -5.497  0.00  0.00     0.010 A 
HETATM    3  C   UNK N   1      33.534  20.205  -5.896  0.00  0.00     0.001 A 
HETATM    4  C   UNK N   1      34.572  20.246  -4.964  0.00  0.00     0.003 A 
HETATM    5  C   UNK N   1      34.303  20.580  -3.635  0.00  0.00     0.037 A 
HETATM    6  C   UNK N   1      32.996  20.869  -3.230  0.00  0.00     0.071 A 
ENDROOT
BRANCH   1   7
HETATM    7  C   UNK N   1      30.514  21.156  -3.804  0.00  0.00     0.056 C 
BRANCH   7   8
HETATM    8  C   UNK N   1      30.164  22.652  -3.736  0.00  0.00     0.084 C 
HETATM    9  C   UNK N   1      29.137  23.032  -4.794  0.00  0.00     0.021 C 
BRANCH   8  10
HETATM   10  C   UNK N   1      29.637  22.960  -2.354  0.00  0.00     0.143 C 
HETATM   11  O   UNK N   1      28.448  23.163  -2.163  0.00  0.00    -0.650 OA
BRANCH  10  12
HETATM   12  O   UNK N   1      30.492  23.019  -1.314  0.00  0.00    -0.776 OA
HETATM   13  H   UNK N   1      30.390  22.433  -0.590  0.00  0.00     0.167 HD
ENDBRANCH  10  12
ENDBRANCH   8  10
ENDBRANCH   7   8
ENDBRANCH   1   7
BRANCH   6  14
HETATM   14  O   UNK N   1      32.776  21.222  -1.953  0.00  0.00    -0.360 OA
HETATM   15  H   UNK N   1      33.373  21.769  -1.482  0.00  0.00     0.217 HD
ENDBRANCH   6  14
TORSDOF 5
ENDMDL
MODEL 8
REMARK VINA RESULT:      -5.0      1.799      2.434
REMARK  5 active torsions:
REMARK  status: ('A' for Active; 'I' for Inactive)
REMARK    1  A    between atoms: C_2  and  C_3 
REMARK    2  A    between atoms: C_2  and  O_13 
REMARK    3  A    between atoms: C_3  and  C_4 
REMARK    4  A    between atoms: C_4  and  C_6 
REMARK    5  A    between atoms: C_11  and  O_12 
ROOT
HETATM    1  C   UNK N   1      35.095  12.440  16.919  0.00  0.00    -0.024 A 
HETATM    2  C   UNK N   1      35.133  13.403  17.937  0.00  0.00     0.010 A 
HETATM    3  C   UNK N   1      35.244  13.017  19.277  0.00  0.00     0.001 A 
HETATM    4  C   UNK N   1      35.316  11.663  19.611  0.00  0.00     0.003 A 
HETATM    5  C   UNK N   1      35.267  10.695  18.607  0.00  0.00     0.037 A 
HETATM    6  C   UNK N   1      35.151  11.072  17.265  0.00  0.00     0.071 A 
ENDROOT
BRANCH   1   7
HETATM    7  C   UNK N   1      34.925  12.915  15.496  0.00  0.00     0.056 C 
BRANCH   7   8
HETATM    8  C   UNK N   1      36.180  13.470  14.802  0.00  0.00     0.084 C 
HETATM    9  C   UNK N   1      37.226  12.385  14.592  0.00  0.00     0.021 C 
BRANCH   8  10
HETATM   10  C   UNK N   1      35.770  14.071  13.478  0.00  0.00     0.143 C 
HETATM   11  O   UNK N   1      34.768  13.688  12.895  0.00  0.00    -0.650 OA
BRANCH  10  12
HETATM   12  O   UNK N   1      36.523  15.042  12.927  0.00  0.00    -0.776 OA
HETATM   13  H   UNK N   1      36.247  15.936  12.977  0.00  0.00     0.167 HD
ENDBRANCH  10  12
ENDBRANCH   8  10
ENDBRANCH   7   8
ENDBRANCH   1   7
BRANCH   6  14
HETATM   14  O   UNK N   1      35.070  10.116  16.327  0.00  0.00    -0.360 OA
HETATM   15  H   UNK N   1      35.639  10.105  15.582  0.00  0.00     0.217 HD
ENDBRANCH   6  14
TORSDOF 5
ENDMDL
MODEL 9
REMARK VINA RESULT:      -4.9      2.931      5.765
REMARK  5 active torsions:
REMARK  status: ('A' for Active; 'I' for Inactive)
REMARK    1  A    between atoms: C_2  and  C_3 
REMARK    2  A    between atoms: C_2  and  O_13 
REMARK    3  A    between atoms: C_3  and  C_4 
REMARK    4  A    between atoms: C_4  and  C_6 
REMARK    5  A    between atoms: C_11  and  O_12 
ROOT
HETATM    1  C   UNK N   1      35.351  11.480  19.047  0.00  0.00    -0.024 A 
HETATM    2  C   UNK N   1      35.599  11.047  17.737  0.00  0.00     0.010 A 
HETATM    3  C   UNK N   1      35.625  11.961  16.678  0.00  0.00     0.001 A 
HETATM    4  C   UNK N   1      35.402  13.317  16.920  0.00  0.00     0.003 A 
HETATM    5  C   UNK N   1      35.142  13.759  18.218  0.00  0.00     0.037 A 
HETATM    6  C   UNK N   1      35.109  12.852  19.281  0.00  0.00     0.071 A 
ENDROOT
BRANCH   1   7
HETATM    7  C   UNK N   1      35.286  10.442  20.140  0.00  0.00     0.056 C 
BRANCH   7   8
HETATM    8  C   UNK N   1      33.889   9.915  20.505  0.00  0.00     0.084 C 
HETATM    9  C   UNK N   1      33.793   8.409  20.308  0.00  0.00     0.021 C 
BRANCH   8  10
HETATM   10  C   UNK N   1      33.599  10.279  21.942  0.00  0.00     0.143 C 
HETATM   11  O   UNK N   1      33.888   9.522  22.855  0.00  0.00    -0.650 OA
BRANCH  10  12
HETATM   12  O   UNK N   1      33.005  11.456  22.223  0.00  0.00    -0.776 OA
HETATM   13  H   UNK N   1      32.087  11.485  22.409  0.00  0.00     0.167 HD
ENDBRANCH  10  12
ENDBRANCH   8  10
ENDBRANCH   7   8
ENDBRANCH   1   7
BRANCH   6  14
HETATM   14  O   UNK N   1      34.821  13.304  20.512  0.00  0.00    -0.360 OA
HETATM   15  H   UNK N   1      34.119  13.906  20.665  0.00  0.00     0.217 HD
ENDBRANCH   6  14
TORSDOF 5
ENDMDL
