REMARK  5 active torsions:
REMARK  status: ('A' for Active; 'I' for Inactive)
REMARK    1  A    between atoms: C_5  and  O_17 
REMARK    2  A    between atoms: C_11  and  O_19 
REMARK    3  A    between atoms: C_12  and  C_15 
REMARK    4  A    between atoms: C_15  and  C_16 
REMARK    5  A    between atoms: C_16  and  O_21 
ROOT
HETATM    1  C   UNK N   1       4.962  -1.523  -0.238  0.00  0.00     0.004 A 
HETATM    2  C   UNK N   1       3.730  -2.170  -0.311  0.00  0.00     0.017 A 
HETATM    3  C   UNK N   1       2.536  -1.448  -0.169  0.00  0.00     0.032 A 
HETATM    4  C   UNK N   1       2.581  -0.055   0.054  0.00  0.00     0.062 A 
HETATM    5  C   UNK N   1       3.840   0.593   0.116  0.00  0.00     0.080 A 
HETATM    6  C   UNK N   1       5.016  -0.147  -0.031  0.00  0.00     0.037 A 
HETATM    7  C   UNK N   1       1.306   0.701   0.226  0.00  0.00     0.199 A 
HETATM    8  C   UNK N   1      -0.004  -0.013   0.173  0.00  0.00     0.063 A 
HETATM    9  C   UNK N   1      -0.028  -1.400  -0.083  0.00  0.00     0.032 A 
HETATM   10  C   UNK N   1       1.237  -2.152  -0.256  0.00  0.00     0.194 A 
HETATM   11  C   UNK N   1      -1.225   0.672   0.393  0.00  0.00     0.087 A 
HETATM   12  C   UNK N   1      -2.447  -0.024   0.328  0.00  0.00    -0.014 A 
HETATM   13  C   UNK N   1      -2.453  -1.391   0.047  0.00  0.00     0.011 A 
HETATM   14  C   UNK N   1      -1.255  -2.075  -0.154  0.00  0.00     0.017 A 
HETATM   15  O   UNK N   1       1.336   1.908   0.412  0.00  0.00    -0.286 OA
HETATM   16  O   UNK N   1       1.208  -3.359  -0.455  0.00  0.00    -0.287 OA
ENDROOT
BRANCH  12  17
HETATM   17  C   UNK N   1      -3.754   0.660   0.623  0.00  0.00     0.151 C 
BRANCH  17  18
HETATM   18  C   UNK N   1      -4.088   1.837  -0.251  0.00  0.00     0.143 C 
HETATM   19  O   UNK N   1      -5.111   2.465  -0.037  0.00  0.00    -0.650 OA
BRANCH  18  20
HETATM   20  O   UNK N   1      -3.268   2.223  -1.249  0.00  0.00    -0.776 OA
HETATM   21  H   UNK N   1      -2.751   1.863  -1.943  0.00  0.00     0.167 HD
ENDBRANCH  18  20
ENDBRANCH  17  18
ENDBRANCH  12  17
BRANCH  11  22
HETATM   22  O   UNK N   1      -1.227   1.986   0.683  0.00  0.00    -0.359 OA
HETATM   23  H   UNK N   1      -0.436   2.445   0.885  0.00  0.00     0.217 HD
ENDBRANCH  11  22
BRANCH   5  24
HETATM   24  O   UNK N   1       3.931   1.920   0.314  0.00  0.00    -0.360 OA
HETATM   25  H   UNK N   1       4.764   2.327   0.452  0.00  0.00     0.217 HD
ENDBRANCH   5  24
TORSDOF 5
