MODEL 1
REMARK VINA RESULT:      -7.1      0.000      0.000
REMARK  5 active torsions:
REMARK  status: ('A' for Active; 'I' for Inactive)
REMARK    1  A    between atoms: C_5  and  O_17 
REMARK    2  A    between atoms: C_11  and  O_19 
REMARK    3  A    between atoms: C_12  and  C_15 
REMARK    4  A    between atoms: C_15  and  C_16 
REMARK    5  A    between atoms: C_16  and  O_21 
ROOT
HETATM    1  C   UNK N   1      36.434  10.564  13.705  0.00  0.00     0.004 A 
HETATM    2  C   UNK N   1      35.732  10.731  12.512  0.00  0.00     0.017 A 
HETATM    3  C   UNK N   1      35.491  12.014  12.001  0.00  0.00     0.032 A 
HETATM    4  C   UNK N   1      35.959  13.147  12.700  0.00  0.00     0.062 A 
HETATM    5  C   UNK N   1      36.680  12.964  13.907  0.00  0.00     0.080 A 
HETATM    6  C   UNK N   1      36.910  11.675  14.395  0.00  0.00     0.037 A 
HETATM    7  C   UNK N   1      35.678  14.509  12.159  0.00  0.00     0.199 A 
HETATM    8  C   UNK N   1      34.900  14.671  10.895  0.00  0.00     0.063 A 
HETATM    9  C   UNK N   1      34.470  13.524  10.195  0.00  0.00     0.032 A 
HETATM   10  C   UNK N   1      34.750  12.171  10.729  0.00  0.00     0.194 A 
HETATM   11  C   UNK N   1      34.569  15.954  10.393  0.00  0.00     0.087 A 
HETATM   12  C   UNK N   1      33.843  16.077   9.194  0.00  0.00    -0.014 A 
HETATM   13  C   UNK N   1      33.449  14.932   8.500  0.00  0.00     0.011 A 
HETATM   14  C   UNK N   1      33.757  13.666   8.996  0.00  0.00     0.017 A 
HETATM   15  O   UNK N   1      36.085  15.495  12.755  0.00  0.00    -0.286 OA
HETATM   16  O   UNK N   1      34.353  11.182  10.127  0.00  0.00    -0.287 OA
ENDROOT
BRANCH  12  17
HETATM   17  C   UNK N   1      33.418  17.422   8.671  0.00  0.00     0.151 C 
BRANCH  17  18
HETATM   18  C   UNK N   1      34.470  18.195   7.923  0.00  0.00     0.143 C 
HETATM   19  O   UNK N   1      34.586  18.031   6.721  0.00  0.00    -0.650 OA
BRANCH  18  20
HETATM   20  O   UNK N   1      35.268  19.080   8.553  0.00  0.00    -0.776 OA
HETATM   21  H   UNK N   1      35.242  19.723   9.235  0.00  0.00     0.167 HD
ENDBRANCH  18  20
ENDBRANCH  17  18
ENDBRANCH  12  17
BRANCH  11  22
HETATM   22  O   UNK N   1      34.929  17.063  11.066  0.00  0.00    -0.359 OA
HETATM   23  H   UNK N   1      35.523  17.687  10.699  0.00  0.00     0.217 HD
ENDBRANCH  11  22
BRANCH   5  24
HETATM   24  O   UNK N   1      37.155  14.013  14.600  0.00  0.00    -0.360 OA
HETATM   25  H   UNK N   1      37.079  14.044  15.534  0.00  0.00     0.217 HD
ENDBRANCH   5  24
TORSDOF 5
ENDMDL
MODEL 2
REMARK VINA RESULT:      -7.0     11.045     14.001
REMARK  5 active torsions:
REMARK  status: ('A' for Active; 'I' for Inactive)
REMARK    1  A    between atoms: C_5  and  O_17 
REMARK    2  A    between atoms: C_11  and  O_19 
REMARK    3  A    between atoms: C_12  and  C_15 
REMARK    4  A    between atoms: C_15  and  C_16 
REMARK    5  A    between atoms: C_16  and  O_21 
ROOT
HETATM    1  C   UNK N   1      28.235  16.626   5.677  0.00  0.00     0.004 A 
HETATM    2  C   UNK N   1      26.886  16.305   5.546  0.00  0.00     0.017 A 
HETATM    3  C   UNK N   1      25.994  17.204   4.943  0.00  0.00     0.032 A 
HETATM    4  C   UNK N   1      26.465  18.447   4.468  0.00  0.00     0.062 A 
HETATM    5  C   UNK N   1      27.842  18.758   4.598  0.00  0.00     0.080 A 
HETATM    6  C   UNK N   1      28.711  17.845   5.200  0.00  0.00     0.037 A 
HETATM    7  C   UNK N   1      25.504  19.406   3.848  0.00  0.00     0.199 A 
HETATM    8  C   UNK N   1      24.057  19.057   3.742  0.00  0.00     0.063 A 
HETATM    9  C   UNK N   1      23.612  17.797   4.193  0.00  0.00     0.032 A 
HETATM   10  C   UNK N   1      24.565  16.842   4.807  0.00  0.00     0.194 A 
HETATM   11  C   UNK N   1      23.115  19.974   3.212  0.00  0.00     0.087 A 
HETATM   12  C   UNK N   1      21.758  19.616   3.114  0.00  0.00    -0.014 A 
HETATM   13  C   UNK N   1      21.341  18.354   3.541  0.00  0.00     0.011 A 
HETATM   14  C   UNK N   1      22.258  17.453   4.078  0.00  0.00     0.017 A 
HETATM   15  O   UNK N   1      25.905  20.481   3.428  0.00  0.00    -0.286 OA
HETATM   16  O   UNK N   1      24.167  15.760   5.217  0.00  0.00    -0.287 OA
ENDROOT
BRANCH  12  17
HETATM   17  C   UNK N   1      20.724  20.591   2.620  0.00  0.00     0.151 C 
BRANCH  17  18
HETATM   18  C   UNK N   1      20.687  20.806   1.132  0.00  0.00     0.143 C 
HETATM   19  O   UNK N   1      20.725  21.943   0.694  0.00  0.00    -0.650 OA
BRANCH  18  20
HETATM   20  O   UNK N   1      20.634  19.766   0.276  0.00  0.00    -0.776 OA
HETATM   21  H   UNK N   1      20.958  18.892   0.175  0.00  0.00     0.167 HD
ENDBRANCH  18  20
ENDBRANCH  17  18
ENDBRANCH  12  17
BRANCH  11  22
HETATM   22  O   UNK N   1      23.506  21.200   2.816  0.00  0.00    -0.359 OA
HETATM   23  H   UNK N   1      22.967  21.732   2.265  0.00  0.00     0.217 HD
ENDBRANCH  11  22
BRANCH   5  24
HETATM   24  O   UNK N   1      28.337  19.924   4.149  0.00  0.00    -0.360 OA
HETATM   25  H   UNK N   1      28.683  20.559   4.746  0.00  0.00     0.217 HD
ENDBRANCH   5  24
TORSDOF 5
ENDMDL
MODEL 3
REMARK VINA RESULT:      -7.0      5.361      9.526
REMARK  5 active torsions:
REMARK  status: ('A' for Active; 'I' for Inactive)
REMARK    1  A    between atoms: C_5  and  O_17 
REMARK    2  A    between atoms: C_11  and  O_19 
REMARK    3  A    between atoms: C_12  and  C_15 
REMARK    4  A    between atoms: C_15  and  C_16 
REMARK    5  A    between atoms: C_16  and  O_21 
ROOT
HETATM    1  C   UNK N   1      26.605  20.233   4.328  0.00  0.00     0.004 A 
HETATM    2  C   UNK N   1      27.582  19.267   4.096  0.00  0.00     0.017 A 
HETATM    3  C   UNK N   1      28.285  18.692   5.165  0.00  0.00     0.032 A 
HETATM    4  C   UNK N   1      28.004  19.098   6.488  0.00  0.00     0.062 A 
HETATM    5  C   UNK N   1      27.001  20.074   6.712  0.00  0.00     0.080 A 
HETATM    6  C   UNK N   1      26.312  20.630   5.631  0.00  0.00     0.037 A 
HETATM    7  C   UNK N   1      28.773  18.497   7.617  0.00  0.00     0.199 A 
HETATM    8  C   UNK N   1      29.836  17.484   7.348  0.00  0.00     0.063 A 
HETATM    9  C   UNK N   1      30.078  17.069   6.021  0.00  0.00     0.032 A 
HETATM   10  C   UNK N   1      29.314  17.663   4.899  0.00  0.00     0.194 A 
HETATM   11  C   UNK N   1      30.620  16.944   8.397  0.00  0.00     0.087 A 
HETATM   12  C   UNK N   1      31.610  15.982   8.116  0.00  0.00    -0.014 A 
HETATM   13  C   UNK N   1      31.817  15.564   6.801  0.00  0.00     0.011 A 
HETATM   14  C   UNK N   1      31.061  16.103   5.761  0.00  0.00     0.017 A 
HETATM   15  O   UNK N   1      28.531  18.838   8.765  0.00  0.00    -0.286 OA
HETATM   16  O   UNK N   1      29.546  17.314   3.750  0.00  0.00    -0.287 OA
ENDROOT
BRANCH  12  17
HETATM   17  C   UNK N   1      32.503  15.440   9.198  0.00  0.00     0.151 C 
BRANCH  17  18
HETATM   18  C   UNK N   1      33.892  16.016   9.249  0.00  0.00     0.143 C 
HETATM   19  O   UNK N   1      34.807  15.409   8.718  0.00  0.00    -0.650 OA
BRANCH  18  20
HETATM   20  O   UNK N   1      34.138  17.198   9.848  0.00  0.00    -0.776 OA
HETATM   21  H   UNK N   1      34.802  17.856   9.907  0.00  0.00     0.167 HD
ENDBRANCH  18  20
ENDBRANCH  17  18
ENDBRANCH  12  17
BRANCH  11  22
HETATM   22  O   UNK N   1      30.440  17.356   9.665  0.00  0.00    -0.359 OA
HETATM   23  H   UNK N   1      30.299  16.747  10.363  0.00  0.00     0.217 HD
ENDBRANCH  11  22
BRANCH   5  24
HETATM   24  O   UNK N   1      26.692  20.482   7.955  0.00  0.00    -0.360 OA
HETATM   25  H   UNK N   1      27.352  20.827   8.524  0.00  0.00     0.217 HD
ENDBRANCH   5  24
TORSDOF 5
ENDMDL
MODEL 4
REMARK VINA RESULT:      -6.9      4.915      8.761
REMARK  5 active torsions:
REMARK  status: ('A' for Active; 'I' for Inactive)
REMARK    1  A    between atoms: C_5  and  O_17 
REMARK    2  A    between atoms: C_11  and  O_19 
REMARK    3  A    between atoms: C_12  and  C_15 
REMARK    4  A    between atoms: C_15  and  C_16 
REMARK    5  A    between atoms: C_16  and  O_21 
ROOT
HETATM    1  C   UNK N   1      26.921  16.427   3.655  0.00  0.00     0.004 A 
HETATM    2  C   UNK N   1      28.289  16.530   3.412  0.00  0.00     0.017 A 
HETATM    3  C   UNK N   1      29.187  16.737   4.469  0.00  0.00     0.032 A 
HETATM    4  C   UNK N   1      28.702  16.846   5.790  0.00  0.00     0.062 A 
HETATM    5  C   UNK N   1      27.309  16.729   6.026  0.00  0.00     0.080 A 
HETATM    6  C   UNK N   1      26.434  16.520   4.957  0.00  0.00     0.037 A 
HETATM    7  C   UNK N   1      29.663  17.088   6.906  0.00  0.00     0.199 A 
HETATM    8  C   UNK N   1      31.123  17.225   6.624  0.00  0.00     0.063 A 
HETATM    9  C   UNK N   1      31.590  17.081   5.301  0.00  0.00     0.032 A 
HETATM   10  C   UNK N   1      30.637  16.838   4.192  0.00  0.00     0.194 A 
HETATM   11  C   UNK N   1      32.048  17.515   7.657  0.00  0.00     0.087 A 
HETATM   12  C   UNK N   1      33.421  17.629   7.365  0.00  0.00    -0.014 A 
HETATM   13  C   UNK N   1      33.868  17.456   6.055  0.00  0.00     0.011 A 
HETATM   14  C   UNK N   1      32.962  17.188   5.030  0.00  0.00     0.017 A 
HETATM   15  O   UNK N   1      29.253  17.176   8.053  0.00  0.00    -0.286 OA
HETATM   16  O   UNK N   1      31.049  16.737   3.044  0.00  0.00    -0.287 OA
ENDROOT
BRANCH  12  17
HETATM   17  C   UNK N   1      34.419  18.002   8.427  0.00  0.00     0.151 C 
BRANCH  17  18
HETATM   18  C   UNK N   1      34.788  16.908   9.391  0.00  0.00     0.143 C 
HETATM   19  O   UNK N   1      34.965  15.778   8.969  0.00  0.00    -0.650 OA
BRANCH  18  20
HETATM   20  O   UNK N   1      34.947  17.159  10.706  0.00  0.00    -0.776 OA
HETATM   21  H   UNK N   1      35.248  16.745  11.492  0.00  0.00     0.167 HD
ENDBRANCH  18  20
ENDBRANCH  17  18
ENDBRANCH  12  17
BRANCH  11  22
HETATM   22  O   UNK N   1      31.624  17.701   8.921  0.00  0.00    -0.359 OA
HETATM   23  H   UNK N   1      30.712  17.716   9.134  0.00  0.00     0.217 HD
ENDBRANCH  11  22
BRANCH   5  24
HETATM   24  O   UNK N   1      26.804  16.813   7.269  0.00  0.00    -0.360 OA
HETATM   25  H   UNK N   1      26.546  16.041   7.734  0.00  0.00     0.217 HD
ENDBRANCH   5  24
TORSDOF 5
ENDMDL
MODEL 5
REMARK VINA RESULT:      -6.8     10.575     14.438
REMARK  5 active torsions:
REMARK  status: ('A' for Active; 'I' for Inactive)
REMARK    1  A    between atoms: C_5  and  O_17 
REMARK    2  A    between atoms: C_11  and  O_19 
REMARK    3  A    between atoms: C_12  and  C_15 
REMARK    4  A    between atoms: C_15  and  C_16 
REMARK    5  A    between atoms: C_16  and  O_21 
ROOT
HETATM    1  C   UNK N   1      20.442  20.128   2.425  0.00  0.00     0.004 A 
HETATM    2  C   UNK N   1      21.765  20.567   2.402  0.00  0.00     0.017 A 
HETATM    3  C   UNK N   1      22.763  19.858   3.087  0.00  0.00     0.032 A 
HETATM    4  C   UNK N   1      22.425  18.694   3.810  0.00  0.00     0.062 A 
HETATM    5  C   UNK N   1      21.078  18.252   3.817  0.00  0.00     0.080 A 
HETATM    6  C   UNK N   1      20.102  18.973   3.124  0.00  0.00     0.037 A 
HETATM    7  C   UNK N   1      23.490  17.959   4.554  0.00  0.00     0.199 A 
HETATM    8  C   UNK N   1      24.896  18.459   4.542  0.00  0.00     0.063 A 
HETATM    9  C   UNK N   1      25.218  19.607   3.788  0.00  0.00     0.032 A 
HETATM   10  C   UNK N   1      24.163  20.336   3.046  0.00  0.00     0.194 A 
HETATM   11  C   UNK N   1      25.913  17.814   5.290  0.00  0.00     0.087 A 
HETATM   12  C   UNK N   1      27.234  18.301   5.253  0.00  0.00    -0.014 A 
HETATM   13  C   UNK N   1      27.539  19.422   4.480  0.00  0.00     0.011 A 
HETATM   14  C   UNK N   1      26.541  20.072   3.755  0.00  0.00     0.017 A 
HETATM   15  O   UNK N   1      23.207  16.946   5.176  0.00  0.00    -0.286 OA
HETATM   16  O   UNK N   1      24.446  21.344   2.413  0.00  0.00    -0.287 OA
ENDROOT
BRANCH  12  17
HETATM   17  C   UNK N   1      28.320  17.680   6.087  0.00  0.00     0.151 C 
BRANCH  17  18
HETATM   18  C   UNK N   1      28.264  17.975   7.560  0.00  0.00     0.143 C 
HETATM   19  O   UNK N   1      28.903  18.914   8.004  0.00  0.00    -0.650 OA
BRANCH  18  20
HETATM   20  O   UNK N   1      27.504  17.236   8.394  0.00  0.00    -0.776 OA
HETATM   21  H   UNK N   1      27.578  16.545   9.022  0.00  0.00     0.167 HD
ENDBRANCH  18  20
ENDBRANCH  17  18
ENDBRANCH  12  17
BRANCH  11  22
HETATM   22  O   UNK N   1      25.624  16.744   6.053  0.00  0.00    -0.359 OA
HETATM   23  H   UNK N   1      26.221  16.428   6.701  0.00  0.00     0.217 HD
ENDBRANCH  11  22
BRANCH   5  24
HETATM   24  O   UNK N   1      20.713  17.141   4.481  0.00  0.00    -0.360 OA
HETATM   25  H   UNK N   1      21.240  16.807   5.180  0.00  0.00     0.217 HD
ENDBRANCH   5  24
TORSDOF 5
ENDMDL
MODEL 6
REMARK VINA RESULT:      -6.7     13.291     16.626
REMARK  5 active torsions:
REMARK  status: ('A' for Active; 'I' for Inactive)
REMARK    1  A    between atoms: C_5  and  O_17 
REMARK    2  A    between atoms: C_11  and  O_19 
REMARK    3  A    between atoms: C_12  and  C_15 
REMARK    4  A    between atoms: C_15  and  C_16 
REMARK    5  A    between atoms: C_16  and  O_21 
ROOT
HETATM    1  C   UNK N   1      21.602  20.510   2.290  0.00  0.00     0.004 A 
HETATM    2  C   UNK N   1      22.452  19.795   3.131  0.00  0.00     0.017 A 
HETATM    3  C   UNK N   1      21.992  18.658   3.812  0.00  0.00     0.032 A 
HETATM    4  C   UNK N   1      20.655  18.236   3.648  0.00  0.00     0.062 A 
HETATM    5  C   UNK N   1      19.803  18.966   2.782  0.00  0.00     0.080 A 
HETATM    6  C   UNK N   1      20.285  20.094   2.112  0.00  0.00     0.037 A 
HETATM    7  C   UNK N   1      20.168  17.039   4.393  0.00  0.00     0.199 A 
HETATM    8  C   UNK N   1      21.085  16.302   5.312  0.00  0.00     0.063 A 
HETATM    9  C   UNK N   1      22.426  16.721   5.437  0.00  0.00     0.032 A 
HETATM   10  C   UNK N   1      22.912  17.908   4.696  0.00  0.00     0.194 A 
HETATM   11  C   UNK N   1      20.630  15.198   6.076  0.00  0.00     0.087 A 
HETATM   12  C   UNK N   1      21.519  14.515   6.928  0.00  0.00    -0.014 A 
HETATM   13  C   UNK N   1      22.849  14.927   7.019  0.00  0.00     0.011 A 
HETATM   14  C   UNK N   1      23.299  16.022   6.283  0.00  0.00     0.017 A 
HETATM   15  O   UNK N   1      19.014  16.663   4.251  0.00  0.00    -0.286 OA
HETATM   16  O   UNK N   1      24.071  18.279   4.828  0.00  0.00    -0.287 OA
ENDROOT
BRANCH  12  17
HETATM   17  C   UNK N   1      21.050  13.384   7.803  0.00  0.00     0.151 C 
BRANCH  17  18
HETATM   18  C   UNK N   1      20.760  13.740   9.234  0.00  0.00     0.143 C 
HETATM   19  O   UNK N   1      19.660  14.177   9.526  0.00  0.00    -0.650 OA
BRANCH  18  20
HETATM   20  O   UNK N   1      21.684  13.565  10.200  0.00  0.00    -0.776 OA
HETATM   21  H   UNK N   1      22.613  13.559  10.323  0.00  0.00     0.167 HD
ENDBRANCH  18  20
ENDBRANCH  17  18
ENDBRANCH  12  17
BRANCH  11  22
HETATM   22  O   UNK N   1      19.345  14.806   6.009  0.00  0.00    -0.359 OA
HETATM   23  H   UNK N   1      19.087  14.051   5.518  0.00  0.00     0.217 HD
ENDBRANCH  11  22
BRANCH   5  24
HETATM   24  O   UNK N   1      18.526  18.594   2.585  0.00  0.00    -0.360 OA
HETATM   25  H   UNK N   1      17.934  18.515   3.307  0.00  0.00     0.217 HD
ENDBRANCH   5  24
TORSDOF 5
ENDMDL
MODEL 7
REMARK VINA RESULT:      -6.6      2.697      7.120
REMARK  5 active torsions:
REMARK  status: ('A' for Active; 'I' for Inactive)
REMARK    1  A    between atoms: C_5  and  O_17 
REMARK    2  A    between atoms: C_11  and  O_19 
REMARK    3  A    between atoms: C_12  and  C_15 
REMARK    4  A    between atoms: C_15  and  C_16 
REMARK    5  A    between atoms: C_16  and  O_21 
ROOT
HETATM    1  C   UNK N   1      32.294  17.476   4.180  0.00  0.00     0.004 A 
HETATM    2  C   UNK N   1      33.425  16.836   4.684  0.00  0.00     0.017 A 
HETATM    3  C   UNK N   1      33.437  16.337   5.994  0.00  0.00     0.032 A 
HETATM    4  C   UNK N   1      32.297  16.487   6.812  0.00  0.00     0.062 A 
HETATM    5  C   UNK N   1      31.150  17.131   6.285  0.00  0.00     0.080 A 
HETATM    6  C   UNK N   1      31.160  17.618   4.975  0.00  0.00     0.037 A 
HETATM    7  C   UNK N   1      32.327  15.972   8.213  0.00  0.00     0.199 A 
HETATM    8  C   UNK N   1      33.557  15.314   8.745  0.00  0.00     0.063 A 
HETATM    9  C   UNK N   1      34.674  15.145   7.901  0.00  0.00     0.032 A 
HETATM   10  C   UNK N   1      34.645  15.654   6.509  0.00  0.00     0.194 A 
HETATM   11  C   UNK N   1      33.631  14.871  10.089  0.00  0.00     0.087 A 
HETATM   12  C   UNK N   1      34.800  14.245  10.563  0.00  0.00    -0.014 A 
HETATM   13  C   UNK N   1      35.886  14.062   9.705  0.00  0.00     0.011 A 
HETATM   14  C   UNK N   1      35.826  14.511   8.386  0.00  0.00     0.017 A 
HETATM   15  O   UNK N   1      31.342  16.091   8.925  0.00  0.00    -0.286 OA
HETATM   16  O   UNK N   1      35.627  15.524   5.790  0.00  0.00    -0.287 OA
ENDROOT
BRANCH  12  17
HETATM   17  C   UNK N   1      34.935  13.824  12.001  0.00  0.00     0.151 C 
BRANCH  17  18
HETATM   18  C   UNK N   1      36.215  14.224  12.681  0.00  0.00     0.143 C 
HETATM   19  O   UNK N   1      36.324  15.354  13.126  0.00  0.00    -0.650 OA
BRANCH  18  20
HETATM   20  O   UNK N   1      37.232  13.351  12.828  0.00  0.00    -0.776 OA
HETATM   21  H   UNK N   1      37.666  12.660  12.368  0.00  0.00     0.167 HD
ENDBRANCH  18  20
ENDBRANCH  17  18
ENDBRANCH  12  17
BRANCH  11  22
HETATM   22  O   UNK N   1      32.596  15.060  10.928  0.00  0.00    -0.359 OA
HETATM   23  H   UNK N   1      31.714  14.885  10.665  0.00  0.00     0.217 HD
ENDBRANCH  11  22
BRANCH   5  24
HETATM   24  O   UNK N   1      30.036  17.285   7.024  0.00  0.00    -0.360 OA
HETATM   25  H   UNK N   1      29.588  18.108   7.047  0.00  0.00     0.217 HD
ENDBRANCH   5  24
TORSDOF 5
ENDMDL
MODEL 8
REMARK VINA RESULT:      -6.6      2.540      7.293
REMARK  5 active torsions:
REMARK  status: ('A' for Active; 'I' for Inactive)
REMARK    1  A    between atoms: C_5  and  O_17 
REMARK    2  A    between atoms: C_11  and  O_19 
REMARK    3  A    between atoms: C_12  and  C_15 
REMARK    4  A    between atoms: C_15  and  C_16 
REMARK    5  A    between atoms: C_16  and  O_21 
ROOT
HETATM    1  C   UNK N   1      32.454  17.173   4.072  0.00  0.00     0.004 A 
HETATM    2  C   UNK N   1      33.183  17.629   5.169  0.00  0.00     0.017 A 
HETATM    3  C   UNK N   1      33.402  16.797   6.276  0.00  0.00     0.032 A 
HETATM    4  C   UNK N   1      32.877  15.487   6.283  0.00  0.00     0.062 A 
HETATM    5  C   UNK N   1      32.146  15.031   5.158  0.00  0.00     0.080 A 
HETATM    6  C   UNK N   1      31.943  15.878   4.065  0.00  0.00     0.037 A 
HETATM    7  C   UNK N   1      33.097  14.616   7.475  0.00  0.00     0.199 A 
HETATM    8  C   UNK N   1      33.856  15.131   8.653  0.00  0.00     0.063 A 
HETATM    9  C   UNK N   1      34.400  16.432   8.612  0.00  0.00     0.032 A 
HETATM   10  C   UNK N   1      34.185  17.298   7.428  0.00  0.00     0.194 A 
HETATM   11  C   UNK N   1      34.026  14.346   9.820  0.00  0.00     0.087 A 
HETATM   12  C   UNK N   1      34.755  14.853  10.913  0.00  0.00    -0.014 A 
HETATM   13  C   UNK N   1      35.309  16.132  10.844  0.00  0.00     0.011 A 
HETATM   14  C   UNK N   1      35.131  16.917   9.706  0.00  0.00     0.017 A 
HETATM   15  O   UNK N   1      32.652  13.478   7.486  0.00  0.00    -0.286 OA
HETATM   16  O   UNK N   1      34.640  18.433   7.411  0.00  0.00    -0.287 OA
ENDROOT
BRANCH  12  17
HETATM   17  C   UNK N   1      34.896  14.071  12.190  0.00  0.00     0.151 C 
BRANCH  17  18
HETATM   18  C   UNK N   1      36.255  14.107  12.832  0.00  0.00     0.143 C 
HETATM   19  O   UNK N   1      36.380  14.627  13.928  0.00  0.00    -0.650 OA
BRANCH  18  20
HETATM   20  O   UNK N   1      37.328  13.557  12.231  0.00  0.00    -0.776 OA
HETATM   21  H   UNK N   1      38.253  13.456  12.349  0.00  0.00     0.167 HD
ENDBRANCH  18  20
ENDBRANCH  17  18
ENDBRANCH  12  17
BRANCH  11  22
HETATM   22  O   UNK N   1      33.480  13.119   9.902  0.00  0.00    -0.359 OA
HETATM   23  H   UNK N   1      33.550  12.601  10.679  0.00  0.00     0.217 HD
ENDBRANCH  11  22
BRANCH   5  24
HETATM   24  O   UNK N   1      31.638  13.786   5.115  0.00  0.00    -0.360 OA
HETATM   25  H   UNK N   1      32.200  13.044   5.005  0.00  0.00     0.217 HD
ENDBRANCH   5  24
TORSDOF 5
ENDMDL
MODEL 9
REMARK VINA RESULT:      -6.6      1.317      6.263
REMARK  5 active torsions:
REMARK  status: ('A' for Active; 'I' for Inactive)
REMARK    1  A    between atoms: C_5  and  O_17 
REMARK    2  A    between atoms: C_11  and  O_19 
REMARK    3  A    between atoms: C_12  and  C_15 
REMARK    4  A    between atoms: C_15  and  C_16 
REMARK    5  A    between atoms: C_16  and  O_21 
ROOT
HETATM    1  C   UNK N   1      33.290  16.938   6.111  0.00  0.00     0.004 A 
HETATM    2  C   UNK N   1      33.282  15.671   6.690  0.00  0.00     0.017 A 
HETATM    3  C   UNK N   1      33.887  15.452   7.936  0.00  0.00     0.032 A 
HETATM    4  C   UNK N   1      34.513  16.524   8.610  0.00  0.00     0.062 A 
HETATM    5  C   UNK N   1      34.505  17.810   8.015  0.00  0.00     0.080 A 
HETATM    6  C   UNK N   1      33.894  18.004   6.774  0.00  0.00     0.037 A 
HETATM    7  C   UNK N   1      35.172  16.277   9.925  0.00  0.00     0.199 A 
HETATM    8  C   UNK N   1      35.179  14.907  10.517  0.00  0.00     0.063 A 
HETATM    9  C   UNK N   1      34.520  13.857   9.844  0.00  0.00     0.032 A 
HETATM   10  C   UNK N   1      33.863  14.100   8.538  0.00  0.00     0.194 A 
HETATM   11  C   UNK N   1      35.850  14.634  11.735  0.00  0.00     0.087 A 
HETATM   12  C   UNK N   1      35.833  13.335  12.276  0.00  0.00    -0.014 A 
HETATM   13  C   UNK N   1      35.153  12.315  11.609  0.00  0.00     0.011 A 
HETATM   14  C   UNK N   1      34.505  12.571  10.402  0.00  0.00     0.017 A 
HETATM   15  O   UNK N   1      35.710  17.200  10.518  0.00  0.00    -0.286 OA
HETATM   16  O   UNK N   1      33.313  13.179   7.949  0.00  0.00    -0.287 OA
ENDROOT
BRANCH  12  17
HETATM   17  C   UNK N   1      36.592  12.999  13.531  0.00  0.00     0.151 C 
BRANCH  17  18
HETATM   18  C   UNK N   1      35.935  13.407  14.821  0.00  0.00     0.143 C 
HETATM   19  O   UNK N   1      36.602  13.965  15.676  0.00  0.00    -0.650 OA
BRANCH  18  20
HETATM   20  O   UNK N   1      34.623  13.189  15.039  0.00  0.00    -0.776 OA
HETATM   21  H   UNK N   1      33.936  13.431  15.628  0.00  0.00     0.167 HD
ENDBRANCH  18  20
ENDBRANCH  17  18
ENDBRANCH  12  17
BRANCH  11  22
HETATM   22  O   UNK N   1      36.524  15.608  12.375  0.00  0.00    -0.359 OA
HETATM   23  H   UNK N   1      37.083  15.421  13.103  0.00  0.00     0.217 HD
ENDBRANCH  11  22
BRANCH   5  24
HETATM   24  O   UNK N   1      35.077  18.863   8.626  0.00  0.00    -0.360 OA
HETATM   25  H   UNK N   1      35.483  19.544   8.125  0.00  0.00     0.217 HD
ENDBRANCH   5  24
TORSDOF 5
ENDMDL
