MODEL 1
REMARK VINA RESULT:      -5.7      0.000      0.000
REMARK  5 active torsions:
REMARK  status: ('A' for Active; 'I' for Inactive)
REMARK    1  A    between atoms: C_3  and  N_10 
REMARK    2  A    between atoms: C_4  and  C_7 
REMARK    3  A    between atoms: C_7  and  O_9 
REMARK       I    between atoms: N_10  and  C_11 
REMARK    4  A    between atoms: C_11  and  C_13 
REMARK    5  A    between atoms: C_13  and  O_15 
ROOT
HETATM    1  C   UNK N   1      25.080  27.930  -4.891  0.00  0.00     0.002 A 
HETATM    2  C   UNK N   1      24.895  26.759  -5.628  0.00  0.00     0.030 A 
HETATM    3  C   UNK N   1      25.540  25.567  -5.253  0.00  0.00     0.052 A 
HETATM    4  C   UNK N   1      26.384  25.562  -4.115  0.00  0.00     0.064 A 
HETATM    5  C   UNK N   1      26.557  26.751  -3.387  0.00  0.00     0.020 A 
HETATM    6  C   UNK N   1      25.911  27.926  -3.771  0.00  0.00     0.001 A 
ENDROOT
BRANCH   3   7
HETATM    7  N   UNK N   1      25.363  24.362  -5.993  0.00  0.00    -0.317 N 
HETATM    8  C   UNK N   1      25.915  24.025  -7.186  0.00  0.00     0.319 C 
HETATM    9  O   UNK N   1      26.671  24.785  -7.774  0.00  0.00    -0.261 OA
HETATM   10  H   UNK N   1      24.766  23.691  -5.589  0.00  0.00     0.169 HD
BRANCH   8  11
HETATM   11  C   UNK N   1      25.585  22.712  -7.768  0.00  0.00     0.237 C 
HETATM   12  O   UNK N   1      26.392  21.797  -7.731  0.00  0.00    -0.643 OA
BRANCH  11  13
HETATM   13  O   UNK N   1      24.382  22.518  -8.346  0.00  0.00    -0.769 OA
HETATM   14  H   UNK N   1      24.132  21.660  -8.630  0.00  0.00     0.168 HD
ENDBRANCH  11  13
ENDBRANCH   8  11
ENDBRANCH   3   7
BRANCH   4  15
HETATM   15  C   UNK N   1      27.098  24.334  -3.662  0.00  0.00     0.178 C 
HETATM   16  O   UNK N   1      26.848  23.853  -2.568  0.00  0.00    -0.646 OA
BRANCH  15  17
HETATM   17  O   UNK N   1      28.022  23.737  -4.441  0.00  0.00    -0.773 OA
HETATM   18  H   UNK N   1      28.931  23.924  -4.315  0.00  0.00     0.167 HD
ENDBRANCH  15  17
ENDBRANCH   4  15
TORSDOF 5
ENDMDL
MODEL 2
REMARK VINA RESULT:      -5.6     24.533     26.628
REMARK  5 active torsions:
REMARK  status: ('A' for Active; 'I' for Inactive)
REMARK    1  A    between atoms: C_3  and  N_10 
REMARK    2  A    between atoms: C_4  and  C_7 
REMARK    3  A    between atoms: C_7  and  O_9 
REMARK       I    between atoms: N_10  and  C_11 
REMARK    4  A    between atoms: C_11  and  C_13 
REMARK    5  A    between atoms: C_13  and  O_15 
ROOT
HETATM    1  C   UNK N   1      33.774  10.604  13.817  0.00  0.00     0.002 A 
HETATM    2  C   UNK N   1      33.814  11.276  15.040  0.00  0.00     0.030 A 
HETATM    3  C   UNK N   1      34.683  12.365  15.233  0.00  0.00     0.052 A 
HETATM    4  C   UNK N   1      35.524  12.778  14.170  0.00  0.00     0.064 A 
HETATM    5  C   UNK N   1      35.470  12.089  12.947  0.00  0.00     0.020 A 
HETATM    6  C   UNK N   1      34.602  11.011  12.771  0.00  0.00     0.001 A 
ENDROOT
BRANCH   3   7
HETATM    7  N   UNK N   1      34.737  13.062  16.474  0.00  0.00    -0.317 N 
HETATM    8  C   UNK N   1      35.210  12.614  17.665  0.00  0.00     0.319 C 
HETATM    9  O   UNK N   1      35.666  11.486  17.784  0.00  0.00    -0.261 OA
HETATM   10  H   UNK N   1      34.388  13.982  16.468  0.00  0.00     0.169 HD
BRANCH   8  11
HETATM   11  C   UNK N   1      35.164  13.521  18.826  0.00  0.00     0.237 C 
HETATM   12  O   UNK N   1      35.222  14.730  18.671  0.00  0.00    -0.643 OA
BRANCH  11  13
HETATM   13  O   UNK N   1      35.058  13.012  20.071  0.00  0.00    -0.769 OA
HETATM   14  H   UNK N   1      34.213  12.829  20.431  0.00  0.00     0.168 HD
ENDBRANCH  11  13
ENDBRANCH   8  11
ENDBRANCH   3   7
BRANCH   4  15
HETATM   15  C   UNK N   1      36.469  13.923  14.306  0.00  0.00     0.178 C 
HETATM   16  O   UNK N   1      36.347  14.902  13.586  0.00  0.00    -0.646 OA
BRANCH  15  17
HETATM   17  O   UNK N   1      37.465  13.902  15.215  0.00  0.00    -0.773 OA
HETATM   18  H   UNK N   1      38.216  14.450  15.099  0.00  0.00     0.167 HD
ENDBRANCH  15  17
ENDBRANCH   4  15
TORSDOF 5
ENDMDL
MODEL 3
REMARK VINA RESULT:      -5.6      1.948      4.274
REMARK  5 active torsions:
REMARK  status: ('A' for Active; 'I' for Inactive)
REMARK    1  A    between atoms: C_3  and  N_10 
REMARK    2  A    between atoms: C_4  and  C_7 
REMARK    3  A    between atoms: C_7  and  O_9 
REMARK       I    between atoms: N_10  and  C_11 
REMARK    4  A    between atoms: C_11  and  C_13 
REMARK    5  A    between atoms: C_13  and  O_15 
ROOT
HETATM    1  C   UNK N   1      25.955  27.629  -4.108  0.00  0.00     0.002 A 
HETATM    2  C   UNK N   1      26.997  26.794  -3.701  0.00  0.00     0.030 A 
HETATM    3  C   UNK N   1      27.169  25.525  -4.282  0.00  0.00     0.052 A 
HETATM    4  C   UNK N   1      26.271  25.097  -5.291  0.00  0.00     0.064 A 
HETATM    5  C   UNK N   1      25.229  25.951  -5.687  0.00  0.00     0.020 A 
HETATM    6  C   UNK N   1      25.071  27.207  -5.101  0.00  0.00     0.001 A 
ENDROOT
BRANCH   3   7
HETATM    7  N   UNK N   1      28.227  24.661  -3.879  0.00  0.00    -0.317 N 
HETATM    8  C   UNK N   1      28.235  23.770  -2.854  0.00  0.00     0.319 C 
HETATM    9  O   UNK N   1      27.258  23.622  -2.134  0.00  0.00    -0.261 OA
HETATM   10  H   UNK N   1      29.055  24.715  -4.408  0.00  0.00     0.169 HD
BRANCH   8  11
HETATM   11  C   UNK N   1      29.453  22.975  -2.623  0.00  0.00     0.237 C 
HETATM   12  O   UNK N   1      29.882  22.230  -3.489  0.00  0.00    -0.643 OA
BRANCH  11  13
HETATM   13  O   UNK N   1      30.102  23.069  -1.444  0.00  0.00    -0.769 OA
HETATM   14  H   UNK N   1      30.535  23.867  -1.210  0.00  0.00     0.168 HD
ENDBRANCH  11  13
ENDBRANCH   8  11
ENDBRANCH   3   7
BRANCH   4  15
HETATM   15  C   UNK N   1      26.395  23.765  -5.950  0.00  0.00     0.178 C 
HETATM   16  O   UNK N   1      25.401  23.080  -6.129  0.00  0.00    -0.646 OA
BRANCH  15  17
HETATM   17  O   UNK N   1      27.592  23.296  -6.355  0.00  0.00    -0.773 OA
HETATM   18  H   UNK N   1      28.316  23.883  -6.454  0.00  0.00     0.167 HD
ENDBRANCH  15  17
ENDBRANCH   4  15
TORSDOF 5
ENDMDL
MODEL 4
REMARK VINA RESULT:      -5.5     22.174     24.520
REMARK  5 active torsions:
REMARK  status: ('A' for Active; 'I' for Inactive)
REMARK    1  A    between atoms: C_3  and  N_10 
REMARK    2  A    between atoms: C_4  and  C_7 
REMARK    3  A    between atoms: C_7  and  O_9 
REMARK       I    between atoms: N_10  and  C_11 
REMARK    4  A    between atoms: C_11  and  C_13 
REMARK    5  A    between atoms: C_13  and  O_15 
ROOT
HETATM    1  C   UNK N   1      35.863  12.699  16.367  0.00  0.00     0.002 A 
HETATM    2  C   UNK N   1      35.956  13.713  15.411  0.00  0.00     0.030 A 
HETATM    3  C   UNK N   1      36.487  13.449  14.136  0.00  0.00     0.052 A 
HETATM    4  C   UNK N   1      36.930  12.140  13.826  0.00  0.00     0.064 A 
HETATM    5  C   UNK N   1      36.828  11.134  14.801  0.00  0.00     0.020 A 
HETATM    6  C   UNK N   1      36.299  11.410  16.062  0.00  0.00     0.001 A 
ENDROOT
BRANCH   3   7
HETATM    7  N   UNK N   1      36.590  14.471  13.148  0.00  0.00    -0.317 N 
HETATM    8  C   UNK N   1      35.656  14.853  12.240  0.00  0.00     0.319 C 
HETATM    9  O   UNK N   1      34.562  14.311  12.187  0.00  0.00    -0.261 OA
HETATM   10  H   UNK N   1      37.443  14.960  13.121  0.00  0.00     0.169 HD
BRANCH   8  11
HETATM   11  C   UNK N   1      35.987  15.944  11.307  0.00  0.00     0.237 C 
HETATM   12  O   UNK N   1      35.178  16.827  11.072  0.00  0.00    -0.643 OA
BRANCH  11  13
HETATM   13  O   UNK N   1      37.195  15.971  10.708  0.00  0.00    -0.769 OA
HETATM   14  H   UNK N   1      37.539  15.193  10.313  0.00  0.00     0.168 HD
ENDBRANCH  11  13
ENDBRANCH   8  11
ENDBRANCH   3   7
BRANCH   4  15
HETATM   15  C   UNK N   1      37.503  11.791  12.494  0.00  0.00     0.178 C 
HETATM   16  O   UNK N   1      37.253  10.708  11.988  0.00  0.00    -0.646 OA
BRANCH  15  17
HETATM   17  O   UNK N   1      38.300  12.652  11.830  0.00  0.00    -0.773 OA
HETATM   18  H   UNK N   1      39.204  12.446  11.696  0.00  0.00     0.167 HD
ENDBRANCH  15  17
ENDBRANCH   4  15
TORSDOF 5
ENDMDL
MODEL 5
REMARK VINA RESULT:      -5.5     11.237     12.879
REMARK  5 active torsions:
REMARK  status: ('A' for Active; 'I' for Inactive)
REMARK    1  A    between atoms: C_3  and  N_10 
REMARK    2  A    between atoms: C_4  and  C_7 
REMARK    3  A    between atoms: C_7  and  O_9 
REMARK       I    between atoms: N_10  and  C_11 
REMARK    4  A    between atoms: C_11  and  C_13 
REMARK    5  A    between atoms: C_13  and  O_15 
ROOT
HETATM    1  C   UNK N   1      20.578  15.209   4.295  0.00  0.00     0.002 A 
HETATM    2  C   UNK N   1      20.982  16.486   3.899  0.00  0.00     0.030 A 
HETATM    3  C   UNK N   1      20.663  16.973   2.619  0.00  0.00     0.052 A 
HETATM    4  C   UNK N   1      19.926  16.154   1.728  0.00  0.00     0.064 A 
HETATM    5  C   UNK N   1      19.529  14.873   2.146  0.00  0.00     0.020 A 
HETATM    6  C   UNK N   1      19.852  14.403   3.418  0.00  0.00     0.001 A 
ENDROOT
BRANCH   3   7
HETATM    7  N   UNK N   1      21.067  18.273   2.197  0.00  0.00    -0.317 N 
HETATM    8  C   UNK N   1      20.367  19.434   2.280  0.00  0.00     0.319 C 
HETATM    9  O   UNK N   1      19.244  19.465   2.761  0.00  0.00    -0.261 OA
HETATM   10  H   UNK N   1      21.963  18.338   1.796  0.00  0.00     0.169 HD
BRANCH   8  11
HETATM   11  C   UNK N   1      20.992  20.669   1.775  0.00  0.00     0.237 C 
HETATM   12  O   UNK N   1      21.097  20.865   0.575  0.00  0.00    -0.643 OA
BRANCH  11  13
HETATM   13  O   UNK N   1      21.452  21.591   2.644  0.00  0.00    -0.769 OA
HETATM   14  H   UNK N   1      22.308  21.500   3.015  0.00  0.00     0.168 HD
ENDBRANCH  11  13
ENDBRANCH   8  11
ENDBRANCH   3   7
BRANCH   4  15
HETATM   15  C   UNK N   1      19.554  16.608   0.357  0.00  0.00     0.178 C 
HETATM   16  O   UNK N   1      20.390  17.143  -0.354  0.00  0.00    -0.646 OA
BRANCH  15  17
HETATM   17  O   UNK N   1      18.305  16.439  -0.119  0.00  0.00    -0.773 OA
HETATM   18  H   UNK N   1      18.104  15.697  -0.654  0.00  0.00     0.167 HD
ENDBRANCH  15  17
ENDBRANCH   4  15
TORSDOF 5
ENDMDL
MODEL 6
REMARK VINA RESULT:      -5.4     23.866     25.528
REMARK  5 active torsions:
REMARK  status: ('A' for Active; 'I' for Inactive)
REMARK    1  A    between atoms: C_3  and  N_10 
REMARK    2  A    between atoms: C_4  and  C_7 
REMARK    3  A    between atoms: C_7  and  O_9 
REMARK       I    between atoms: N_10  and  C_11 
REMARK    4  A    between atoms: C_11  and  C_13 
REMARK    5  A    between atoms: C_13  and  O_15 
ROOT
HETATM    1  C   UNK N   1      36.840  15.616  17.332  0.00  0.00     0.002 A 
HETATM    2  C   UNK N   1      37.214  15.117  16.082  0.00  0.00     0.030 A 
HETATM    3  C   UNK N   1      36.607  13.961  15.562  0.00  0.00     0.052 A 
HETATM    4  C   UNK N   1      35.607  13.301  16.318  0.00  0.00     0.064 A 
HETATM    5  C   UNK N   1      35.245  13.819  17.572  0.00  0.00     0.020 A 
HETATM    6  C   UNK N   1      35.856  14.967  18.076  0.00  0.00     0.001 A 
ENDROOT
BRANCH   3   7
HETATM    7  N   UNK N   1      36.975  13.437  14.289  0.00  0.00    -0.317 N 
HETATM    8  C   UNK N   1      36.358  13.628  13.095  0.00  0.00     0.319 C 
HETATM    9  O   UNK N   1      35.354  14.320  13.002  0.00  0.00    -0.261 OA
HETATM   10  H   UNK N   1      37.777  12.866  14.273  0.00  0.00     0.169 HD
BRANCH   8  11
HETATM   11  C   UNK N   1      36.924  12.980  11.899  0.00  0.00     0.237 C 
HETATM   12  O   UNK N   1      36.431  11.956  11.456  0.00  0.00    -0.643 OA
BRANCH  11  13
HETATM   13  O   UNK N   1      37.996  13.523  11.287  0.00  0.00    -0.769 OA
HETATM   14  H   UNK N   1      38.848  13.155  11.421  0.00  0.00     0.168 HD
ENDBRANCH  11  13
ENDBRANCH   8  11
ENDBRANCH   3   7
BRANCH   4  15
HETATM   15  C   UNK N   1      34.923  12.071  15.826  0.00  0.00     0.178 C 
HETATM   16  O   UNK N   1      35.162  10.992  16.345  0.00  0.00    -0.646 OA
BRANCH  15  17
HETATM   17  O   UNK N   1      34.037  12.124  14.812  0.00  0.00    -0.773 OA
HETATM   18  H   UNK N   1      33.772  11.336  14.380  0.00  0.00     0.167 HD
ENDBRANCH  15  17
ENDBRANCH   4  15
TORSDOF 5
ENDMDL
MODEL 7
REMARK VINA RESULT:      -5.4     14.638     16.268
REMARK  5 active torsions:
REMARK  status: ('A' for Active; 'I' for Inactive)
REMARK    1  A    between atoms: C_3  and  N_10 
REMARK    2  A    between atoms: C_4  and  C_7 
REMARK    3  A    between atoms: C_7  and  O_9 
REMARK       I    between atoms: N_10  and  C_11 
REMARK    4  A    between atoms: C_11  and  C_13 
REMARK    5  A    between atoms: C_13  and  O_15 
ROOT
HETATM    1  C   UNK N   1      31.646  16.985   4.267  0.00  0.00     0.002 A 
HETATM    2  C   UNK N   1      30.791  16.874   5.365  0.00  0.00     0.030 A 
HETATM    3  C   UNK N   1      31.265  17.103   6.669  0.00  0.00     0.052 A 
HETATM    4  C   UNK N   1      32.625  17.449   6.862  0.00  0.00     0.064 A 
HETATM    5  C   UNK N   1      33.469  17.556   5.745  0.00  0.00     0.020 A 
HETATM    6  C   UNK N   1      32.985  17.326   4.457  0.00  0.00     0.001 A 
ENDROOT
BRANCH   3   7
HETATM    7  N   UNK N   1      30.407  16.995   7.801  0.00  0.00    -0.317 N 
HETATM    8  C   UNK N   1      29.448  17.865   8.210  0.00  0.00     0.319 C 
HETATM    9  O   UNK N   1      29.221  18.896   7.594  0.00  0.00    -0.261 OA
HETATM   10  H   UNK N   1      30.523  16.190   8.356  0.00  0.00     0.169 HD
BRANCH   8  11
HETATM   11  C   UNK N   1      28.676  17.541   9.424  0.00  0.00     0.237 C 
HETATM   12  O   UNK N   1      29.197  16.937  10.347  0.00  0.00    -0.643 OA
BRANCH  11  13
HETATM   13  O   UNK N   1      27.384  17.915   9.516  0.00  0.00    -0.769 OA
HETATM   14  H   UNK N   1      27.051  18.589   8.957  0.00  0.00     0.168 HD
ENDBRANCH  11  13
ENDBRANCH   8  11
ENDBRANCH   3   7
BRANCH   4  15
HETATM   15  C   UNK N   1      33.194  17.706   8.216  0.00  0.00     0.178 C 
HETATM   16  O   UNK N   1      34.011  18.599   8.375  0.00  0.00    -0.646 OA
BRANCH  15  17
HETATM   17  O   UNK N   1      32.822  16.967   9.280  0.00  0.00    -0.773 OA
HETATM   18  H   UNK N   1      33.135  17.186  10.136  0.00  0.00     0.167 HD
ENDBRANCH  15  17
ENDBRANCH   4  15
TORSDOF 5
ENDMDL
MODEL 8
REMARK VINA RESULT:      -5.4     22.269     24.655
REMARK  5 active torsions:
REMARK  status: ('A' for Active; 'I' for Inactive)
REMARK    1  A    between atoms: C_3  and  N_10 
REMARK    2  A    between atoms: C_4  and  C_7 
REMARK    3  A    between atoms: C_7  and  O_9 
REMARK       I    between atoms: N_10  and  C_11 
REMARK    4  A    between atoms: C_11  and  C_13 
REMARK    5  A    between atoms: C_13  and  O_15 
ROOT
HETATM    1  C   UNK N   1      37.238  10.230  13.008  0.00  0.00     0.002 A 
HETATM    2  C   UNK N   1      37.132  11.458  12.352  0.00  0.00     0.030 A 
HETATM    3  C   UNK N   1      36.992  12.652  13.083  0.00  0.00     0.052 A 
HETATM    4  C   UNK N   1      36.959  12.599  14.498  0.00  0.00     0.064 A 
HETATM    5  C   UNK N   1      37.067  11.354  15.139  0.00  0.00     0.020 A 
HETATM    6  C   UNK N   1      37.205  10.179  14.402  0.00  0.00     0.001 A 
ENDROOT
BRANCH   3   7
HETATM    7  N   UNK N   1      36.883  13.913  12.430  0.00  0.00    -0.317 N 
HETATM    8  C   UNK N   1      35.756  14.544  12.012  0.00  0.00     0.319 C 
HETATM    9  O   UNK N   1      34.652  14.045  12.173  0.00  0.00    -0.261 OA
HETATM   10  H   UNK N   1      37.730  14.387  12.261  0.00  0.00     0.169 HD
BRANCH   8  11
HETATM   11  C   UNK N   1      35.887  15.857  11.355  0.00  0.00     0.237 C 
HETATM   12  O   UNK N   1      36.889  16.132  10.714  0.00  0.00    -0.643 OA
BRANCH  11  13
HETATM   13  O   UNK N   1      34.893  16.762  11.460  0.00  0.00    -0.769 OA
HETATM   14  H   UNK N   1      34.157  16.718  10.882  0.00  0.00     0.168 HD
ENDBRANCH  11  13
ENDBRANCH   8  11
ENDBRANCH   3   7
BRANCH   4  15
HETATM   15  C   UNK N   1      36.813  13.825  15.334  0.00  0.00     0.178 C 
HETATM   16  O   UNK N   1      35.962  13.868  16.208  0.00  0.00    -0.646 OA
BRANCH  15  17
HETATM   17  O   UNK N   1      37.607  14.898  15.144  0.00  0.00    -0.773 OA
HETATM   18  H   UNK N   1      38.411  14.975  15.619  0.00  0.00     0.167 HD
ENDBRANCH  15  17
ENDBRANCH   4  15
TORSDOF 5
ENDMDL
MODEL 9
REMARK VINA RESULT:      -5.4     15.407     17.776
REMARK  5 active torsions:
REMARK  status: ('A' for Active; 'I' for Inactive)
REMARK    1  A    between atoms: C_3  and  N_10 
REMARK    2  A    between atoms: C_4  and  C_7 
REMARK    3  A    between atoms: C_7  and  O_9 
REMARK       I    between atoms: N_10  and  C_11 
REMARK    4  A    between atoms: C_11  and  C_13 
REMARK    5  A    between atoms: C_13  and  O_15 
ROOT
HETATM    1  C   UNK N   1      29.624  17.205   7.772  0.00  0.00     0.002 A 
HETATM    2  C   UNK N   1      30.709  17.218   8.651  0.00  0.00     0.030 A 
HETATM    3  C   UNK N   1      32.027  17.229   8.163  0.00  0.00     0.052 A 
HETATM    4  C   UNK N   1      32.249  17.227   6.763  0.00  0.00     0.064 A 
HETATM    5  C   UNK N   1      31.146  17.214   5.895  0.00  0.00     0.020 A 
HETATM    6  C   UNK N   1      29.843  17.203   6.394  0.00  0.00     0.001 A 
ENDROOT
BRANCH   3   7
HETATM    7  N   UNK N   1      33.146  17.242   9.045  0.00  0.00    -0.317 N 
HETATM    8  C   UNK N   1      33.806  16.180   9.575  0.00  0.00     0.319 C 
HETATM    9  O   UNK N   1      33.470  15.033   9.322  0.00  0.00    -0.261 OA
HETATM   10  H   UNK N   1      33.483  18.130   9.302  0.00  0.00     0.169 HD
BRANCH   8  11
HETATM   11  C   UNK N   1      34.946  16.437  10.472  0.00  0.00     0.237 C 
HETATM   12  O   UNK N   1      35.200  15.672  11.388  0.00  0.00    -0.643 OA
BRANCH  11  13
HETATM   13  O   UNK N   1      35.717  17.527  10.281  0.00  0.00    -0.769 OA
HETATM   14  H   UNK N   1      36.480  17.472   9.741  0.00  0.00     0.168 HD
ENDBRANCH  11  13
ENDBRANCH   8  11
ENDBRANCH   3   7
BRANCH   4  15
HETATM   15  C   UNK N   1      33.621  17.238   6.178  0.00  0.00     0.178 C 
HETATM   16  O   UNK N   1      33.889  16.502   5.241  0.00  0.00    -0.646 OA
BRANCH  15  17
HETATM   17  O   UNK N   1      34.581  18.049   6.665  0.00  0.00    -0.773 OA
HETATM   18  H   UNK N   1      34.890  17.934   7.542  0.00  0.00     0.167 HD
ENDBRANCH  15  17
ENDBRANCH   4  15
TORSDOF 5
ENDMDL
