MODEL 1
REMARK VINA RESULT:      -4.7      0.000      0.000
REMARK  10 active torsions:
REMARK  status: ('A' for Active; 'I' for Inactive)
REMARK    1  A    between atoms: C_2  and  C_3 
REMARK    2  A    between atoms: C_3  and  C_4 
REMARK    3  A    between atoms: C_4  and  C_5 
REMARK    4  A    between atoms: C_5  and  C_6 
REMARK    5  A    between atoms: C_6  and  C_7 
REMARK    6  A    between atoms: C_7  and  C_8 
REMARK    7  A    between atoms: C_8  and  S_9 
REMARK    8  A    between atoms: S_9  and  C_10 
REMARK    9  A    between atoms: C_10  and  C_11 
REMARK   10  A    between atoms: C_11  and  O_13 
ROOT
HETATM    1  C   UNK N   1      23.568  18.895   4.197  0.00  0.00     0.012 C 
ENDROOT
BRANCH   1   2
HETATM    2  C   UNK N   1      24.943  18.738   3.587  0.00  0.00     0.001 C 
BRANCH   2   3
HETATM    3  C   UNK N   1      25.308  20.088   3.010  0.00  0.00     0.000 C 
BRANCH   3   4
HETATM    4  C   UNK N   1      26.665  20.559   3.480  0.00  0.00     0.000 C 
BRANCH   4   5
HETATM    5  C   UNK N   1      27.253  19.452   4.330  0.00  0.00    -0.000 C 
BRANCH   5   6
HETATM    6  C   UNK N   1      27.732  19.993   5.657  0.00  0.00    -0.005 C 
HETATM    7  C   UNK N   1      27.140  21.371   5.867  0.00  0.00     0.005 C 
ENDBRANCH   5   6
ENDBRANCH   4   5
ENDBRANCH   3   4
ENDBRANCH   2   3
ENDBRANCH   1   2
BRANCH   1   8
HETATM    8  C   UNK N   1      22.650  19.736   3.336  0.00  0.00     0.109 C 
BRANCH   8   9
HETATM    9  S   UNK N   1      20.938  19.204   3.648  0.00  0.00     0.017 S 
HETATM   10  O   UNK N   1      20.435  20.648   3.821  0.00  0.00    -0.258 OA
BRANCH   9  11
HETATM   11  C   UNK N   1      20.506  19.215   1.889  0.00  0.00     0.134 C 
BRANCH  11  12
HETATM   12  C   UNK N   1      20.816  20.582   1.316  0.00  0.00     0.176 C 
BRANCH  12  13
HETATM   13  O   UNK N   1      20.654  20.557  -0.068  0.00  0.00    -0.400 OA
HETATM   14  H   UNK N   1      20.304  19.822  -0.595  0.00  0.00     0.209 HD
ENDBRANCH  12  13
ENDBRANCH  11  12
ENDBRANCH   9  11
ENDBRANCH   8   9
ENDBRANCH   1   8
TORSDOF 10
ENDMDL
MODEL 2
REMARK VINA RESULT:      -4.4      9.908     11.345
REMARK  10 active torsions:
REMARK  status: ('A' for Active; 'I' for Inactive)
REMARK    1  A    between atoms: C_2  and  C_3 
REMARK    2  A    between atoms: C_3  and  C_4 
REMARK    3  A    between atoms: C_4  and  C_5 
REMARK    4  A    between atoms: C_5  and  C_6 
REMARK    5  A    between atoms: C_6  and  C_7 
REMARK    6  A    between atoms: C_7  and  C_8 
REMARK    7  A    between atoms: C_8  and  S_9 
REMARK    8  A    between atoms: S_9  and  C_10 
REMARK    9  A    between atoms: C_10  and  C_11 
REMARK   10  A    between atoms: C_11  and  O_13 
ROOT
HETATM    1  C   UNK N   1      28.008  24.008  -4.031  0.00  0.00     0.012 C 
ENDROOT
BRANCH   1   2
HETATM    2  C   UNK N   1      26.497  24.085  -4.028  0.00  0.00     0.001 C 
BRANCH   2   3
HETATM    3  C   UNK N   1      26.119  25.040  -5.139  0.00  0.00     0.000 C 
BRANCH   3   4
HETATM    4  C   UNK N   1      26.798  26.381  -4.993  0.00  0.00     0.000 C 
BRANCH   4   5
HETATM    5  C   UNK N   1      25.716  27.439  -5.039  0.00  0.00    -0.000 C 
BRANCH   5   6
HETATM    6  C   UNK N   1      25.666  28.214  -3.743  0.00  0.00    -0.005 C 
HETATM    7  C   UNK N   1      26.326  29.561  -3.951  0.00  0.00     0.005 C 
ENDBRANCH   5   6
ENDBRANCH   4   5
ENDBRANCH   3   4
ENDBRANCH   2   3
ENDBRANCH   1   2
BRANCH   1   8
HETATM    8  C   UNK N   1      28.554  23.377  -2.769  0.00  0.00     0.109 C 
BRANCH   8   9
HETATM    9  S   UNK N   1      30.371  23.449  -2.842  0.00  0.00     0.017 S 
HETATM   10  O   UNK N   1      30.526  23.055  -1.363  0.00  0.00    -0.258 OA
BRANCH   9  11
HETATM   11  C   UNK N   1      30.519  21.721  -3.366  0.00  0.00     0.134 C 
BRANCH  11  12
HETATM   12  C   UNK N   1      31.985  21.343  -3.400  0.00  0.00     0.176 C 
BRANCH  12  13
HETATM   13  O   UNK N   1      32.472  21.242  -2.098  0.00  0.00    -0.400 OA
HETATM   14  H   UNK N   1      33.402  21.158  -1.835  0.00  0.00     0.209 HD
ENDBRANCH  12  13
ENDBRANCH  11  12
ENDBRANCH   9  11
ENDBRANCH   8   9
ENDBRANCH   1   8
TORSDOF 10
ENDMDL
MODEL 3
REMARK VINA RESULT:      -4.4     15.725     18.103
REMARK  10 active torsions:
REMARK  status: ('A' for Active; 'I' for Inactive)
REMARK    1  A    between atoms: C_2  and  C_3 
REMARK    2  A    between atoms: C_3  and  C_4 
REMARK    3  A    between atoms: C_4  and  C_5 
REMARK    4  A    between atoms: C_5  and  C_6 
REMARK    5  A    between atoms: C_6  and  C_7 
REMARK    6  A    between atoms: C_7  and  C_8 
REMARK    7  A    between atoms: C_8  and  S_9 
REMARK    8  A    between atoms: S_9  and  C_10 
REMARK    9  A    between atoms: C_10  and  C_11 
REMARK   10  A    between atoms: C_11  and  O_13 
ROOT
HETATM    1  C   UNK N   1      36.435  14.117  14.009  0.00  0.00     0.012 C 
ENDROOT
BRANCH   1   2
HETATM    2  C   UNK N   1      36.796  14.079  15.478  0.00  0.00     0.001 C 
BRANCH   2   3
HETATM    3  C   UNK N   1      35.849  13.090  16.122  0.00  0.00     0.000 C 
BRANCH   3   4
HETATM    4  C   UNK N   1      35.241  13.633  17.394  0.00  0.00     0.000 C 
BRANCH   4   5
HETATM    5  C   UNK N   1      35.236  12.505  18.405  0.00  0.00    -0.000 C 
BRANCH   5   6
HETATM    6  C   UNK N   1      35.404  11.169  17.719  0.00  0.00    -0.005 C 
HETATM    7  C   UNK N   1      35.368  10.074  18.765  0.00  0.00     0.005 C 
ENDBRANCH   5   6
ENDBRANCH   4   5
ENDBRANCH   3   4
ENDBRANCH   2   3
ENDBRANCH   1   2
BRANCH   1   8
HETATM    8  C   UNK N   1      35.321  13.151  13.666  0.00  0.00     0.109 C 
BRANCH   8   9
HETATM    9  S   UNK N   1      35.130  13.129  11.857  0.00  0.00     0.017 S 
HETATM   10  O   UNK N   1      34.462  14.515  11.830  0.00  0.00    -0.258 OA
BRANCH   9  11
HETATM   11  C   UNK N   1      36.763  13.860  11.573  0.00  0.00     0.134 C 
BRANCH  11  12
HETATM   12  C   UNK N   1      36.676  14.819  10.405  0.00  0.00     0.176 C 
BRANCH  12  13
HETATM   13  O   UNK N   1      36.870  16.123  10.856  0.00  0.00    -0.400 OA
HETATM   14  H   UNK N   1      36.303  16.888  10.671  0.00  0.00     0.209 HD
ENDBRANCH  12  13
ENDBRANCH  11  12
ENDBRANCH   9  11
ENDBRANCH   8   9
ENDBRANCH   1   8
TORSDOF 10
ENDMDL
MODEL 4
REMARK VINA RESULT:      -4.4     14.721     17.297
REMARK  10 active torsions:
REMARK  status: ('A' for Active; 'I' for Inactive)
REMARK    1  A    between atoms: C_2  and  C_3 
REMARK    2  A    between atoms: C_3  and  C_4 
REMARK    3  A    between atoms: C_4  and  C_5 
REMARK    4  A    between atoms: C_5  and  C_6 
REMARK    5  A    between atoms: C_6  and  C_7 
REMARK    6  A    between atoms: C_7  and  C_8 
REMARK    7  A    between atoms: C_8  and  S_9 
REMARK    8  A    between atoms: S_9  and  C_10 
REMARK    9  A    between atoms: C_10  and  C_11 
REMARK   10  A    between atoms: C_11  and  O_13 
ROOT
HETATM    1  C   UNK N   1      36.630  13.548  14.737  0.00  0.00     0.012 C 
ENDROOT
BRANCH   1   2
HETATM    2  C   UNK N   1      36.063  13.537  16.139  0.00  0.00     0.001 C 
BRANCH   2   3
HETATM    3  C   UNK N   1      34.808  12.694  16.082  0.00  0.00     0.000 C 
BRANCH   3   4
HETATM    4  C   UNK N   1      35.012  11.328  16.694  0.00  0.00     0.000 C 
BRANCH   4   5
HETATM    5  C   UNK N   1      34.726  10.306  15.614  0.00  0.00    -0.000 C 
BRANCH   5   6
HETATM    6  C   UNK N   1      33.602  10.772  14.719  0.00  0.00    -0.005 C 
HETATM    7  C   UNK N   1      33.922  10.387  13.289  0.00  0.00     0.005 C 
ENDBRANCH   5   6
ENDBRANCH   4   5
ENDBRANCH   3   4
ENDBRANCH   2   3
ENDBRANCH   1   2
BRANCH   1   8
HETATM    8  C   UNK N   1      35.561  13.760  13.686  0.00  0.00     0.109 C 
BRANCH   8   9
HETATM    9  S   UNK N   1      36.377  13.852  12.061  0.00  0.00     0.017 S 
HETATM   10  O   UNK N   1      35.296  12.993  11.381  0.00  0.00    -0.258 OA
BRANCH   9  11
HETATM   11  C   UNK N   1      35.517  15.379  11.603  0.00  0.00     0.134 C 
BRANCH  11  12
HETATM   12  C   UNK N   1      34.471  15.058  10.557  0.00  0.00     0.176 C 
BRANCH  12  13
HETATM   13  O   UNK N   1      33.214  14.998  11.157  0.00  0.00    -0.400 OA
HETATM   14  H   UNK N   1      32.586  15.731  11.257  0.00  0.00     0.209 HD
ENDBRANCH  12  13
ENDBRANCH  11  12
ENDBRANCH   9  11
ENDBRANCH   8   9
ENDBRANCH   1   8
TORSDOF 10
ENDMDL
MODEL 5
REMARK VINA RESULT:      -4.3     14.557     17.001
REMARK  10 active torsions:
REMARK  status: ('A' for Active; 'I' for Inactive)
REMARK    1  A    between atoms: C_2  and  C_3 
REMARK    2  A    between atoms: C_3  and  C_4 
REMARK    3  A    between atoms: C_4  and  C_5 
REMARK    4  A    between atoms: C_5  and  C_6 
REMARK    5  A    between atoms: C_6  and  C_7 
REMARK    6  A    between atoms: C_7  and  C_8 
REMARK    7  A    between atoms: C_8  and  S_9 
REMARK    8  A    between atoms: S_9  and  C_10 
REMARK    9  A    between atoms: C_10  and  C_11 
REMARK   10  A    between atoms: C_11  and  O_13 
ROOT
HETATM    1  C   UNK N   1      36.305  13.668  13.857  0.00  0.00     0.012 C 
ENDROOT
BRANCH   1   2
HETATM    2  C   UNK N   1      36.794  14.246  15.166  0.00  0.00     0.001 C 
BRANCH   2   3
HETATM    3  C   UNK N   1      36.139  13.433  16.261  0.00  0.00     0.000 C 
BRANCH   3   4
HETATM    4  C   UNK N   1      34.932  12.674  15.761  0.00  0.00     0.000 C 
BRANCH   4   5
HETATM    5  C   UNK N   1      34.956  11.310  16.420  0.00  0.00    -0.000 C 
BRANCH   5   6
HETATM    6  C   UNK N   1      34.634  10.225  15.419  0.00  0.00    -0.005 C 
HETATM    7  C   UNK N   1      33.615  10.756  14.431  0.00  0.00     0.005 C 
ENDBRANCH   5   6
ENDBRANCH   4   5
ENDBRANCH   3   4
ENDBRANCH   2   3
ENDBRANCH   1   2
BRANCH   1   8
HETATM    8  C   UNK N   1      36.095  14.731  12.801  0.00  0.00     0.109 C 
BRANCH   8   9
HETATM    9  S   UNK N   1      35.319  13.946  11.354  0.00  0.00     0.017 S 
HETATM   10  O   UNK N   1      33.987  14.687  11.565  0.00  0.00    -0.258 OA
BRANCH   9  11
HETATM   11  C   UNK N   1      35.906  15.228  10.217  0.00  0.00     0.134 C 
BRANCH  11  12
HETATM   12  C   UNK N   1      35.596  16.587  10.807  0.00  0.00     0.176 C 
BRANCH  12  13
HETATM   13  O   UNK N   1      34.519  17.157  10.131  0.00  0.00    -0.400 OA
HETATM   14  H   UNK N   1      34.458  18.069   9.808  0.00  0.00     0.209 HD
ENDBRANCH  12  13
ENDBRANCH  11  12
ENDBRANCH   9  11
ENDBRANCH   8   9
ENDBRANCH   1   8
TORSDOF 10
ENDMDL
MODEL 6
REMARK VINA RESULT:      -4.1     15.081     17.630
REMARK  10 active torsions:
REMARK  status: ('A' for Active; 'I' for Inactive)
REMARK    1  A    between atoms: C_2  and  C_3 
REMARK    2  A    between atoms: C_3  and  C_4 
REMARK    3  A    between atoms: C_4  and  C_5 
REMARK    4  A    between atoms: C_5  and  C_6 
REMARK    5  A    between atoms: C_6  and  C_7 
REMARK    6  A    between atoms: C_7  and  C_8 
REMARK    7  A    between atoms: C_8  and  S_9 
REMARK    8  A    between atoms: S_9  and  C_10 
REMARK    9  A    between atoms: C_10  and  C_11 
REMARK   10  A    between atoms: C_11  and  O_13 
ROOT
HETATM    1  C   UNK N   1      36.727  12.729  13.801  0.00  0.00     0.012 C 
ENDROOT
BRANCH   1   2
HETATM    2  C   UNK N   1      36.926  12.935  15.286  0.00  0.00     0.001 C 
BRANCH   2   3
HETATM    3  C   UNK N   1      35.822  12.162  15.974  0.00  0.00     0.000 C 
BRANCH   3   4
HETATM    4  C   UNK N   1      34.806  13.075  16.621  0.00  0.00     0.000 C 
BRANCH   4   5
HETATM    5  C   UNK N   1      35.258  13.308  18.047  0.00  0.00    -0.000 C 
BRANCH   5   6
HETATM    6  C   UNK N   1      35.166  14.773  18.406  0.00  0.00    -0.005 C 
HETATM    7  C   UNK N   1      36.375  15.492  17.845  0.00  0.00     0.005 C 
ENDBRANCH   5   6
ENDBRANCH   4   5
ENDBRANCH   3   4
ENDBRANCH   2   3
ENDBRANCH   1   2
BRANCH   1   8
HETATM    8  C   UNK N   1      36.108  13.937  13.131  0.00  0.00     0.109 C 
BRANCH   8   9
HETATM    9  S   UNK N   1      35.107  13.354  11.728  0.00  0.00     0.017 S 
HETATM   10  O   UNK N   1      34.321  14.674  11.637  0.00  0.00    -0.258 OA
BRANCH   9  11
HETATM   11  C   UNK N   1      36.308  13.931  10.500  0.00  0.00     0.134 C 
BRANCH  11  12
HETATM   12  C   UNK N   1      35.996  15.370  10.147  0.00  0.00     0.176 C 
BRANCH  12  13
HETATM   13  O   UNK N   1      36.874  16.217  10.821  0.00  0.00    -0.400 OA
HETATM   14  H   UNK N   1      36.784  17.177  10.924  0.00  0.00     0.209 HD
ENDBRANCH  12  13
ENDBRANCH  11  12
ENDBRANCH   9  11
ENDBRANCH   8   9
ENDBRANCH   1   8
TORSDOF 10
ENDMDL
MODEL 7
REMARK VINA RESULT:      -4.1      9.111     11.776
REMARK  10 active torsions:
REMARK  status: ('A' for Active; 'I' for Inactive)
REMARK    1  A    between atoms: C_2  and  C_3 
REMARK    2  A    between atoms: C_3  and  C_4 
REMARK    3  A    between atoms: C_4  and  C_5 
REMARK    4  A    between atoms: C_5  and  C_6 
REMARK    5  A    between atoms: C_6  and  C_7 
REMARK    6  A    between atoms: C_7  and  C_8 
REMARK    7  A    between atoms: C_8  and  S_9 
REMARK    8  A    between atoms: S_9  and  C_10 
REMARK    9  A    between atoms: C_10  and  C_11 
REMARK   10  A    between atoms: C_11  and  O_13 
ROOT
HETATM    1  C   UNK N   1      32.086  17.175   7.147  0.00  0.00     0.012 C 
ENDROOT
BRANCH   1   2
HETATM    2  C   UNK N   1      30.609  16.989   7.417  0.00  0.00     0.001 C 
BRANCH   2   3
HETATM    3  C   UNK N   1      30.266  17.922   8.557  0.00  0.00     0.000 C 
BRANCH   3   4
HETATM    4  C   UNK N   1      29.003  18.706   8.290  0.00  0.00     0.000 C 
BRANCH   4   5
HETATM    5  C   UNK N   1      28.289  18.026   7.140  0.00  0.00    -0.000 C 
BRANCH   5   6
HETATM    6  C   UNK N   1      27.868  19.036   6.098  0.00  0.00    -0.005 C 
HETATM    7  C   UNK N   1      27.403  20.297   6.796  0.00  0.00     0.005 C 
ENDBRANCH   5   6
ENDBRANCH   4   5
ENDBRANCH   3   4
ENDBRANCH   2   3
ENDBRANCH   1   2
BRANCH   1   8
HETATM    8  C   UNK N   1      32.803  17.836   8.303  0.00  0.00     0.109 C 
BRANCH   8   9
HETATM    9  S   UNK N   1      34.586  17.519   8.118  0.00  0.00     0.017 S 
HETATM   10  O   UNK N   1      34.956  18.990   8.376  0.00  0.00    -0.258 OA
BRANCH   9  11
HETATM   11  C   UNK N   1      34.798  17.111   9.870  0.00  0.00     0.134 C 
BRANCH  11  12
HETATM   12  C   UNK N   1      35.681  15.886   9.985  0.00  0.00     0.176 C 
BRANCH  12  13
HETATM   13  O   UNK N   1      36.779  16.175  10.792  0.00  0.00    -0.400 OA
HETATM   14  H   UNK N   1      36.777  16.716  11.598  0.00  0.00     0.209 HD
ENDBRANCH  12  13
ENDBRANCH  11  12
ENDBRANCH   9  11
ENDBRANCH   8   9
ENDBRANCH   1   8
TORSDOF 10
ENDMDL
MODEL 8
REMARK VINA RESULT:      -4.1      8.356      9.610
REMARK  10 active torsions:
REMARK  status: ('A' for Active; 'I' for Inactive)
REMARK    1  A    between atoms: C_2  and  C_3 
REMARK    2  A    between atoms: C_3  and  C_4 
REMARK    3  A    between atoms: C_4  and  C_5 
REMARK    4  A    between atoms: C_5  and  C_6 
REMARK    5  A    between atoms: C_6  and  C_7 
REMARK    6  A    between atoms: C_7  and  C_8 
REMARK    7  A    between atoms: C_8  and  S_9 
REMARK    8  A    between atoms: S_9  and  C_10 
REMARK    9  A    between atoms: C_10  and  C_11 
REMARK   10  A    between atoms: C_11  and  O_13 
ROOT
HETATM    1  C   UNK N   1      31.996  16.812   7.110  0.00  0.00     0.012 C 
ENDROOT
BRANCH   1   2
HETATM    2  C   UNK N   1      33.162  17.656   6.646  0.00  0.00     0.001 C 
BRANCH   2   3
HETATM    3  C   UNK N   1      33.322  17.381   5.167  0.00  0.00     0.000 C 
BRANCH   3   4
HETATM    4  C   UNK N   1      32.043  17.626   4.401  0.00  0.00     0.000 C 
BRANCH   4   5
HETATM    5  C   UNK N   1      32.220  17.015   3.027  0.00  0.00    -0.000 C 
BRANCH   5   6
HETATM    6  C   UNK N   1      33.325  15.985   3.036  0.00  0.00    -0.005 C 
HETATM    7  C   UNK N   1      32.714  14.608   2.873  0.00  0.00     0.005 C 
ENDBRANCH   5   6
ENDBRANCH   4   5
ENDBRANCH   3   4
ENDBRANCH   2   3
ENDBRANCH   1   2
BRANCH   1   8
HETATM    8  C   UNK N   1      31.716  16.980   8.588  0.00  0.00     0.109 C 
BRANCH   8   9
HETATM    9  S   UNK N   1      30.468  18.290   8.781  0.00  0.00     0.017 S 
HETATM   10  O   UNK N   1      29.703  17.860   7.517  0.00  0.00    -0.258 OA
BRANCH   9  11
HETATM   11  C   UNK N   1      29.405  17.263   9.829  0.00  0.00     0.134 C 
BRANCH  11  12
HETATM   12  C   UNK N   1      28.022  17.203   9.216  0.00  0.00     0.176 C 
BRANCH  12  13
HETATM   13  O   UNK N   1      27.440  18.469   9.250  0.00  0.00    -0.400 OA
HETATM   14  H   UNK N   1      27.898  19.310   9.401  0.00  0.00     0.209 HD
ENDBRANCH  12  13
ENDBRANCH  11  12
ENDBRANCH   9  11
ENDBRANCH   8   9
ENDBRANCH   1   8
TORSDOF 10
ENDMDL
MODEL 9
REMARK VINA RESULT:      -4.1      8.106     10.735
REMARK  10 active torsions:
REMARK  status: ('A' for Active; 'I' for Inactive)
REMARK    1  A    between atoms: C_2  and  C_3 
REMARK    2  A    between atoms: C_3  and  C_4 
REMARK    3  A    between atoms: C_4  and  C_5 
REMARK    4  A    between atoms: C_5  and  C_6 
REMARK    5  A    between atoms: C_6  and  C_7 
REMARK    6  A    between atoms: C_7  and  C_8 
REMARK    7  A    between atoms: C_8  and  S_9 
REMARK    8  A    between atoms: S_9  and  C_10 
REMARK    9  A    between atoms: C_10  and  C_11 
REMARK   10  A    between atoms: C_11  and  O_13 
ROOT
HETATM    1  C   UNK N   1      30.583  17.221   8.756  0.00  0.00     0.012 C 
ENDROOT
BRANCH   1   2
HETATM    2  C   UNK N   1      29.831  18.396   9.340  0.00  0.00     0.001 C 
BRANCH   2   3
HETATM    3  C   UNK N   1      28.415  18.297   8.815  0.00  0.00     0.000 C 
BRANCH   3   4
HETATM    4  C   UNK N   1      28.096  19.397   7.829  0.00  0.00     0.000 C 
BRANCH   4   5
HETATM    5  C   UNK N   1      27.824  18.737   6.494  0.00  0.00    -0.000 C 
BRANCH   5   6
HETATM    6  C   UNK N   1      26.978  19.630   5.617  0.00  0.00    -0.005 C 
HETATM    7  C   UNK N   1      27.729  19.906   4.331  0.00  0.00     0.005 C 
ENDBRANCH   5   6
ENDBRANCH   4   5
ENDBRANCH   3   4
ENDBRANCH   2   3
ENDBRANCH   1   2
BRANCH   1   8
HETATM    8  C   UNK N   1      31.999  17.583   8.362  0.00  0.00     0.109 C 
BRANCH   8   9
HETATM    9  S   UNK N   1      33.070  16.159   8.733  0.00  0.00     0.017 S 
HETATM   10  O   UNK N   1      33.502  15.999   7.264  0.00  0.00    -0.258 OA
BRANCH   9  11
HETATM   11  C   UNK N   1      34.506  17.204   9.089  0.00  0.00     0.134 C 
BRANCH  11  12
HETATM   12  C   UNK N   1      34.495  18.391   8.150  0.00  0.00     0.176 C 
BRANCH  12  13
HETATM   13  O   UNK N   1      35.399  19.351   8.600  0.00  0.00    -0.400 OA
HETATM   14  H   UNK N   1      36.322  19.199   8.859  0.00  0.00     0.209 HD
ENDBRANCH  12  13
ENDBRANCH  11  12
ENDBRANCH   9  11
ENDBRANCH   8   9
ENDBRANCH   1   8
TORSDOF 10
ENDMDL
