MODEL 1
REMARK VINA RESULT:      -7.0      0.000      0.000
REMARK  5 active torsions:
REMARK  status: ('A' for Active; 'I' for Inactive)
REMARK    1  A    between atoms: C_3  and  N_8 
REMARK    2  A    between atoms: C_4  and  C_7 
REMARK    3  A    between atoms: N_8  and  C_13 
REMARK    4  A    between atoms: C_12  and  C_15 
REMARK    5  A    between atoms: C_15  and  O_16 
ROOT
HETATM    1  N   UNK N   1      27.428  18.060   6.659  0.00  0.00    -0.355 N 
HETATM    2  H   UNK N   1      26.883  17.882   7.460  0.00  0.00     0.166 HD
ENDROOT
BRANCH   1   3
HETATM    3  C   UNK N   1      26.732  18.604   5.533  0.00  0.00     0.047 A 
HETATM    4  C   UNK N   1      26.284  17.774   4.491  0.00  0.00     0.030 A 
HETATM    5  C   UNK N   1      25.612  18.297   3.386  0.00  0.00     0.002 A 
HETATM    6  C   UNK N   1      25.376  19.666   3.301  0.00  0.00     0.001 A 
HETATM    7  C   UNK N   1      25.812  20.510   4.319  0.00  0.00     0.018 A 
HETATM    8  C   UNK N   1      26.485  20.005   5.442  0.00  0.00     0.074 A 
BRANCH   8   9
HETATM    9  C   UNK N   1      26.911  21.009   6.491  0.00  0.00     0.419 C 
HETATM   10  F   UNK N   1      28.259  21.279   6.345  0.00  0.00    -0.166 F 
HETATM   11  F   UNK N   1      26.199  22.182   6.314  0.00  0.00    -0.166 F 
HETATM   12  F   UNK N   1      26.701  20.580   7.780  0.00  0.00    -0.166 F 
ENDBRANCH   8   9
ENDBRANCH   1   3
BRANCH   1  13
HETATM   13  C   UNK N   1      28.822  17.741   6.764  0.00  0.00     0.049 A 
HETATM   14  C   UNK N   1      29.492  17.855   8.013  0.00  0.00     0.064 A 
HETATM   15  C   UNK N   1      30.866  17.568   8.081  0.00  0.00     0.020 A 
HETATM   16  C   UNK N   1      31.574  17.165   6.951  0.00  0.00     0.001 A 
HETATM   17  C   UNK N   1      30.920  17.047   5.728  0.00  0.00     0.002 A 
HETATM   18  C   UNK N   1      29.558  17.338   5.636  0.00  0.00     0.030 A 
BRANCH  14  19
HETATM   19  C   UNK N   1      28.806  18.266   9.267  0.00  0.00     0.178 C 
HETATM   20  O   UNK N   1      29.436  18.812  10.156  0.00  0.00    -0.646 OA
BRANCH  19  21
HETATM   21  O   UNK N   1      27.497  18.023   9.454  0.00  0.00    -0.773 OA
HETATM   22  H   UNK N   1      26.918  18.706   9.728  0.00  0.00     0.167 HD
ENDBRANCH  19  21
ENDBRANCH  14  19
ENDBRANCH   1  13
TORSDOF 5
ENDMDL
MODEL 2
REMARK VINA RESULT:      -6.5      2.325      2.882
REMARK  5 active torsions:
REMARK  status: ('A' for Active; 'I' for Inactive)
REMARK    1  A    between atoms: C_3  and  N_8 
REMARK    2  A    between atoms: C_4  and  C_7 
REMARK    3  A    between atoms: N_8  and  C_13 
REMARK    4  A    between atoms: C_12  and  C_15 
REMARK    5  A    between atoms: C_15  and  O_16 
ROOT
HETATM    1  N   UNK N   1      28.047  17.683   6.641  0.00  0.00    -0.355 N 
HETATM    2  H   UNK N   1      27.393  17.053   7.022  0.00  0.00     0.166 HD
ENDROOT
BRANCH   1   3
HETATM    3  C   UNK N   1      27.512  18.727   5.820  0.00  0.00     0.047 A 
HETATM    4  C   UNK N   1      27.518  20.063   6.254  0.00  0.00     0.030 A 
HETATM    5  C   UNK N   1      26.992  21.085   5.464  0.00  0.00     0.002 A 
HETATM    6  C   UNK N   1      26.443  20.788   4.221  0.00  0.00     0.001 A 
HETATM    7  C   UNK N   1      26.422  19.470   3.768  0.00  0.00     0.018 A 
HETATM    8  C   UNK N   1      26.951  18.428   4.543  0.00  0.00     0.074 A 
BRANCH   8   9
HETATM    9  C   UNK N   1      26.880  17.035   3.955  0.00  0.00     0.419 C 
HETATM   10  F   UNK N   1      26.344  16.171   4.891  0.00  0.00    -0.166 F 
HETATM   11  F   UNK N   1      26.061  17.054   2.841  0.00  0.00    -0.166 F 
HETATM   12  F   UNK N   1      28.103  16.539   3.570  0.00  0.00    -0.166 F 
ENDBRANCH   8   9
ENDBRANCH   1   3
BRANCH   1  13
HETATM   13  C   UNK N   1      29.421  17.444   6.978  0.00  0.00     0.049 A 
HETATM   14  C   UNK N   1      29.901  17.739   8.283  0.00  0.00     0.064 A 
HETATM   15  C   UNK N   1      31.259  17.525   8.577  0.00  0.00     0.020 A 
HETATM   16  C   UNK N   1      32.132  17.021   7.616  0.00  0.00     0.001 A 
HETATM   17  C   UNK N   1      31.664  16.726   6.340  0.00  0.00     0.002 A 
HETATM   18  C   UNK N   1      30.322  16.941   6.023  0.00  0.00     0.030 A 
BRANCH  14  19
HETATM   19  C   UNK N   1      29.031  18.266   9.368  0.00  0.00     0.178 C 
HETATM   20  O   UNK N   1      29.520  18.891  10.293  0.00  0.00    -0.646 OA
BRANCH  19  21
HETATM   21  O   UNK N   1      27.705  18.046   9.363  0.00  0.00    -0.773 OA
HETATM   22  H   UNK N   1      27.243  17.923   8.558  0.00  0.00     0.167 HD
ENDBRANCH  19  21
ENDBRANCH  14  19
ENDBRANCH   1  13
TORSDOF 5
ENDMDL
MODEL 3
REMARK VINA RESULT:      -6.4      3.514      6.595
REMARK  5 active torsions:
REMARK  status: ('A' for Active; 'I' for Inactive)
REMARK    1  A    between atoms: C_3  and  N_8 
REMARK    2  A    between atoms: C_4  and  C_7 
REMARK    3  A    between atoms: N_8  and  C_13 
REMARK    4  A    between atoms: C_12  and  C_15 
REMARK    5  A    between atoms: C_15  and  O_16 
ROOT
HETATM    1  N   UNK N   1      31.330  16.883   8.817  0.00  0.00    -0.355 N 
HETATM    2  H   UNK N   1      31.036  17.306   9.656  0.00  0.00     0.166 HD
ENDROOT
BRANCH   1   3
HETATM    3  C   UNK N   1      32.549  16.135   8.881  0.00  0.00     0.047 A 
HETATM    4  C   UNK N   1      32.561  14.813   9.358  0.00  0.00     0.030 A 
HETATM    5  C   UNK N   1      33.745  14.080   9.431  0.00  0.00     0.002 A 
HETATM    6  C   UNK N   1      34.945  14.658   9.030  0.00  0.00     0.001 A 
HETATM    7  C   UNK N   1      34.961  15.968   8.555  0.00  0.00     0.018 A 
HETATM    8  C   UNK N   1      33.781  16.722   8.468  0.00  0.00     0.074 A 
BRANCH   8   9
HETATM    9  C   UNK N   1      33.910  18.132   7.935  0.00  0.00     0.419 C 
HETATM   10  F   UNK N   1      35.143  18.644   8.291  0.00  0.00    -0.166 F 
HETATM   11  F   UNK N   1      33.818  18.106   6.555  0.00  0.00    -0.166 F 
HETATM   12  F   UNK N   1      32.942  18.988   8.405  0.00  0.00    -0.166 F 
ENDBRANCH   8   9
ENDBRANCH   1   3
BRANCH   1  13
HETATM   13  C   UNK N   1      30.482  17.091   7.679  0.00  0.00     0.049 A 
HETATM   14  C   UNK N   1      29.230  17.750   7.827  0.00  0.00     0.064 A 
HETATM   15  C   UNK N   1      28.404  17.912   6.702  0.00  0.00     0.020 A 
HETATM   16  C   UNK N   1      28.798  17.449   5.448  0.00  0.00     0.001 A 
HETATM   17  C   UNK N   1      30.025  16.810   5.298  0.00  0.00     0.002 A 
HETATM   18  C   UNK N   1      30.856  16.629   6.405  0.00  0.00     0.030 A 
BRANCH  14  19
HETATM   19  C   UNK N   1      28.744  18.283   9.128  0.00  0.00     0.178 C 
HETATM   20  O   UNK N   1      29.537  18.733   9.937  0.00  0.00    -0.646 OA
BRANCH  19  21
HETATM   21  O   UNK N   1      27.438  18.256   9.444  0.00  0.00    -0.773 OA
HETATM   22  H   UNK N   1      27.035  17.466   9.745  0.00  0.00     0.167 HD
ENDBRANCH  19  21
ENDBRANCH  14  19
ENDBRANCH   1  13
TORSDOF 5
ENDMDL
MODEL 4
REMARK VINA RESULT:      -6.4     11.144     12.827
REMARK  5 active torsions:
REMARK  status: ('A' for Active; 'I' for Inactive)
REMARK    1  A    between atoms: C_3  and  N_8 
REMARK    2  A    between atoms: C_4  and  C_7 
REMARK    3  A    between atoms: N_8  and  C_13 
REMARK    4  A    between atoms: C_12  and  C_15 
REMARK    5  A    between atoms: C_15  and  O_16 
ROOT
HETATM    1  N   UNK N   1      27.941  24.722  -3.975  0.00  0.00    -0.355 N 
HETATM    2  H   UNK N   1      27.386  24.548  -3.181  0.00  0.00     0.166 HD
ENDROOT
BRANCH   1   3
HETATM    3  C   UNK N   1      27.890  26.053  -4.499  0.00  0.00     0.047 A 
HETATM    4  C   UNK N   1      28.950  26.953  -4.290  0.00  0.00     0.030 A 
HETATM    5  C   UNK N   1      28.905  28.254  -4.791  0.00  0.00     0.002 A 
HETATM    6  C   UNK N   1      27.794  28.683  -5.510  0.00  0.00     0.001 A 
HETATM    7  C   UNK N   1      26.729  27.812  -5.729  0.00  0.00     0.018 A 
HETATM    8  C   UNK N   1      26.755  26.497  -5.239  0.00  0.00     0.074 A 
BRANCH   8   9
HETATM    9  C   UNK N   1      25.548  25.634  -5.537  0.00  0.00     0.419 C 
HETATM   10  F   UNK N   1      24.429  26.437  -5.649  0.00  0.00    -0.166 F 
HETATM   11  F   UNK N   1      25.747  24.974  -6.737  0.00  0.00    -0.166 F 
HETATM   12  F   UNK N   1      25.298  24.687  -4.573  0.00  0.00    -0.166 F 
ENDBRANCH   8   9
ENDBRANCH   1   3
BRANCH   1  13
HETATM   13  C   UNK N   1      28.703  23.610  -4.465  0.00  0.00     0.049 A 
HETATM   14  C   UNK N   1      29.429  22.785  -3.563  0.00  0.00     0.064 A 
HETATM   15  C   UNK N   1      30.194  21.722  -4.073  0.00  0.00     0.020 A 
HETATM   16  C   UNK N   1      30.240  21.460  -5.441  0.00  0.00     0.001 A 
HETATM   17  C   UNK N   1      29.525  22.261  -6.325  0.00  0.00     0.002 A 
HETATM   18  C   UNK N   1      28.768  23.330  -5.841  0.00  0.00     0.030 A 
BRANCH  14  19
HETATM   19  C   UNK N   1      29.422  22.991  -2.091  0.00  0.00     0.178 C 
HETATM   20  O   UNK N   1      30.474  23.061  -1.479  0.00  0.00    -0.646 OA
BRANCH  19  21
HETATM   21  O   UNK N   1      28.268  23.076  -1.407  0.00  0.00    -0.773 OA
HETATM   22  H   UNK N   1      28.251  23.428  -0.539  0.00  0.00     0.167 HD
ENDBRANCH  19  21
ENDBRANCH  14  19
ENDBRANCH   1  13
TORSDOF 5
ENDMDL
MODEL 5
REMARK VINA RESULT:      -6.4      4.094      7.209
REMARK  5 active torsions:
REMARK  status: ('A' for Active; 'I' for Inactive)
REMARK    1  A    between atoms: C_3  and  N_8 
REMARK    2  A    between atoms: C_4  and  C_7 
REMARK    3  A    between atoms: N_8  and  C_13 
REMARK    4  A    between atoms: C_12  and  C_15 
REMARK    5  A    between atoms: C_15  and  O_16 
ROOT
HETATM    1  N   UNK N   1      31.778  16.250   7.810  0.00  0.00    -0.355 N 
HETATM    2  H   UNK N   1      31.886  15.792   6.944  0.00  0.00     0.166 HD
ENDROOT
BRANCH   1   3
HETATM    3  C   UNK N   1      32.837  16.067   8.755  0.00  0.00     0.047 A 
HETATM    4  C   UNK N   1      32.860  14.949   9.607  0.00  0.00     0.030 A 
HETATM    5  C   UNK N   1      33.884  14.766  10.536  0.00  0.00     0.002 A 
HETATM    6  C   UNK N   1      34.907  15.704  10.634  0.00  0.00     0.001 A 
HETATM    7  C   UNK N   1      34.907  16.822   9.803  0.00  0.00     0.018 A 
HETATM    8  C   UNK N   1      33.890  17.023   8.858  0.00  0.00     0.074 A 
BRANCH   8   9
HETATM    9  C   UNK N   1      33.988  18.269   8.003  0.00  0.00     0.419 C 
HETATM   10  F   UNK N   1      32.930  19.108   8.298  0.00  0.00    -0.166 F 
HETATM   11  F   UNK N   1      35.172  18.923   8.289  0.00  0.00    -0.166 F 
HETATM   12  F   UNK N   1      33.964  18.012   6.653  0.00  0.00    -0.166 F 
ENDBRANCH   8   9
ENDBRANCH   1   3
BRANCH   1  13
HETATM   13  C   UNK N   1      30.578  17.019   7.969  0.00  0.00     0.049 A 
HETATM   14  C   UNK N   1      29.832  17.428   6.829  0.00  0.00     0.064 A 
HETATM   15  C   UNK N   1      28.677  18.209   7.011  0.00  0.00     0.020 A 
HETATM   16  C   UNK N   1      28.250  18.575   8.286  0.00  0.00     0.001 A 
HETATM   17  C   UNK N   1      28.974  18.171   9.403  0.00  0.00     0.002 A 
HETATM   18  C   UNK N   1      30.130  17.405   9.244  0.00  0.00     0.030 A 
BRANCH  14  19
HETATM   19  C   UNK N   1      30.214  17.067   5.438  0.00  0.00     0.178 C 
HETATM   20  O   UNK N   1      30.579  15.933   5.179  0.00  0.00    -0.646 OA
BRANCH  19  21
HETATM   21  O   UNK N   1      30.189  17.981   4.452  0.00  0.00    -0.773 OA
HETATM   22  H   UNK N   1      29.813  17.776   3.620  0.00  0.00     0.167 HD
ENDBRANCH  19  21
ENDBRANCH  14  19
ENDBRANCH   1  13
TORSDOF 5
ENDMDL
MODEL 6
REMARK VINA RESULT:      -6.4      2.831      5.287
REMARK  5 active torsions:
REMARK  status: ('A' for Active; 'I' for Inactive)
REMARK    1  A    between atoms: C_3  and  N_8 
REMARK    2  A    between atoms: C_4  and  C_7 
REMARK    3  A    between atoms: N_8  and  C_13 
REMARK    4  A    between atoms: C_12  and  C_15 
REMARK    5  A    between atoms: C_15  and  O_16 
ROOT
HETATM    1  N   UNK N   1      29.727  17.428   6.416  0.00  0.00    -0.355 N 
HETATM    2  H   UNK N   1      29.466  16.750   7.080  0.00  0.00     0.166 HD
ENDROOT
BRANCH   1   3
HETATM    3  C   UNK N   1      30.971  17.206   5.743  0.00  0.00     0.047 A 
HETATM    4  C   UNK N   1      31.024  17.086   4.344  0.00  0.00     0.030 A 
HETATM    5  C   UNK N   1      32.231  16.861   3.681  0.00  0.00     0.002 A 
HETATM    6  C   UNK N   1      33.411  16.750   4.409  0.00  0.00     0.001 A 
HETATM    7  C   UNK N   1      33.386  16.863   5.797  0.00  0.00     0.018 A 
HETATM    8  C   UNK N   1      32.184  17.094   6.484  0.00  0.00     0.074 A 
BRANCH   8   9
HETATM    9  C   UNK N   1      32.269  17.205   7.991  0.00  0.00     0.419 C 
HETATM   10  F   UNK N   1      33.512  16.770   8.411  0.00  0.00    -0.166 F 
HETATM   11  F   UNK N   1      32.111  18.529   8.358  0.00  0.00    -0.166 F 
HETATM   12  F   UNK N   1      31.315  16.467   8.651  0.00  0.00    -0.166 F 
ENDBRANCH   8   9
ENDBRANCH   1   3
BRANCH   1  13
HETATM   13  C   UNK N   1      28.812  18.519   6.240  0.00  0.00     0.049 A 
HETATM   14  C   UNK N   1      28.136  19.075   7.360  0.00  0.00     0.064 A 
HETATM   15  C   UNK N   1      27.220  20.122   7.156  0.00  0.00     0.020 A 
HETATM   16  C   UNK N   1      26.976  20.626   5.881  0.00  0.00     0.001 A 
HETATM   17  C   UNK N   1      27.641  20.088   4.783  0.00  0.00     0.002 A 
HETATM   18  C   UNK N   1      28.546  19.041   4.962  0.00  0.00     0.030 A 
BRANCH  14  19
HETATM   19  C   UNK N   1      28.350  18.603   8.754  0.00  0.00     0.178 C 
HETATM   20  O   UNK N   1      29.410  18.819   9.316  0.00  0.00    -0.646 OA
BRANCH  19  21
HETATM   21  O   UNK N   1      27.399  17.911   9.406  0.00  0.00    -0.773 OA
HETATM   22  H   UNK N   1      26.562  18.294   9.576  0.00  0.00     0.167 HD
ENDBRANCH  19  21
ENDBRANCH  14  19
ENDBRANCH   1  13
TORSDOF 5
ENDMDL
MODEL 7
REMARK VINA RESULT:      -6.4      3.049      5.810
REMARK  5 active torsions:
REMARK  status: ('A' for Active; 'I' for Inactive)
REMARK    1  A    between atoms: C_3  and  N_8 
REMARK    2  A    between atoms: C_4  and  C_7 
REMARK    3  A    between atoms: N_8  and  C_13 
REMARK    4  A    between atoms: C_12  and  C_15 
REMARK    5  A    between atoms: C_15  and  O_16 
ROOT
HETATM    1  N   UNK N   1      30.004  17.183   6.733  0.00  0.00    -0.355 N 
HETATM    2  H   UNK N   1      29.612  16.289   6.863  0.00  0.00     0.166 HD
ENDROOT
BRANCH   1   3
HETATM    3  C   UNK N   1      31.421  17.282   6.916  0.00  0.00     0.047 A 
HETATM    4  C   UNK N   1      31.963  17.700   8.143  0.00  0.00     0.030 A 
HETATM    5  C   UNK N   1      33.342  17.807   8.328  0.00  0.00     0.002 A 
HETATM    6  C   UNK N   1      34.207  17.499   7.283  0.00  0.00     0.001 A 
HETATM    7  C   UNK N   1      33.695  17.084   6.056  0.00  0.00     0.018 A 
HETATM    8  C   UNK N   1      32.313  16.964   5.850  0.00  0.00     0.074 A 
BRANCH   8   9
HETATM    9  C   UNK N   1      31.864  16.502   4.480  0.00  0.00     0.419 C 
HETATM   10  F   UNK N   1      32.907  15.845   3.856  0.00  0.00    -0.166 F 
HETATM   11  F   UNK N   1      30.804  15.625   4.623  0.00  0.00    -0.166 F 
HETATM   12  F   UNK N   1      31.455  17.527   3.661  0.00  0.00    -0.166 F 
ENDBRANCH   8   9
ENDBRANCH   1   3
BRANCH   1  13
HETATM   13  C   UNK N   1      29.085  18.227   6.383  0.00  0.00     0.049 A 
HETATM   14  C   UNK N   1      28.305  18.862   7.388  0.00  0.00     0.064 A 
HETATM   15  C   UNK N   1      27.388  19.859   7.014  0.00  0.00     0.020 A 
HETATM   16  C   UNK N   1      27.243  20.240   5.681  0.00  0.00     0.001 A 
HETATM   17  C   UNK N   1      28.010  19.625   4.697  0.00  0.00     0.002 A 
HETATM   18  C   UNK N   1      28.919  18.624   5.045  0.00  0.00     0.030 A 
BRANCH  14  19
HETATM   19  C   UNK N   1      28.410  18.522   8.832  0.00  0.00     0.178 C 
HETATM   20  O   UNK N   1      29.399  18.848   9.466  0.00  0.00    -0.646 OA
BRANCH  19  21
HETATM   21  O   UNK N   1      27.438  17.833   9.455  0.00  0.00    -0.773 OA
HETATM   22  H   UNK N   1      26.926  17.202   8.991  0.00  0.00     0.167 HD
ENDBRANCH  19  21
ENDBRANCH  14  19
ENDBRANCH   1  13
TORSDOF 5
ENDMDL
MODEL 8
REMARK VINA RESULT:      -6.3     12.937     15.059
REMARK  5 active torsions:
REMARK  status: ('A' for Active; 'I' for Inactive)
REMARK    1  A    between atoms: C_3  and  N_8 
REMARK    2  A    between atoms: C_4  and  C_7 
REMARK    3  A    between atoms: N_8  and  C_13 
REMARK    4  A    between atoms: C_12  and  C_15 
REMARK    5  A    between atoms: C_15  and  O_16 
ROOT
HETATM    1  N   UNK N   1      26.139  27.447  -5.700  0.00  0.00    -0.355 N 
HETATM    2  H   UNK N   1      25.363  27.726  -5.162  0.00  0.00     0.166 HD
ENDROOT
BRANCH   1   3
HETATM    3  C   UNK N   1      26.137  26.087  -6.149  0.00  0.00     0.047 A 
HETATM    4  C   UNK N   1      25.690  25.753  -7.439  0.00  0.00     0.030 A 
HETATM    5  C   UNK N   1      25.678  24.431  -7.882  0.00  0.00     0.002 A 
HETATM    6  C   UNK N   1      26.111  23.413  -7.038  0.00  0.00     0.001 A 
HETATM    7  C   UNK N   1      26.556  23.717  -5.754  0.00  0.00     0.018 A 
HETATM    8  C   UNK N   1      26.583  25.040  -5.290  0.00  0.00     0.074 A 
BRANCH   8   9
HETATM    9  C   UNK N   1      27.089  25.260  -3.880  0.00  0.00     0.419 C 
HETATM   10  F   UNK N   1      27.397  24.039  -3.311  0.00  0.00    -0.166 F 
HETATM   11  F   UNK N   1      28.234  26.035  -3.925  0.00  0.00    -0.166 F 
HETATM   12  F   UNK N   1      26.183  25.894  -3.064  0.00  0.00    -0.166 F 
ENDBRANCH   8   9
ENDBRANCH   1   3
BRANCH   1  13
HETATM   13  C   UNK N   1      27.133  28.453  -5.940  0.00  0.00     0.049 A 
HETATM   14  C   UNK N   1      27.248  29.570  -5.067  0.00  0.00     0.064 A 
HETATM   15  C   UNK N   1      28.208  30.558  -5.343  0.00  0.00     0.020 A 
HETATM   16  C   UNK N   1      29.052  30.453  -6.446  0.00  0.00     0.001 A 
HETATM   17  C   UNK N   1      28.946  29.358  -7.299  0.00  0.00     0.002 A 
HETATM   18  C   UNK N   1      27.992  28.371  -7.050  0.00  0.00     0.030 A 
BRANCH  14  19
HETATM   19  C   UNK N   1      26.394  29.748  -3.862  0.00  0.00     0.178 C 
HETATM   20  O   UNK N   1      26.090  28.784  -3.181  0.00  0.00    -0.646 OA
BRANCH  19  21
HETATM   21  O   UNK N   1      25.925  30.960  -3.518  0.00  0.00    -0.773 OA
HETATM   22  H   UNK N   1      25.071  31.053  -3.143  0.00  0.00     0.167 HD
ENDBRANCH  19  21
ENDBRANCH  14  19
ENDBRANCH   1  13
TORSDOF 5
ENDMDL
MODEL 9
REMARK VINA RESULT:      -6.3     14.161     15.491
REMARK  5 active torsions:
REMARK  status: ('A' for Active; 'I' for Inactive)
REMARK    1  A    between atoms: C_3  and  N_8 
REMARK    2  A    between atoms: C_4  and  C_7 
REMARK    3  A    between atoms: N_8  and  C_13 
REMARK    4  A    between atoms: C_12  and  C_15 
REMARK    5  A    between atoms: C_15  and  O_16 
ROOT
HETATM    1  N   UNK N   1      26.523  25.961  -7.432  0.00  0.00    -0.355 N 
HETATM    2  H   UNK N   1      25.683  25.997  -7.944  0.00  0.00     0.166 HD
ENDROOT
BRANCH   1   3
HETATM    3  C   UNK N   1      27.017  27.213  -6.944  0.00  0.00     0.047 A 
HETATM    4  C   UNK N   1      28.037  27.901  -7.622  0.00  0.00     0.030 A 
HETATM    5  C   UNK N   1      28.530  29.117  -7.149  0.00  0.00     0.002 A 
HETATM    6  C   UNK N   1      28.011  29.669  -5.982  0.00  0.00     0.001 A 
HETATM    7  C   UNK N   1      27.001  29.006  -5.289  0.00  0.00     0.018 A 
HETATM    8  C   UNK N   1      26.487  27.784  -5.750  0.00  0.00     0.074 A 
BRANCH   8   9
HETATM    9  C   UNK N   1      25.388  27.151  -4.924  0.00  0.00     0.419 C 
HETATM   10  F   UNK N   1      25.815  25.919  -4.465  0.00  0.00    -0.166 F 
HETATM   11  F   UNK N   1      25.112  27.961  -3.838  0.00  0.00    -0.166 F 
HETATM   12  F   UNK N   1      24.217  26.963  -5.618  0.00  0.00    -0.166 F 
ENDBRANCH   8   9
ENDBRANCH   1   3
BRANCH   1  13
HETATM   13  C   UNK N   1      27.103  24.660  -7.267  0.00  0.00     0.049 A 
HETATM   14  C   UNK N   1      26.460  23.514  -7.811  0.00  0.00     0.064 A 
HETATM   15  C   UNK N   1      27.032  22.246  -7.606  0.00  0.00     0.020 A 
HETATM   16  C   UNK N   1      28.219  22.100  -6.892  0.00  0.00     0.001 A 
HETATM   17  C   UNK N   1      28.853  23.220  -6.363  0.00  0.00     0.002 A 
HETATM   18  C   UNK N   1      28.297  24.487  -6.545  0.00  0.00     0.030 A 
BRANCH  14  19
HETATM   19  C   UNK N   1      25.199  23.588  -8.596  0.00  0.00     0.178 C 
HETATM   20  O   UNK N   1      24.273  22.839  -8.335  0.00  0.00    -0.646 OA
BRANCH  19  21
HETATM   21  O   UNK N   1      25.065  24.454  -9.615  0.00  0.00    -0.773 OA
HETATM   22  H   UNK N   1      25.772  25.018  -9.859  0.00  0.00     0.167 HD
ENDBRANCH  19  21
ENDBRANCH  14  19
ENDBRANCH   1  13
TORSDOF 5
ENDMDL
