REMARK  11 active torsions:
REMARK  status: ('A' for Active; 'I' for Inactive)
REMARK    1  A    between atoms: C_2  and  C_3 
REMARK       I    between atoms: C_2  and  N_12 
REMARK    2  A    between atoms: C_3  and  C_4 
REMARK    3  A    between atoms: C_3  and  S_11 
REMARK    4  A    between atoms: C_4  and  C_5 
REMARK    5  A    between atoms: C_13  and  N_12 
REMARK    6  A    between atoms: C_13  and  C_14 
REMARK    7  A    between atoms: C_13  and  C_22 
REMARK       I    between atoms: C_14  and  N_16 
REMARK    8  A    between atoms: N_16  and  C_17 
REMARK    9  A    between atoms: C_17  and  C_18 
REMARK   10  A    between atoms: C_18  and  O_19 
REMARK   11  A    between atoms: C_22  and  C_23 
ROOT
HETATM    1  C   UNK N   1       1.163   0.097   0.224  0.00  0.00     0.180 C 
ENDROOT
BRANCH   1   2
HETATM    2  N   UNK N   1      -0.074   0.545   0.846  0.00  0.00    -0.346 N 
HETATM    3  C   UNK N   1      -1.308   0.539   0.271  0.00  0.00     0.232 C 
HETATM    4  O   UNK N   1      -1.520  -0.073  -0.768  0.00  0.00    -0.272 OA
HETATM    5  H   UNK N   1      -0.013   0.884   1.769  0.00  0.00     0.163 HD
BRANCH   3   6
HETATM    6  C   UNK N   1      -2.377   1.417   0.842  0.00  0.00     0.140 C 
BRANCH   6   7
HETATM    7  C   UNK N   1      -3.634   0.610   1.233  0.00  0.00     0.063 C 
BRANCH   7   8
HETATM    8  C   UNK N   1      -4.894   0.936   0.486  0.00  0.00    -0.057 A 
HETATM    9  C   UNK N   1      -5.473  -0.028  -0.343  0.00  0.00     0.007 A 
HETATM   10  C   UNK N   1      -6.638   0.270  -1.057  0.00  0.00     0.001 A 
HETATM   11  C   UNK N   1      -7.224   1.534  -0.946  0.00  0.00     0.000 A 
HETATM   12  C   UNK N   1      -6.657   2.497  -0.107  0.00  0.00     0.001 A 
HETATM   13  C   UNK N   1      -5.499   2.196   0.616  0.00  0.00     0.007 A 
ENDBRANCH   7   8
ENDBRANCH   6   7
BRANCH   6  14
HETATM   14  S   UNK N   1      -2.640   2.755  -0.383  0.00  0.00    -0.168 SA
HETATM   15  H   UNK N   1      -1.878   3.420  -1.292  0.00  0.00     0.102 HD
ENDBRANCH   6  14
ENDBRANCH   3   6
ENDBRANCH   1   2
BRANCH   1  16
HETATM   16  C   UNK N   1       1.723   1.268  -0.566  0.00  0.00     0.241 C 
HETATM   17  O   UNK N   1       1.023   1.760  -1.437  0.00  0.00    -0.271 OA
HETATM   18  N   UNK N   1       2.969   1.790  -0.377  0.00  0.00    -0.345 N 
HETATM   19  H   UNK N   1       3.205   2.552  -0.954  0.00  0.00     0.163 HD
BRANCH  18  20
HETATM   20  C   UNK N   1       3.990   1.370   0.561  0.00  0.00     0.178 C 
HETATM   21  C   UNK N   1       4.480   2.578   1.336  0.00  0.00     0.043 C 
BRANCH  20  22
HETATM   22  C   UNK N   1       5.122   0.774  -0.220  0.00  0.00     0.163 C 
HETATM   23  O   UNK N   1       5.466  -0.379  -0.019  0.00  0.00    -0.648 OA
BRANCH  22  24
HETATM   24  O   UNK N   1       5.745   1.500  -1.169  0.00  0.00    -0.775 OA
HETATM   25  H   UNK N   1       6.399   1.378  -1.829  0.00  0.00     0.167 HD
ENDBRANCH  22  24
ENDBRANCH  20  22
ENDBRANCH  18  20
ENDBRANCH   1  16
BRANCH   1  26
HETATM   26  C   UNK N   1       0.977  -1.085  -0.745  0.00  0.00     0.073 C 
BRANCH  26  27
HETATM   27  C   UNK N   1       1.547  -2.370  -0.243  0.00  0.00    -0.056 A 
HETATM   28  C   UNK N   1       2.924  -2.490  -0.012  0.00  0.00     0.007 A 
HETATM   29  C   UNK N   1       3.454  -3.698   0.448  0.00  0.00     0.001 A 
HETATM   30  C   UNK N   1       2.610  -4.790   0.669  0.00  0.00     0.000 A 
HETATM   31  C   UNK N   1       1.237  -4.674   0.428  0.00  0.00     0.001 A 
HETATM   32  C   UNK N   1       0.706  -3.465  -0.029  0.00  0.00     0.007 A 
ENDBRANCH  26  27
ENDBRANCH   1  26
TORSDOF 11
