REMARK  6 active torsions:
REMARK  status: ('A' for Active; 'I' for Inactive)
REMARK    1  A    between atoms: C_7  and  N_18 
REMARK       I    between atoms: C_10  and  N_14 
REMARK    2  A    between atoms: N_14  and  C_15 
REMARK    3  A    between atoms: C_15  and  C_16 
REMARK    4  A    between atoms: C_16  and  O_17 
REMARK    5  A    between atoms: N_18  and  C_19 
REMARK    6  A    between atoms: C_19  and  C_25 
ROOT
HETATM    1  N   UNK N   1      -3.093   2.184  -0.007  0.00  0.00    -0.331 N 
HETATM    2  C   UNK N   1      -3.833   1.047  -0.026  0.00  0.00     0.184 A 
HETATM    3  N   UNK N   1      -3.037  -0.060  -0.028  0.00  0.00    -0.346 N 
ATOM      4  HN  UNK N   1      -3.325  -1.039  -0.041  1.00  0.00     0.167 HD
HETATM    5  C   UNK N   1      -1.783   0.433  -0.009  0.00  0.00     0.123 A 
HETATM    6  C   UNK N   1      -1.821   1.780   0.003  0.00  0.00     0.154 A 
HETATM    7  C   UNK N   1      -0.568  -0.225  -0.007  0.00  0.00     0.148 A 
HETATM    8  N   UNK N   1       0.566   0.534   0.008  0.00  0.00    -0.175 N 
ATOM      9  HN  UNK N   1       1.475   0.070   0.012  1.00  0.00     0.186 HD
HETATM   10  C   UNK N   1       0.514   1.900   0.018  0.00  0.00     0.681 A 
HETATM   11  N   UNK N   1      -0.697   2.546   0.015  0.00  0.00    -0.174 N 
ATOM     12  HN  UNK N   1      -0.753   3.565   0.023  1.00  0.00     0.186 HD
HETATM   13  C   UNK N   1      -3.595   3.546  -0.003  0.00  0.00     0.158 C 
HETATM   14  N   UNK N   1       1.729   2.621   0.013  0.00  0.00    -0.224 N 
HETATM   15  H   UNK N   1       2.574   2.115   0.043  0.00  0.00     0.177 HD
ENDROOT
BRANCH   7  16
HETATM   16  N   UNK N   1      -0.484  -1.631  -0.030  0.00  0.00    -0.370 N 
HETATM   17  H   UNK N   1      -1.305  -2.176  -0.022  0.00  0.00     0.161 HD
BRANCH  16  18
HETATM   18  C   UNK N   1       0.808  -2.270  -0.066  0.00  0.00     0.160 C 
BRANCH  18  19
HETATM   19  C   UNK N   1       0.707  -3.755  -0.029  0.00  0.00    -0.041 A 
HETATM   20  C   UNK N   1       1.885  -4.507  -0.034  0.00  0.00     0.009 A 
HETATM   21  C   UNK N   1       1.827  -5.901   0.010  0.00  0.00     0.001 A 
HETATM   22  C   UNK N   1       0.589  -6.548   0.060  0.00  0.00     0.000 A 
HETATM   23  C   UNK N   1      -0.592  -5.800   0.065  0.00  0.00     0.001 A 
HETATM   24  C   UNK N   1      -0.534  -4.406   0.021  0.00  0.00     0.009 A 
ENDBRANCH  18  19
ENDBRANCH  16  18
ENDBRANCH   7  16
BRANCH  14  25
HETATM   25  C   UNK N   1       1.793   4.053  -0.034  0.00  0.00     0.164 C 
BRANCH  25  26
HETATM   26  C   UNK N   1       3.252   4.458  -0.014  0.00  0.00     0.184 C 
BRANCH  26  27
HETATM   27  O   UNK N   1       3.355   5.843   0.075  0.00  0.00    -0.399 OA
HETATM   28  H   UNK N   1       4.227   6.264   0.137  0.00  0.00     0.209 HD
ENDBRANCH  26  27
ENDBRANCH  25  26
ENDBRANCH  14  25
TORSDOF 6
