MODEL 1
REMARK VINA RESULT:      -6.9      0.000      0.000
REMARK  6 active torsions:
REMARK  status: ('A' for Active; 'I' for Inactive)
REMARK    1  A    between atoms: C_7  and  N_18 
REMARK       I    between atoms: C_10  and  N_14 
REMARK    2  A    between atoms: N_14  and  C_15 
REMARK    3  A    between atoms: C_15  and  C_16 
REMARK    4  A    between atoms: C_16  and  O_17 
REMARK    5  A    between atoms: N_18  and  C_19 
REMARK    6  A    between atoms: C_19  and  C_25 
ROOT
HETATM    1  N   UNK N   1      34.281  12.195   9.897  0.00  0.00    -0.331 N 
HETATM    2  C   UNK N   1      34.890  11.269  10.679  0.00  0.00     0.184 A 
HETATM    3  N   UNK N   1      35.663  11.861  11.634  0.00  0.00    -0.346 N 
ATOM      4  HN  UNK N   1      36.229  11.408  12.352  1.00  0.00     0.167 HD
HETATM    5  C   UNK N   1      35.509  13.182  11.414  0.00  0.00     0.123 A 
HETATM    6  C   UNK N   1      34.679  13.378  10.370  0.00  0.00     0.154 A 
HETATM    7  C   UNK N   1      36.060  14.264  12.073  0.00  0.00     0.148 A 
HETATM    8  N   UNK N   1      35.732  15.512  11.630  0.00  0.00    -0.175 N 
ATOM      9  HN  UNK N   1      36.125  16.327  12.102  1.00  0.00     0.186 HD
HETATM   10  C   UNK N   1      34.891  15.698  10.568  0.00  0.00     0.681 A 
HETATM   11  N   UNK N   1      34.348  14.618   9.918  0.00  0.00    -0.174 N 
ATOM     12  HN  UNK N   1      33.718  14.739   9.125  1.00  0.00     0.186 HD
HETATM   13  C   UNK N   1      33.389  11.937   8.781  0.00  0.00     0.158 C 
HETATM   14  N   UNK N   1      34.612  17.019  10.152  0.00  0.00    -0.224 N 
HETATM   15  H   UNK N   1      35.002  17.764  10.665  0.00  0.00     0.177 HD
ENDROOT
BRANCH   7  16
HETATM   16  N   UNK N   1      36.940  14.103  13.161  0.00  0.00    -0.370 N 
HETATM   17  H   UNK N   1      37.848  13.751  13.015  0.00  0.00     0.161 HD
BRANCH  16  18
HETATM   18  C   UNK N   1      36.506  14.455  14.490  0.00  0.00     0.160 C 
BRANCH  18  19
HETATM   19  C   UNK N   1      36.277  13.259  15.347  0.00  0.00    -0.041 A 
HETATM   20  C   UNK N   1      36.899  12.057  15.000  0.00  0.00     0.009 A 
HETATM   21  C   UNK N   1      36.714  10.919  15.787  0.00  0.00     0.001 A 
HETATM   22  C   UNK N   1      35.906  10.980  16.925  0.00  0.00     0.000 A 
HETATM   23  C   UNK N   1      35.281  12.180  17.277  0.00  0.00     0.001 A 
HETATM   24  C   UNK N   1      35.466  13.318  16.490  0.00  0.00     0.009 A 
ENDBRANCH  18  19
ENDBRANCH  16  18
ENDBRANCH   7  16
BRANCH  14  25
HETATM   25  C   UNK N   1      33.790  17.329   9.018  0.00  0.00     0.164 C 
BRANCH  25  26
HETATM   26  C   UNK N   1      34.652  18.038   7.994  0.00  0.00     0.184 C 
BRANCH  26  27
HETATM   27  O   UNK N   1      35.226  19.170   8.565  0.00  0.00    -0.399 OA
HETATM   28  H   UNK N   1      34.791  20.034   8.478  0.00  0.00     0.209 HD
ENDBRANCH  26  27
ENDBRANCH  25  26
ENDBRANCH  14  25
TORSDOF 6
ENDMDL
MODEL 2
REMARK VINA RESULT:      -6.5      1.897      2.377
REMARK  6 active torsions:
REMARK  status: ('A' for Active; 'I' for Inactive)
REMARK    1  A    between atoms: C_7  and  N_18 
REMARK       I    between atoms: C_10  and  N_14 
REMARK    2  A    between atoms: N_14  and  C_15 
REMARK    3  A    between atoms: C_15  and  C_16 
REMARK    4  A    between atoms: C_16  and  O_17 
REMARK    5  A    between atoms: N_18  and  C_19 
REMARK    6  A    between atoms: C_19  and  C_25 
ROOT
HETATM    1  N   UNK N   1      37.653  13.507   9.635  0.00  0.00    -0.331 N 
HETATM    2  C   UNK N   1      38.511  13.008  10.560  0.00  0.00     0.184 A 
HETATM    3  N   UNK N   1      37.931  12.959  11.794  0.00  0.00    -0.346 N 
ATOM      4  HN  UNK N   1      38.344  12.630  12.667  1.00  0.00     0.167 HD
HETATM    5  C   UNK N   1      36.689  13.443  11.597  0.00  0.00     0.123 A 
HETATM    6  C   UNK N   1      36.527  13.771  10.300  0.00  0.00     0.154 A 
HETATM    7  C   UNK N   1      35.655  13.631  12.493  0.00  0.00     0.148 A 
HETATM    8  N   UNK N   1      34.488  14.153  12.016  0.00  0.00    -0.175 N 
ATOM      9  HN  UNK N   1      33.709  14.299  12.660  1.00  0.00     0.186 HD
HETATM   10  C   UNK N   1      34.336  14.484  10.699  0.00  0.00     0.681 A 
HETATM   11  N   UNK N   1      35.369  14.294   9.815  0.00  0.00    -0.174 N 
ATOM     12  HN  UNK N   1      35.271  14.535   8.828  1.00  0.00     0.186 HD
HETATM   13  C   UNK N   1      37.922  13.708   8.223  0.00  0.00     0.158 C 
HETATM   14  N   UNK N   1      33.106  15.038  10.280  0.00  0.00    -0.224 N 
HETATM   15  H   UNK N   1      32.383  15.130  10.944  0.00  0.00     0.177 HD
ENDROOT
BRANCH   7  16
HETATM   16  N   UNK N   1      35.787  13.312  13.859  0.00  0.00    -0.370 N 
HETATM   17  H   UNK N   1      36.460  13.773  14.412  0.00  0.00     0.161 HD
BRANCH  16  18
HETATM   18  C   UNK N   1      34.935  12.307  14.444  0.00  0.00     0.160 C 
BRANCH  18  19
HETATM   19  C   UNK N   1      35.068  12.243  15.925  0.00  0.00    -0.041 A 
HETATM   20  C   UNK N   1      35.282  11.000  16.526  0.00  0.00     0.009 A 
HETATM   21  C   UNK N   1      35.421  10.905  17.912  0.00  0.00     0.001 A 
HETATM   22  C   UNK N   1      35.349  12.056  18.702  0.00  0.00     0.000 A 
HETATM   23  C   UNK N   1      35.135  13.302  18.106  0.00  0.00     0.001 A 
HETATM   24  C   UNK N   1      34.996  13.397  16.720  0.00  0.00     0.009 A 
ENDBRANCH  18  19
ENDBRANCH  16  18
ENDBRANCH   7  16
BRANCH  14  25
HETATM   25  C   UNK N   1      32.856  15.473   8.936  0.00  0.00     0.164 C 
BRANCH  25  26
HETATM   26  C   UNK N   1      33.230  16.937   8.840  0.00  0.00     0.184 C 
BRANCH  26  27
HETATM   27  O   UNK N   1      34.163  17.250   9.824  0.00  0.00    -0.399 OA
HETATM   28  H   UNK N   1      34.508  16.556  10.408  0.00  0.00     0.209 HD
ENDBRANCH  26  27
ENDBRANCH  25  26
ENDBRANCH  14  25
TORSDOF 6
ENDMDL
MODEL 3
REMARK VINA RESULT:      -6.5     18.562     22.722
REMARK  6 active torsions:
REMARK  status: ('A' for Active; 'I' for Inactive)
REMARK    1  A    between atoms: C_7  and  N_18 
REMARK       I    between atoms: C_10  and  N_14 
REMARK    2  A    between atoms: N_14  and  C_15 
REMARK    3  A    between atoms: C_15  and  C_16 
REMARK    4  A    between atoms: C_16  and  O_17 
REMARK    5  A    between atoms: N_18  and  C_19 
REMARK    6  A    between atoms: C_19  and  C_25 
ROOT
HETATM    1  N   UNK N   1      27.773  21.880  -7.418  0.00  0.00    -0.331 N 
HETATM    2  C   UNK N   1      26.531  22.033  -7.941  0.00  0.00     0.184 A 
HETATM    3  N   UNK N   1      25.836  23.006  -7.287  0.00  0.00    -0.346 N 
ATOM      4  HN  UNK N   1      24.885  23.327  -7.469  1.00  0.00     0.167 HD
HETATM    5  C   UNK N   1      26.691  23.448  -6.344  0.00  0.00     0.123 A 
HETATM    6  C   UNK N   1      27.853  22.769  -6.425  0.00  0.00     0.154 A 
HETATM    7  C   UNK N   1      26.528  24.426  -5.382  0.00  0.00     0.148 A 
HETATM    8  N   UNK N   1      27.573  24.669  -4.538  0.00  0.00    -0.175 N 
ATOM      9  HN  UNK N   1      27.476  25.388  -3.821  1.00  0.00     0.186 HD
HETATM   10  C   UNK N   1      28.745  23.971  -4.630  0.00  0.00     0.681 A 
HETATM   11  N   UNK N   1      28.899  23.000  -5.588  0.00  0.00    -0.174 N 
ATOM     12  HN  UNK N   1      29.768  22.471  -5.670  1.00  0.00     0.186 HD
HETATM   13  C   UNK N   1      28.789  20.939  -7.854  0.00  0.00     0.158 C 
HETATM   14  N   UNK N   1      29.777  24.263  -3.709  0.00  0.00    -0.224 N 
HETATM   15  H   UNK N   1      29.631  24.987  -3.057  0.00  0.00     0.177 HD
ENDROOT
BRANCH   7  16
HETATM   16  N   UNK N   1      25.327  25.151  -5.256  0.00  0.00    -0.370 N 
HETATM   17  H   UNK N   1      24.627  24.845  -4.633  0.00  0.00     0.161 HD
BRANCH  16  18
HETATM   18  C   UNK N   1      25.126  26.344  -6.040  0.00  0.00     0.160 C 
BRANCH  18  19
HETATM   19  C   UNK N   1      25.865  27.514  -5.492  0.00  0.00    -0.041 A 
HETATM   20  C   UNK N   1      26.913  28.056  -6.242  0.00  0.00     0.009 A 
HETATM   21  C   UNK N   1      27.620  29.160  -5.762  0.00  0.00     0.001 A 
HETATM   22  C   UNK N   1      27.281  29.726  -4.530  0.00  0.00     0.000 A 
HETATM   23  C   UNK N   1      26.234  29.187  -3.776  0.00  0.00     0.001 A 
HETATM   24  C   UNK N   1      25.527  28.084  -4.256  0.00  0.00     0.009 A 
ENDBRANCH  18  19
ENDBRANCH  16  18
ENDBRANCH   7  16
BRANCH  14  25
HETATM   25  C   UNK N   1      31.024  23.556  -3.677  0.00  0.00     0.164 C 
BRANCH  25  26
HETATM   26  C   UNK N   1      30.924  22.474  -2.622  0.00  0.00     0.184 C 
BRANCH  26  27
HETATM   27  O   UNK N   1      30.399  23.008  -1.449  0.00  0.00    -0.399 OA
HETATM   28  H   UNK N   1      30.126  23.939  -1.417  0.00  0.00     0.209 HD
ENDBRANCH  26  27
ENDBRANCH  25  26
ENDBRANCH  14  25
TORSDOF 6
ENDMDL
MODEL 4
REMARK VINA RESULT:      -6.4      2.269      4.210
REMARK  6 active torsions:
REMARK  status: ('A' for Active; 'I' for Inactive)
REMARK    1  A    between atoms: C_7  and  N_18 
REMARK       I    between atoms: C_10  and  N_14 
REMARK    2  A    between atoms: N_14  and  C_15 
REMARK    3  A    between atoms: C_15  and  C_16 
REMARK    4  A    between atoms: C_16  and  O_17 
REMARK    5  A    between atoms: N_18  and  C_19 
REMARK    6  A    between atoms: C_19  and  C_25 
ROOT
HETATM    1  N   UNK N   1      34.813  15.544   9.644  0.00  0.00    -0.331 N 
HETATM    2  C   UNK N   1      35.362  16.502  10.432  0.00  0.00     0.184 A 
HETATM    3  N   UNK N   1      36.003  15.953  11.503  0.00  0.00    -0.346 N 
ATOM      4  HN  UNK N   1      36.500  16.437  12.251  1.00  0.00     0.167 HD
HETATM    5  C   UNK N   1      35.830  14.626  11.348  0.00  0.00     0.123 A 
HETATM    6  C   UNK N   1      35.115  14.384  10.232  0.00  0.00     0.154 A 
HETATM    7  C   UNK N   1      36.258  13.575  12.137  0.00  0.00     0.148 A 
HETATM    8  N   UNK N   1      35.932  12.310  11.742  0.00  0.00    -0.175 N 
ATOM      9  HN  UNK N   1      36.239  11.518  12.307  1.00  0.00     0.186 HD
HETATM   10  C   UNK N   1      35.204  12.078  10.608  0.00  0.00     0.681 A 
HETATM   11  N   UNK N   1      34.782  13.128   9.831  0.00  0.00    -0.174 N 
ATOM     12  HN  UNK N   1      34.238  12.972   8.982  1.00  0.00     0.186 HD
HETATM   13  C   UNK N   1      34.055  15.753   8.424  0.00  0.00     0.158 C 
HETATM   14  N   UNK N   1      34.886  10.744  10.272  0.00  0.00    -0.224 N 
HETATM   15  H   UNK N   1      35.234  10.021  10.845  0.00  0.00     0.177 HD
ENDROOT
BRANCH   7  16
HETATM   16  N   UNK N   1      36.999  13.784  13.317  0.00  0.00    -0.370 N 
HETATM   17  H   UNK N   1      37.679  14.496  13.354  0.00  0.00     0.161 HD
BRANCH  16  18
HETATM   18  C   UNK N   1      36.757  12.953  14.470  0.00  0.00     0.160 C 
BRANCH  18  19
HETATM   19  C   UNK N   1      36.514  13.751  15.703  0.00  0.00    -0.041 A 
HETATM   20  C   UNK N   1      37.201  14.958  15.866  0.00  0.00     0.009 A 
HETATM   21  C   UNK N   1      36.990  15.736  17.006  0.00  0.00     0.001 A 
HETATM   22  C   UNK N   1      36.089  15.310  17.986  0.00  0.00     0.000 A 
HETATM   23  C   UNK N   1      35.400  14.104  17.827  0.00  0.00     0.001 A 
HETATM   24  C   UNK N   1      35.611  13.326  16.688  0.00  0.00     0.009 A 
ENDBRANCH  18  19
ENDBRANCH  16  18
ENDBRANCH   7  16
BRANCH  14  25
HETATM   25  C   UNK N   1      34.082  10.389   9.139  0.00  0.00     0.164 C 
BRANCH  25  26
HETATM   26  C   UNK N   1      32.660  10.183   9.619  0.00  0.00     0.184 C 
BRANCH  26  27
HETATM   27  O   UNK N   1      31.990  11.403   9.643  0.00  0.00    -0.399 OA
HETATM   28  H   UNK N   1      31.957  11.925  10.460  0.00  0.00     0.209 HD
ENDBRANCH  26  27
ENDBRANCH  25  26
ENDBRANCH  14  25
TORSDOF 6
ENDMDL
MODEL 5
REMARK VINA RESULT:      -6.4      5.415     10.009
REMARK  6 active torsions:
REMARK  status: ('A' for Active; 'I' for Inactive)
REMARK    1  A    between atoms: C_7  and  N_18 
REMARK       I    between atoms: C_10  and  N_14 
REMARK    2  A    between atoms: N_14  and  C_15 
REMARK    3  A    between atoms: C_15  and  C_16 
REMARK    4  A    between atoms: C_16  and  O_17 
REMARK    5  A    between atoms: N_18  and  C_19 
REMARK    6  A    between atoms: C_19  and  C_25 
ROOT
HETATM    1  N   UNK N   1      32.544  15.729   4.918  0.00  0.00    -0.331 N 
HETATM    2  C   UNK N   1      31.343  15.646   4.293  0.00  0.00     0.184 A 
HETATM    3  N   UNK N   1      30.337  16.100   5.093  0.00  0.00    -0.346 N 
ATOM      4  HN  UNK N   1      29.340  16.151   4.880  1.00  0.00     0.167 HD
HETATM    5  C   UNK N   1      30.959  16.466   6.232  0.00  0.00     0.123 A 
HETATM    6  C   UNK N   1      32.283  16.241   6.122  0.00  0.00     0.154 A 
HETATM    7  C   UNK N   1      30.440  16.993   7.399  0.00  0.00     0.148 A 
HETATM    8  N   UNK N   1      31.311  17.270   8.413  0.00  0.00    -0.175 N 
ATOM      9  HN  UNK N   1      30.951  17.663   9.284  1.00  0.00     0.186 HD
HETATM   10  C   UNK N   1      32.652  17.036   8.290  0.00  0.00     0.681 A 
HETATM   11  N   UNK N   1      33.159  16.511   7.128  0.00  0.00    -0.174 N 
ATOM     12  HN  UNK N   1      34.157  16.330   7.020  1.00  0.00     0.186 HD
HETATM   13  C   UNK N   1      33.832  15.335   4.378  0.00  0.00     0.158 C 
HETATM   14  N   UNK N   1      33.491  17.328   9.389  0.00  0.00    -0.224 N 
HETATM   15  H   UNK N   1      33.087  17.730  10.193  0.00  0.00     0.177 HD
ENDROOT
BRANCH   7  16
HETATM   16  N   UNK N   1      29.061  17.234   7.558  0.00  0.00    -0.370 N 
HETATM   17  H   UNK N   1      28.417  16.492   7.477  0.00  0.00     0.161 HD
BRANCH  16  18
HETATM   18  C   UNK N   1      28.596  18.569   7.840  0.00  0.00     0.160 C 
BRANCH  18  19
HETATM   19  C   UNK N   1      27.991  19.222   6.647  0.00  0.00    -0.041 A 
HETATM   20  C   UNK N   1      27.829  18.469   5.481  0.00  0.00     0.009 A 
HETATM   21  C   UNK N   1      27.257  19.048   4.347  0.00  0.00     0.001 A 
HETATM   22  C   UNK N   1      26.844  20.383   4.376  0.00  0.00     0.000 A 
HETATM   23  C   UNK N   1      27.004  21.140   5.540  0.00  0.00     0.001 A 
HETATM   24  C   UNK N   1      27.576  20.561   6.674  0.00  0.00     0.009 A 
ENDBRANCH  18  19
ENDBRANCH  16  18
ENDBRANCH   7  16
BRANCH  14  25
HETATM   25  C   UNK N   1      34.901  17.070   9.391  0.00  0.00     0.164 C 
BRANCH  25  26
HETATM   26  C   UNK N   1      35.270  16.493  10.742  0.00  0.00     0.184 C 
BRANCH  26  27
HETATM   27  O   UNK N   1      36.648  16.314  10.817  0.00  0.00    -0.399 OA
HETATM   28  H   UNK N   1      37.225  16.678  10.127  0.00  0.00     0.209 HD
ENDBRANCH  26  27
ENDBRANCH  25  26
ENDBRANCH  14  25
TORSDOF 6
ENDMDL
MODEL 6
REMARK VINA RESULT:      -6.2     12.728     14.873
REMARK  6 active torsions:
REMARK  status: ('A' for Active; 'I' for Inactive)
REMARK    1  A    between atoms: C_7  and  N_18 
REMARK       I    between atoms: C_10  and  N_14 
REMARK    2  A    between atoms: N_14  and  C_15 
REMARK    3  A    between atoms: C_15  and  C_16 
REMARK    4  A    between atoms: C_16  and  O_17 
REMARK    5  A    between atoms: N_18  and  C_19 
REMARK    6  A    between atoms: C_19  and  C_25 
ROOT
HETATM    1  N   UNK N   1      26.203  19.144   4.295  0.00  0.00    -0.331 N 
HETATM    2  C   UNK N   1      26.792  18.284   5.164  0.00  0.00     0.184 A 
HETATM    3  N   UNK N   1      25.877  17.439   5.719  0.00  0.00    -0.346 N 
ATOM      4  HN  UNK N   1      26.042  16.697   6.400  1.00  0.00     0.167 HD
HETATM    5  C   UNK N   1      24.706  17.807   5.164  0.00  0.00     0.123 A 
HETATM    6  C   UNK N   1      24.905  18.831   4.311  0.00  0.00     0.154 A 
HETATM    7  C   UNK N   1      23.433  17.305   5.356  0.00  0.00     0.148 A 
HETATM    8  N   UNK N   1      22.411  17.879   4.658  0.00  0.00    -0.175 N 
ATOM      9  HN  UNK N   1      21.462  17.523   4.782  1.00  0.00     0.186 HD
HETATM   10  C   UNK N   1      22.626  18.918   3.796  0.00  0.00     0.681 A 
HETATM   11  N   UNK N   1      23.893  19.412   3.612  0.00  0.00    -0.174 N 
ATOM     12  HN  UNK N   1      24.071  20.187   2.972  1.00  0.00     0.186 HD
HETATM   13  C   UNK N   1      26.859  20.183   3.523  0.00  0.00     0.158 C 
HETATM   14  N   UNK N   1      21.517  19.476   3.122  0.00  0.00    -0.224 N 
HETATM   15  H   UNK N   1      20.630  19.072   3.265  0.00  0.00     0.177 HD
ENDROOT
BRANCH   7  16
HETATM   16  N   UNK N   1      23.179  16.243   6.247  0.00  0.00    -0.370 N 
HETATM   17  H   UNK N   1      23.928  15.746   6.650  0.00  0.00     0.161 HD
BRANCH  16  18
HETATM   18  C   UNK N   1      21.819  15.887   6.567  0.00  0.00     0.160 C 
BRANCH  18  19
HETATM   19  C   UNK N   1      21.735  14.948   7.719  0.00  0.00    -0.041 A 
HETATM   20  C   UNK N   1      20.691  15.103   8.635  0.00  0.00     0.009 A 
HETATM   21  C   UNK N   1      20.577  14.233   9.721  0.00  0.00     0.001 A 
HETATM   22  C   UNK N   1      21.508  13.205   9.894  0.00  0.00     0.000 A 
HETATM   23  C   UNK N   1      22.554  13.047   8.981  0.00  0.00     0.001 A 
HETATM   24  C   UNK N   1      22.668  13.916   7.895  0.00  0.00     0.009 A 
ENDBRANCH  18  19
ENDBRANCH  16  18
ENDBRANCH   7  16
BRANCH  14  25
HETATM   25  C   UNK N   1      21.619  20.603   2.241  0.00  0.00     0.164 C 
BRANCH  25  26
HETATM   26  C   UNK N   1      20.464  20.539   1.263  0.00  0.00     0.184 C 
BRANCH  26  27
HETATM   27  O   UNK N   1      20.903  20.900  -0.008  0.00  0.00    -0.399 OA
HETATM   28  H   UNK N   1      21.191  21.810  -0.184  0.00  0.00     0.209 HD
ENDBRANCH  26  27
ENDBRANCH  25  26
ENDBRANCH  14  25
TORSDOF 6
ENDMDL
MODEL 7
REMARK VINA RESULT:      -6.0     12.679     14.652
REMARK  6 active torsions:
REMARK  status: ('A' for Active; 'I' for Inactive)
REMARK    1  A    between atoms: C_7  and  N_18 
REMARK       I    between atoms: C_10  and  N_14 
REMARK    2  A    between atoms: N_14  and  C_15 
REMARK    3  A    between atoms: C_15  and  C_16 
REMARK    4  A    between atoms: C_16  and  O_17 
REMARK    5  A    between atoms: N_18  and  C_19 
REMARK    6  A    between atoms: C_19  and  C_25 
ROOT
HETATM    1  N   UNK N   1      24.985  16.774   4.690  0.00  0.00    -0.331 N 
HETATM    2  C   UNK N   1      25.392  15.985   5.715  0.00  0.00     0.184 A 
HETATM    3  N   UNK N   1      24.351  15.666   6.536  0.00  0.00    -0.346 N 
ATOM      4  HN  UNK N   1      24.371  15.090   7.378  1.00  0.00     0.167 HD
HETATM    5  C   UNK N   1      23.290  16.284   5.981  0.00  0.00     0.123 A 
HETATM    6  C   UNK N   1      23.675  16.949   4.874  0.00  0.00     0.154 A 
HETATM    7  C   UNK N   1      21.969  16.318   6.384  0.00  0.00     0.148 A 
HETATM    8  N   UNK N   1      21.091  17.038   5.626  0.00  0.00    -0.175 N 
ATOM      9  HN  UNK N   1      20.110  17.076   5.903  1.00  0.00     0.186 HD
HETATM   10  C   UNK N   1      21.495  17.710   4.506  0.00  0.00     0.681 A 
HETATM   11  N   UNK N   1      22.809  17.672   4.113  0.00  0.00    -0.174 N 
ATOM     12  HN  UNK N   1      23.127  18.167   3.279  1.00  0.00     0.186 HD
HETATM   13  C   UNK N   1      25.815  17.312   3.626  0.00  0.00     0.158 C 
HETATM   14  N   UNK N   1      20.535  18.451   3.782  0.00  0.00    -0.224 N 
HETATM   15  H   UNK N   1      19.598  18.427   4.086  0.00  0.00     0.177 HD
ENDROOT
BRANCH   7  16
HETATM   16  N   UNK N   1      21.527  15.646   7.541  0.00  0.00    -0.370 N 
HETATM   17  H   UNK N   1      21.569  16.092   8.418  0.00  0.00     0.161 HD
BRANCH  16  18
HETATM   18  C   UNK N   1      21.012  14.304   7.436  0.00  0.00     0.160 C 
BRANCH  18  19
HETATM   19  C   UNK N   1      21.592  13.392   8.460  0.00  0.00    -0.041 A 
HETATM   20  C   UNK N   1      21.084  13.437   9.761  0.00  0.00     0.009 A 
HETATM   21  C   UNK N   1      21.599  12.589  10.744  0.00  0.00     0.001 A 
HETATM   22  C   UNK N   1      22.623  11.692  10.427  0.00  0.00     0.000 A 
HETATM   23  C   UNK N   1      23.134  11.644   9.127  0.00  0.00     0.001 A 
HETATM   24  C   UNK N   1      22.620  12.492   8.144  0.00  0.00     0.009 A 
ENDBRANCH  18  19
ENDBRANCH  16  18
ENDBRANCH   7  16
BRANCH  14  25
HETATM   25  C   UNK N   1      20.857  19.237   2.627  0.00  0.00     0.164 C 
BRANCH  25  26
HETATM   26  C   UNK N   1      20.583  20.690   2.957  0.00  0.00     0.184 C 
BRANCH  26  27
HETATM   27  O   UNK N   1      21.733  21.445   2.748  0.00  0.00    -0.399 OA
HETATM   28  H   UNK N   1      21.724  22.183   2.118  0.00  0.00     0.209 HD
ENDBRANCH  26  27
ENDBRANCH  25  26
ENDBRANCH  14  25
TORSDOF 6
ENDMDL
MODEL 8
REMARK VINA RESULT:      -6.0      3.103      7.746
REMARK  6 active torsions:
REMARK  status: ('A' for Active; 'I' for Inactive)
REMARK    1  A    between atoms: C_7  and  N_18 
REMARK       I    between atoms: C_10  and  N_14 
REMARK    2  A    between atoms: N_14  and  C_15 
REMARK    3  A    between atoms: C_15  and  C_16 
REMARK    4  A    between atoms: C_16  and  O_17 
REMARK    5  A    between atoms: N_18  and  C_19 
REMARK    6  A    between atoms: C_19  and  C_25 
ROOT
HETATM    1  N   UNK N   1      34.121  12.525   7.704  0.00  0.00    -0.331 N 
HETATM    2  C   UNK N   1      33.140  12.845   6.822  0.00  0.00     0.184 A 
HETATM    3  N   UNK N   1      32.379  13.877   7.285  0.00  0.00    -0.346 N 
ATOM      4  HN  UNK N   1      31.579  14.319   6.830  1.00  0.00     0.167 HD
HETATM    5  C   UNK N   1      32.923  14.182   8.479  0.00  0.00     0.123 A 
HETATM    6  C   UNK N   1      33.968  13.368   8.727  0.00  0.00     0.154 A 
HETATM    7  C   UNK N   1      32.562  15.145   9.402  0.00  0.00     0.148 A 
HETATM    8  N   UNK N   1      33.295  15.232  10.550  0.00  0.00    -0.175 N 
ATOM      9  HN  UNK N   1      33.049  15.937  11.245  1.00  0.00     0.186 HD
HETATM   10  C   UNK N   1      34.352  14.398  10.790  0.00  0.00     0.681 A 
HETATM   11  N   UNK N   1      34.704  13.444   9.869  0.00  0.00    -0.174 N 
ATOM     12  HN  UNK N   1      35.490  12.814  10.033  1.00  0.00     0.186 HD
HETATM   13  C   UNK N   1      35.116  11.479   7.552  0.00  0.00     0.158 C 
HETATM   14  N   UNK N   1      35.053  14.533  12.010  0.00  0.00    -0.224 N 
HETATM   15  H   UNK N   1      34.782  15.250  12.629  0.00  0.00     0.177 HD
ENDROOT
BRANCH   7  16
HETATM   16  N   UNK N   1      31.471  16.009   9.187  0.00  0.00    -0.370 N 
HETATM   17  H   UNK N   1      30.555  15.709   9.392  0.00  0.00     0.161 HD
BRANCH  16  18
HETATM   18  C   UNK N   1      31.699  17.333   8.665  0.00  0.00     0.160 C 
BRANCH  18  19
HETATM   19  C   UNK N   1      31.885  17.336   7.188  0.00  0.00    -0.041 A 
HETATM   20  C   UNK N   1      33.171  17.529   6.675  0.00  0.00     0.009 A 
HETATM   21  C   UNK N   1      33.383  17.528   5.296  0.00  0.00     0.001 A 
HETATM   22  C   UNK N   1      32.309  17.332   4.423  0.00  0.00     0.000 A 
HETATM   23  C   UNK N   1      31.021  17.139   4.931  0.00  0.00     0.001 A 
HETATM   24  C   UNK N   1      30.809  17.141   6.311  0.00  0.00     0.009 A 
ENDBRANCH  18  19
ENDBRANCH  16  18
ENDBRANCH   7  16
BRANCH  14  25
HETATM   25  C   UNK N   1      36.139  13.677  12.390  0.00  0.00     0.164 C 
BRANCH  25  26
HETATM   26  C   UNK N   1      35.627  12.705  13.432  0.00  0.00     0.184 C 
BRANCH  26  27
HETATM   27  O   UNK N   1      34.773  13.364  14.311  0.00  0.00    -0.399 OA
HETATM   28  H   UNK N   1      34.676  14.329  14.267  0.00  0.00     0.209 HD
ENDBRANCH  26  27
ENDBRANCH  25  26
ENDBRANCH  14  25
TORSDOF 6
ENDMDL
MODEL 9
REMARK VINA RESULT:      -5.9      3.363      4.938
REMARK  6 active torsions:
REMARK  status: ('A' for Active; 'I' for Inactive)
REMARK    1  A    between atoms: C_7  and  N_18 
REMARK       I    between atoms: C_10  and  N_14 
REMARK    2  A    between atoms: N_14  and  C_15 
REMARK    3  A    between atoms: C_15  and  C_16 
REMARK    4  A    between atoms: C_16  and  O_17 
REMARK    5  A    between atoms: N_18  and  C_19 
REMARK    6  A    between atoms: C_19  and  C_25 
ROOT
HETATM    1  N   UNK N   1      33.301  15.626   5.451  0.00  0.00    -0.331 N 
HETATM    2  C   UNK N   1      34.616  15.300   5.377  0.00  0.00     0.184 A 
HETATM    3  N   UNK N   1      35.221  15.409   6.594  0.00  0.00    -0.346 N 
ATOM      4  HN  UNK N   1      36.198  15.227   6.827  1.00  0.00     0.167 HD
HETATM    5  C   UNK N   1      34.235  15.813   7.420  0.00  0.00     0.123 A 
HETATM    6  C   UNK N   1      33.085  15.942   6.730  0.00  0.00     0.154 A 
HETATM    7  C   UNK N   1      34.265  16.091   8.773  0.00  0.00     0.148 A 
HETATM    8  N   UNK N   1      33.104  16.493   9.365  0.00  0.00    -0.175 N 
ATOM      9  HN  UNK N   1      33.101  16.703  10.364  1.00  0.00     0.186 HD
HETATM   10  C   UNK N   1      31.944  16.623   8.654  0.00  0.00     0.681 A 
HETATM   11  N   UNK N   1      31.922  16.345   7.310  0.00  0.00    -0.174 N 
ATOM     12  HN  UNK N   1      31.064  16.436   6.765  1.00  0.00     0.186 HD
HETATM   13  C   UNK N   1      32.345  15.629   4.359  0.00  0.00     0.158 C 
HETATM   14  N   UNK N   1      30.784  17.063   9.330  0.00  0.00    -0.224 N 
HETATM   15  H   UNK N   1      30.840  17.224  10.300  0.00  0.00     0.177 HD
ENDROOT
BRANCH   7  16
HETATM   16  N   UNK N   1      35.449  15.979   9.529  0.00  0.00    -0.370 N 
HETATM   17  H   UNK N   1      36.318  15.881   9.075  0.00  0.00     0.161 HD
BRANCH  16  18
HETATM   18  C   UNK N   1      35.384  16.010  10.969  0.00  0.00     0.160 C 
BRANCH  18  19
HETATM   19  C   UNK N   1      35.993  14.801  11.589  0.00  0.00    -0.041 A 
HETATM   20  C   UNK N   1      36.821  13.991  10.807  0.00  0.00     0.009 A 
HETATM   21  C   UNK N   1      37.416  12.856  11.359  0.00  0.00     0.001 A 
HETATM   22  C   UNK N   1      37.185  12.527  12.698  0.00  0.00     0.000 A 
HETATM   23  C   UNK N   1      36.357  13.334  13.485  0.00  0.00     0.001 A 
HETATM   24  C   UNK N   1      35.762  14.469  12.932  0.00  0.00     0.009 A 
ENDBRANCH  18  19
ENDBRANCH  16  18
ENDBRANCH   7  16
BRANCH  14  25
HETATM   25  C   UNK N   1      29.529  17.288   8.672  0.00  0.00     0.164 C 
BRANCH  25  26
HETATM   26  C   UNK N   1      28.840  18.447   9.361  0.00  0.00     0.184 C 
BRANCH  26  27
HETATM   27  O   UNK N   1      27.463  18.244   9.361  0.00  0.00    -0.399 OA
HETATM   28  H   UNK N   1      26.974  18.221  10.198  0.00  0.00     0.209 HD
ENDBRANCH  26  27
ENDBRANCH  25  26
ENDBRANCH  14  25
TORSDOF 6
ENDMDL
