MODEL 1
REMARK VINA RESULT:      -5.9      0.000      0.000
REMARK  5 active torsions:
REMARK  status: ('A' for Active; 'I' for Inactive)
REMARK    1  A    between atoms: C_8  and  N_13 
REMARK    2  A    between atoms: C_9  and  C_10 
REMARK    3  A    between atoms: C_10  and  O_11 
REMARK       I    between atoms: N_13  and  C_14 
REMARK    4  A    between atoms: C_14  and  C_15 
REMARK    5  A    between atoms: C_15  and  O_16 
ROOT
HETATM    1  O   UNK N   1      30.373  17.002   7.757  0.00  0.00    -0.386 OA
HETATM    2  C   UNK N   1      29.631  16.514   6.656  0.00  0.00     0.214 C 
HETATM    3  C   UNK N   1      28.732  17.589   6.139  0.00  0.00     0.016 A 
HETATM    4  C   UNK N   1      28.314  18.656   6.927  0.00  0.00    -0.021 A 
HETATM    5  C   UNK N   1      28.780  18.749   8.352  0.00  0.00     0.067 C 
HETATM    6  C   UNK N   1      29.465  17.425   8.755  0.00  0.00     0.172 C 
HETATM    7  S   UNK N   1      28.042  17.752   4.651  0.00  0.00    -0.073 SA
HETATM    8  C   UNK N   1      27.195  19.165   4.913  0.00  0.00     0.095 A 
HETATM    9  C   UNK N   1      27.438  19.566   6.244  0.00  0.00     0.079 A 
ENDROOT
BRANCH   8  10
HETATM   10  N   UNK N   1      26.361  19.850   3.980  0.00  0.00    -0.311 N 
HETATM   11  C   UNK N   1      25.006  19.735   3.912  0.00  0.00     0.320 C 
HETATM   12  O   UNK N   1      24.396  19.002   4.675  0.00  0.00    -0.261 OA
HETATM   13  H   UNK N   1      26.800  20.451   3.335  0.00  0.00     0.170 HD
BRANCH  11  14
HETATM   14  C   UNK N   1      24.254  20.503   2.903  0.00  0.00     0.237 C 
HETATM   15  O   UNK N   1      24.811  20.915   1.899  0.00  0.00    -0.643 OA
BRANCH  14  16
HETATM   16  O   UNK N   1      22.942  20.754   3.089  0.00  0.00    -0.769 OA
HETATM   17  H   UNK N   1      22.450  20.243   3.702  0.00  0.00     0.168 HD
ENDBRANCH  14  16
ENDBRANCH  11  14
ENDBRANCH   8  10
BRANCH   9  18
HETATM   18  C   UNK N   1      26.839  20.774   6.866  0.00  0.00     0.179 C 
HETATM   19  O   UNK N   1      26.980  21.870   6.349  0.00  0.00    -0.646 OA
BRANCH  18  20
HETATM   20  O   UNK N   1      26.146  20.674   8.017  0.00  0.00    -0.773 OA
HETATM   21  H   UNK N   1      25.220  20.532   7.995  0.00  0.00     0.167 HD
ENDBRANCH  18  20
ENDBRANCH   9  18
TORSDOF 5
ENDMDL
MODEL 2
REMARK VINA RESULT:      -5.8     11.466     14.227
REMARK  5 active torsions:
REMARK  status: ('A' for Active; 'I' for Inactive)
REMARK    1  A    between atoms: C_8  and  N_13 
REMARK    2  A    between atoms: C_9  and  C_10 
REMARK    3  A    between atoms: C_10  and  O_11 
REMARK       I    between atoms: N_13  and  C_14 
REMARK    4  A    between atoms: C_14  and  C_15 
REMARK    5  A    between atoms: C_15  and  O_16 
ROOT
HETATM    1  O   UNK N   1      36.975   8.487  15.399  0.00  0.00    -0.386 OA
HETATM    2  C   UNK N   1      36.509   8.836  14.110  0.00  0.00     0.214 C 
HETATM    3  C   UNK N   1      36.598  10.317  13.928  0.00  0.00     0.016 A 
HETATM    4  C   UNK N   1      36.610  11.202  15.001  0.00  0.00    -0.021 A 
HETATM    5  C   UNK N   1      36.537  10.666  16.402  0.00  0.00     0.067 C 
HETATM    6  C   UNK N   1      36.185   9.163  16.358  0.00  0.00     0.172 C 
HETATM    7  S   UNK N   1      36.665  11.199  12.537  0.00  0.00    -0.073 SA
HETATM    8  C   UNK N   1      36.720  12.727  13.204  0.00  0.00     0.095 A 
HETATM    9  C   UNK N   1      36.681  12.580  14.607  0.00  0.00     0.079 A 
ENDROOT
BRANCH   8  10
HETATM   10  N   UNK N   1      36.781  13.967  12.501  0.00  0.00    -0.311 N 
HETATM   11  C   UNK N   1      35.704  14.642  12.012  0.00  0.00     0.320 C 
HETATM   12  O   UNK N   1      34.572  14.204  12.146  0.00  0.00    -0.261 OA
HETATM   13  H   UNK N   1      37.671  14.364  12.357  0.00  0.00     0.170 HD
BRANCH  11  14
HETATM   14  C   UNK N   1      35.899  15.922  11.306  0.00  0.00     0.237 C 
HETATM   15  O   UNK N   1      36.911  16.120  10.654  0.00  0.00    -0.643 OA
BRANCH  14  16
HETATM   16  O   UNK N   1      34.955  16.881  11.381  0.00  0.00    -0.769 OA
HETATM   17  H   UNK N   1      34.124  16.753  10.966  0.00  0.00     0.168 HD
ENDBRANCH  14  16
ENDBRANCH  11  14
ENDBRANCH   8  10
BRANCH   9  18
HETATM   18  C   UNK N   1      36.689  13.721  15.557  0.00  0.00     0.179 C 
HETATM   19  O   UNK N   1      35.819  13.824  16.407  0.00  0.00    -0.646 OA
BRANCH  18  20
HETATM   20  O   UNK N   1      37.648  14.664  15.481  0.00  0.00    -0.773 OA
HETATM   21  H   UNK N   1      38.476  14.523  15.898  0.00  0.00     0.167 HD
ENDBRANCH  18  20
ENDBRANCH   9  18
TORSDOF 5
ENDMDL
MODEL 3
REMARK VINA RESULT:      -5.7      2.412      6.345
REMARK  5 active torsions:
REMARK  status: ('A' for Active; 'I' for Inactive)
REMARK    1  A    between atoms: C_8  and  N_13 
REMARK    2  A    between atoms: C_9  and  C_10 
REMARK    3  A    between atoms: C_10  and  O_11 
REMARK       I    between atoms: N_13  and  C_14 
REMARK    4  A    between atoms: C_14  and  C_15 
REMARK    5  A    between atoms: C_15  and  O_16 
ROOT
HETATM    1  O   UNK N   1      26.235  20.863   4.794  0.00  0.00    -0.386 OA
HETATM    2  C   UNK N   1      27.316  20.187   4.182  0.00  0.00     0.214 C 
HETATM    3  C   UNK N   1      27.944  19.252   5.164  0.00  0.00     0.016 A 
HETATM    4  C   UNK N   1      27.835  19.429   6.539  0.00  0.00    -0.021 A 
HETATM    5  C   UNK N   1      27.055  20.596   7.074  0.00  0.00     0.067 C 
HETATM    6  C   UNK N   1      26.726  21.566   5.918  0.00  0.00     0.172 C 
HETATM    7  S   UNK N   1      28.869  17.915   4.892  0.00  0.00    -0.073 SA
HETATM    8  C   UNK N   1      29.172  17.485   6.475  0.00  0.00     0.095 A 
HETATM    9  C   UNK N   1      28.528  18.430   7.302  0.00  0.00     0.079 A 
ENDROOT
BRANCH   8  10
HETATM   10  N   UNK N   1      29.950  16.379   6.929  0.00  0.00    -0.311 N 
HETATM   11  C   UNK N   1      31.296  16.403   7.139  0.00  0.00     0.320 C 
HETATM   12  O   UNK N   1      31.947  17.416   6.936  0.00  0.00    -0.261 OA
HETATM   13  H   UNK N   1      29.477  15.533   7.103  0.00  0.00     0.170 HD
BRANCH  11  14
HETATM   14  C   UNK N   1      31.985  15.191   7.617  0.00  0.00     0.237 C 
HETATM   15  O   UNK N   1      31.870  14.137   7.014  0.00  0.00    -0.643 OA
BRANCH  14  16
HETATM   16  O   UNK N   1      32.748  15.246   8.727  0.00  0.00    -0.769 OA
HETATM   17  H   UNK N   1      33.338  14.545   8.925  0.00  0.00     0.168 HD
ENDBRANCH  14  16
ENDBRANCH  11  14
ENDBRANCH   8  10
BRANCH   9  18
HETATM   18  C   UNK N   1      28.582  18.402   8.786  0.00  0.00     0.179 C 
HETATM   19  O   UNK N   1      29.627  18.638   9.371  0.00  0.00    -0.646 OA
BRANCH  18  20
HETATM   20  O   UNK N   1      27.482  18.100   9.502  0.00  0.00    -0.773 OA
HETATM   21  H   UNK N   1      27.554  17.563  10.266  0.00  0.00     0.167 HD
ENDBRANCH  18  20
ENDBRANCH   9  18
TORSDOF 5
ENDMDL
MODEL 4
REMARK VINA RESULT:      -5.7      9.452     13.052
REMARK  5 active torsions:
REMARK  status: ('A' for Active; 'I' for Inactive)
REMARK    1  A    between atoms: C_8  and  N_13 
REMARK    2  A    between atoms: C_9  and  C_10 
REMARK    3  A    between atoms: C_10  and  O_11 
REMARK       I    between atoms: N_13  and  C_14 
REMARK    4  A    between atoms: C_14  and  C_15 
REMARK    5  A    between atoms: C_15  and  O_16 
ROOT
HETATM    1  O   UNK N   1      35.009  16.352   7.039  0.00  0.00    -0.386 OA
HETATM    2  C   UNK N   1      34.383  16.653   8.271  0.00  0.00     0.214 C 
HETATM    3  C   UNK N   1      35.121  15.987   9.386  0.00  0.00     0.016 A 
HETATM    4  C   UNK N   1      35.914  14.862   9.189  0.00  0.00    -0.021 A 
HETATM    5  C   UNK N   1      36.051  14.286   7.809  0.00  0.00     0.067 C 
HETATM    6  C   UNK N   1      35.015  14.947   6.873  0.00  0.00     0.172 C 
HETATM    7  S   UNK N   1      35.151  16.360  10.992  0.00  0.00    -0.073 SA
HETATM    8  C   UNK N   1      36.163  15.143  11.520  0.00  0.00     0.095 A 
HETATM    9  C   UNK N   1      36.518  14.368  10.394  0.00  0.00     0.079 A 
ENDROOT
BRANCH   8  10
HETATM   10  N   UNK N   1      36.590  14.904  12.859  0.00  0.00    -0.311 N 
HETATM   11  C   UNK N   1      35.951  14.097  13.751  0.00  0.00     0.320 C 
HETATM   12  O   UNK N   1      34.925  13.509  13.446  0.00  0.00    -0.261 OA
HETATM   13  H   UNK N   1      37.409  15.358  13.163  0.00  0.00     0.170 HD
BRANCH  11  14
HETATM   14  C   UNK N   1      36.498  13.927  15.109  0.00  0.00     0.237 C 
HETATM   15  O   UNK N   1      35.930  13.212  15.919  0.00  0.00    -0.643 OA
BRANCH  14  16
HETATM   16  O   UNK N   1      37.633  14.563  15.461  0.00  0.00    -0.769 OA
HETATM   17  H   UNK N   1      37.649  15.499  15.512  0.00  0.00     0.168 HD
ENDBRANCH  14  16
ENDBRANCH  11  14
ENDBRANCH   8  10
BRANCH   9  18
HETATM   18  C   UNK N   1      37.394  13.170  10.459  0.00  0.00     0.179 C 
HETATM   19  O   UNK N   1      37.005  12.096  10.031  0.00  0.00    -0.646 OA
BRANCH  18  20
HETATM   20  O   UNK N   1      38.623  13.255  11.006  0.00  0.00    -0.773 OA
HETATM   21  H   UNK N   1      39.382  13.184  10.462  0.00  0.00     0.167 HD
ENDBRANCH  18  20
ENDBRANCH   9  18
TORSDOF 5
ENDMDL
MODEL 5
REMARK VINA RESULT:      -5.7      6.517      9.094
REMARK  5 active torsions:
REMARK  status: ('A' for Active; 'I' for Inactive)
REMARK    1  A    between atoms: C_8  and  N_13 
REMARK    2  A    between atoms: C_9  and  C_10 
REMARK    3  A    between atoms: C_10  and  O_11 
REMARK       I    between atoms: N_13  and  C_14 
REMARK    4  A    between atoms: C_14  and  C_15 
REMARK    5  A    between atoms: C_15  and  O_16 
ROOT
HETATM    1  O   UNK N   1      21.459  19.486   2.299  0.00  0.00    -0.386 OA
HETATM    2  C   UNK N   1      21.995  19.557   3.606  0.00  0.00     0.214 C 
HETATM    3  C   UNK N   1      21.514  18.393   4.410  0.00  0.00     0.016 A 
HETATM    4  C   UNK N   1      20.348  17.702   4.100  0.00  0.00    -0.021 A 
HETATM    5  C   UNK N   1      19.531  18.125   2.913  0.00  0.00     0.067 C 
HETATM    6  C   UNK N   1      20.048  19.485   2.394  0.00  0.00     0.172 C 
HETATM    7  S   UNK N   1      22.166  17.715   5.764  0.00  0.00    -0.073 SA
HETATM    8  C   UNK N   1      21.031  16.521   6.026  0.00  0.00     0.095 A 
HETATM    9  C   UNK N   1      20.057  16.631   5.010  0.00  0.00     0.079 A 
ENDROOT
BRANCH   8  10
HETATM   10  N   UNK N   1      21.021  15.566   7.085  0.00  0.00    -0.311 N 
HETATM   11  C   UNK N   1      20.499  15.778   8.325  0.00  0.00     0.320 C 
HETATM   12  O   UNK N   1      19.993  16.850   8.620  0.00  0.00    -0.261 OA
HETATM   13  H   UNK N   1      21.422  14.684   6.905  0.00  0.00     0.170 HD
BRANCH  11  14
HETATM   14  C   UNK N   1      20.545  14.705   9.334  0.00  0.00     0.237 C 
HETATM   15  O   UNK N   1      21.615  14.288   9.745  0.00  0.00    -0.643 OA
BRANCH  14  16
HETATM   16  O   UNK N   1      19.397  14.179   9.807  0.00  0.00    -0.769 OA
HETATM   17  H   UNK N   1      18.605  14.264   9.315  0.00  0.00     0.168 HD
ENDBRANCH  14  16
ENDBRANCH  11  14
ENDBRANCH   8  10
BRANCH   9  18
HETATM   18  C   UNK N   1      18.863  15.753   4.912  0.00  0.00     0.179 C 
HETATM   19  O   UNK N   1      17.966  15.835   5.735  0.00  0.00    -0.646 OA
BRANCH  18  20
HETATM   20  O   UNK N   1      18.765  14.845   3.921  0.00  0.00    -0.773 OA
HETATM   21  H   UNK N   1      17.933  14.670   3.528  0.00  0.00     0.167 HD
ENDBRANCH  18  20
ENDBRANCH   9  18
TORSDOF 5
ENDMDL
MODEL 6
REMARK VINA RESULT:      -5.7      4.472      8.667
REMARK  5 active torsions:
REMARK  status: ('A' for Active; 'I' for Inactive)
REMARK    1  A    between atoms: C_8  and  N_13 
REMARK    2  A    between atoms: C_9  and  C_10 
REMARK    3  A    between atoms: C_10  and  O_11 
REMARK       I    between atoms: N_13  and  C_14 
REMARK    4  A    between atoms: C_14  and  C_15 
REMARK    5  A    between atoms: C_15  and  O_16 
ROOT
HETATM    1  O   UNK N   1      28.485  17.757   5.207  0.00  0.00    -0.386 OA
HETATM    2  C   UNK N   1      28.534  17.277   6.537  0.00  0.00     0.214 C 
HETATM    3  C   UNK N   1      29.948  17.279   7.019  0.00  0.00     0.016 A 
HETATM    4  C   UNK N   1      31.034  17.234   6.151  0.00  0.00    -0.021 A 
HETATM    5  C   UNK N   1      30.793  17.186   4.669  0.00  0.00     0.067 C 
HETATM    6  C   UNK N   1      29.295  16.924   4.401  0.00  0.00     0.172 C 
HETATM    7  S   UNK N   1      30.528  17.299   8.562  0.00  0.00    -0.073 SA
HETATM    8  C   UNK N   1      32.162  17.261   8.224  0.00  0.00     0.095 A 
HETATM    9  C   UNK N   1      32.304  17.224   6.820  0.00  0.00     0.079 A 
ENDROOT
BRANCH   8  10
HETATM   10  N   UNK N   1      33.232  17.251   9.167  0.00  0.00    -0.311 N 
HETATM   11  C   UNK N   1      33.942  16.148   9.532  0.00  0.00     0.320 C 
HETATM   12  O   UNK N   1      33.690  15.051   9.058  0.00  0.00    -0.261 OA
HETATM   13  H   UNK N   1      33.475  18.109   9.587  0.00  0.00     0.170 HD
BRANCH  11  14
HETATM   14  C   UNK N   1      35.033  16.271  10.515  0.00  0.00     0.237 C 
HETATM   15  O   UNK N   1      35.195  15.414  11.369  0.00  0.00    -0.643 OA
BRANCH  14  16
HETATM   16  O   UNK N   1      35.859  17.335  10.474  0.00  0.00    -0.769 OA
HETATM   17  H   UNK N   1      36.606  17.327   9.907  0.00  0.00     0.168 HD
ENDBRANCH  14  16
ENDBRANCH  11  14
ENDBRANCH   8  10
BRANCH   9  18
HETATM   18  C   UNK N   1      33.614  17.160   6.124  0.00  0.00     0.179 C 
HETATM   19  O   UNK N   1      34.490  17.970   6.381  0.00  0.00    -0.646 OA
BRANCH  18  20
HETATM   20  O   UNK N   1      33.843  16.217   5.190  0.00  0.00    -0.773 OA
HETATM   21  H   UNK N   1      33.395  15.395   5.236  0.00  0.00     0.167 HD
ENDBRANCH  18  20
ENDBRANCH   9  18
TORSDOF 5
ENDMDL
MODEL 7
REMARK VINA RESULT:      -5.7      6.668      8.125
REMARK  5 active torsions:
REMARK  status: ('A' for Active; 'I' for Inactive)
REMARK    1  A    between atoms: C_8  and  N_13 
REMARK    2  A    between atoms: C_9  and  C_10 
REMARK    3  A    between atoms: C_10  and  O_11 
REMARK       I    between atoms: N_13  and  C_14 
REMARK    4  A    between atoms: C_14  and  C_15 
REMARK    5  A    between atoms: C_15  and  O_16 
ROOT
HETATM    1  O   UNK N   1      36.396  14.376  11.084  0.00  0.00    -0.386 OA
HETATM    2  C   UNK N   1      35.739  13.714  10.020  0.00  0.00     0.214 C 
HETATM    3  C   UNK N   1      35.295  14.716   9.004  0.00  0.00     0.016 A 
HETATM    4  C   UNK N   1      35.082  16.054   9.317  0.00  0.00    -0.021 A 
HETATM    5  C   UNK N   1      35.309  16.528  10.724  0.00  0.00     0.067 C 
HETATM    6  C   UNK N   1      35.498  15.309  11.652  0.00  0.00     0.172 C 
HETATM    7  S   UNK N   1      34.943  14.502   7.407  0.00  0.00    -0.073 SA
HETATM    8  C   UNK N   1      34.516  16.070   7.026  0.00  0.00     0.095 A 
HETATM    9  C   UNK N   1      34.639  16.841   8.201  0.00  0.00     0.079 A 
ENDROOT
BRANCH   8  10
HETATM   10  N   UNK N   1      34.089  16.556   5.755  0.00  0.00    -0.311 N 
HETATM   11  C   UNK N   1      32.791  16.663   5.355  0.00  0.00     0.320 C 
HETATM   12  O   UNK N   1      31.876  16.329   6.091  0.00  0.00    -0.261 OA
HETATM   13  H   UNK N   1      34.786  16.835   5.118  0.00  0.00     0.170 HD
BRANCH  11  14
HETATM   14  C   UNK N   1      32.478  17.189   4.015  0.00  0.00     0.237 C 
HETATM   15  O   UNK N   1      33.086  16.788   3.036  0.00  0.00    -0.643 OA
BRANCH  14  16
HETATM   16  O   UNK N   1      31.513  18.119   3.866  0.00  0.00    -0.769 OA
HETATM   17  H   UNK N   1      30.819  18.178   4.493  0.00  0.00     0.168 HD
ENDBRANCH  14  16
ENDBRANCH  11  14
ENDBRANCH   8  10
BRANCH   9  18
HETATM   18  C   UNK N   1      34.325  18.291   8.274  0.00  0.00     0.179 C 
HETATM   19  O   UNK N   1      33.180  18.683   8.123  0.00  0.00    -0.646 OA
BRANCH  18  20
HETATM   20  O   UNK N   1      35.305  19.189   8.493  0.00  0.00    -0.773 OA
HETATM   21  H   UNK N   1      35.169  20.091   8.278  0.00  0.00     0.167 HD
ENDBRANCH  18  20
ENDBRANCH   9  18
TORSDOF 5
ENDMDL
MODEL 8
REMARK VINA RESULT:      -5.6      7.346      9.818
REMARK  5 active torsions:
REMARK  status: ('A' for Active; 'I' for Inactive)
REMARK    1  A    between atoms: C_8  and  N_13 
REMARK    2  A    between atoms: C_9  and  C_10 
REMARK    3  A    between atoms: C_10  and  O_11 
REMARK       I    between atoms: N_13  and  C_14 
REMARK    4  A    between atoms: C_14  and  C_15 
REMARK    5  A    between atoms: C_15  and  O_16 
ROOT
HETATM    1  O   UNK N   1      32.632  15.721   3.460  0.00  0.00    -0.386 OA
HETATM    2  C   UNK N   1      33.735  14.975   3.939  0.00  0.00     0.214 C 
HETATM    3  C   UNK N   1      34.069  15.410   5.329  0.00  0.00     0.016 A 
HETATM    4  C   UNK N   1      33.724  16.663   5.823  0.00  0.00    -0.021 A 
HETATM    5  C   UNK N   1      32.980  17.626   4.941  0.00  0.00     0.067 C 
HETATM    6  C   UNK N   1      32.974  17.093   3.492  0.00  0.00     0.172 C 
HETATM    7  S   UNK N   1      34.888  14.603   6.510  0.00  0.00    -0.073 SA
HETATM    8  C   UNK N   1      34.845  15.772   7.699  0.00  0.00     0.095 A 
HETATM    9  C   UNK N   1      34.156  16.887   7.173  0.00  0.00     0.079 A 
ENDROOT
BRANCH   8  10
HETATM   10  N   UNK N   1      35.407  15.686   9.006  0.00  0.00    -0.311 N 
HETATM   11  C   UNK N   1      34.730  15.309  10.126  0.00  0.00     0.320 C 
HETATM   12  O   UNK N   1      33.545  15.017  10.077  0.00  0.00    -0.261 OA
HETATM   13  H   UNK N   1      36.360  15.917   9.107  0.00  0.00     0.170 HD
BRANCH  11  14
HETATM   14  C   UNK N   1      35.429  15.253  11.423  0.00  0.00     0.237 C 
HETATM   15  O   UNK N   1      34.969  14.600  12.345  0.00  0.00    -0.643 OA
BRANCH  14  16
HETATM   16  O   UNK N   1      36.584  15.927  11.593  0.00  0.00    -0.769 OA
HETATM   17  H   UNK N   1      36.938  16.435  10.890  0.00  0.00     0.168 HD
ENDBRANCH  14  16
ENDBRANCH  11  14
ENDBRANCH   8  10
BRANCH   9  18
HETATM   18  C   UNK N   1      33.929  18.147   7.925  0.00  0.00     0.179 C 
HETATM   19  O   UNK N   1      32.800  18.485   8.238  0.00  0.00    -0.646 OA
BRANCH  18  20
HETATM   20  O   UNK N   1      34.968  18.939   8.255  0.00  0.00    -0.773 OA
HETATM   21  H   UNK N   1      35.038  19.797   7.887  0.00  0.00     0.167 HD
ENDBRANCH  18  20
ENDBRANCH   9  18
TORSDOF 5
ENDMDL
MODEL 9
REMARK VINA RESULT:      -5.5      2.805      4.319
REMARK  5 active torsions:
REMARK  status: ('A' for Active; 'I' for Inactive)
REMARK    1  A    between atoms: C_8  and  N_13 
REMARK    2  A    between atoms: C_9  and  C_10 
REMARK    3  A    between atoms: C_10  and  O_11 
REMARK       I    between atoms: N_13  and  C_14 
REMARK    4  A    between atoms: C_14  and  C_15 
REMARK    5  A    between atoms: C_15  and  O_16 
ROOT
HETATM    1  O   UNK N   1      28.218  18.323   5.368  0.00  0.00    -0.386 OA
HETATM    2  C   UNK N   1      27.093  17.633   5.879  0.00  0.00     0.214 C 
HETATM    3  C   UNK N   1      25.883  17.979   5.072  0.00  0.00     0.016 A 
HETATM    4  C   UNK N   1      25.787  19.156   4.337  0.00  0.00    -0.021 A 
HETATM    5  C   UNK N   1      26.937  20.123   4.336  0.00  0.00     0.067 C 
HETATM    6  C   UNK N   1      27.953  19.711   5.423  0.00  0.00     0.172 C 
HETATM    7  S   UNK N   1      24.471  17.148   4.894  0.00  0.00    -0.073 SA
HETATM    8  C   UNK N   1      23.673  18.210   3.884  0.00  0.00     0.095 A 
HETATM    9  C   UNK N   1      24.535  19.303   3.651  0.00  0.00     0.079 A 
ENDROOT
BRANCH   8  10
HETATM   10  N   UNK N   1      22.357  18.063   3.355  0.00  0.00    -0.311 N 
HETATM   11  C   UNK N   1      21.246  18.687   3.837  0.00  0.00     0.320 C 
HETATM   12  O   UNK N   1      21.313  19.437   4.799  0.00  0.00    -0.261 OA
HETATM   13  H   UNK N   1      22.242  17.464   2.581  0.00  0.00     0.170 HD
BRANCH  11  14
HETATM   14  C   UNK N   1      19.939  18.458   3.196  0.00  0.00     0.237 C 
HETATM   15  O   UNK N   1      19.325  17.423   3.399  0.00  0.00    -0.643 OA
BRANCH  14  16
HETATM   16  O   UNK N   1      19.417  19.395   2.380  0.00  0.00    -0.769 OA
HETATM   17  H   UNK N   1      19.225  19.185   1.487  0.00  0.00     0.168 HD
ENDBRANCH  14  16
ENDBRANCH  11  14
ENDBRANCH   8  10
BRANCH   9  18
HETATM   18  C   UNK N   1      24.174  20.475   2.814  0.00  0.00     0.179 C 
HETATM   19  O   UNK N   1      24.827  20.749   1.820  0.00  0.00    -0.646 OA
BRANCH  18  20
HETATM   20  O   UNK N   1      23.131  21.258   3.152  0.00  0.00    -0.773 OA
HETATM   21  H   UNK N   1      22.256  20.936   3.062  0.00  0.00     0.167 HD
ENDBRANCH  18  20
ENDBRANCH   9  18
TORSDOF 5
ENDMDL
