MODEL 1
REMARK VINA RESULT:      -6.1      0.000      0.000
REMARK  7 active torsions:
REMARK  status: ('A' for Active; 'I' for Inactive)
REMARK    1  A    between atoms: O_1  and  C_3 
REMARK    2  A    between atoms: C_3  and  C_8 
REMARK    3  A    between atoms: C_9  and  C_10 
REMARK    4  A    between atoms: C_10  and  C_11 
REMARK    5  A    between atoms: C_11  and  C_13 
REMARK    6  A    between atoms: C_13  and  C_14 
REMARK    7  A    between atoms: C_14  and  O_16 
ROOT
HETATM    1  C   UNK N   1      26.356  26.590  -3.532  0.00  0.00     0.016 A 
HETATM    2  C   UNK N   1      25.593  27.537  -4.208  0.00  0.00     0.001 A 
HETATM    3  C   UNK N   1      25.061  27.235  -5.454  0.00  0.00     0.001 A 
HETATM    4  C   UNK N   1      25.275  25.978  -6.013  0.00  0.00     0.019 A 
HETATM    5  C   UNK N   1      26.037  24.996  -5.357  0.00  0.00     0.051 A 
HETATM    6  C   UNK N   1      26.616  25.318  -4.076  0.00  0.00     0.026 A 
ENDROOT
BRANCH   6   7
HETATM    7  C   UNK N   1      27.486  24.409  -3.258  0.00  0.00     0.161 C 
HETATM    8  O   UNK N   1      27.018  23.675  -2.409  0.00  0.00    -0.292 OA
BRANCH   7   9
HETATM    9  C   UNK N   1      28.968  24.358  -3.471  0.00  0.00     0.094 C 
BRANCH   9  10
HETATM   10  C   UNK N   1      29.503  22.939  -3.469  0.00  0.00     0.117 C 
BRANCH  10  11
HETATM   11  C   UNK N   1      30.441  22.771  -2.319  0.00  0.00     0.139 C 
HETATM   12  O   UNK N   1      30.099  23.111  -1.196  0.00  0.00    -0.650 OA
BRANCH  11  13
HETATM   13  O   UNK N   1      31.661  22.239  -2.516  0.00  0.00    -0.776 OA
HETATM   14  H   UNK N   1      31.848  21.349  -2.293  0.00  0.00     0.167 HD
ENDBRANCH  11  13
ENDBRANCH  10  11
ENDBRANCH   9  10
ENDBRANCH   7   9
ENDBRANCH   6   7
BRANCH   5  15
HETATM   15  C   UNK N   1      26.109  23.672  -6.055  0.00  0.00     0.177 C 
HETATM   16  O   UNK N   1      25.126  22.986  -6.252  0.00  0.00    -0.646 OA
BRANCH  15  17
HETATM   17  O   UNK N   1      27.291  23.255  -6.554  0.00  0.00    -0.773 OA
HETATM   18  H   UNK N   1      27.576  22.371  -6.421  0.00  0.00     0.167 HD
ENDBRANCH  15  17
ENDBRANCH   5  15
TORSDOF 7
ENDMDL
MODEL 2
REMARK VINA RESULT:      -6.0     12.804     14.799
REMARK  7 active torsions:
REMARK  status: ('A' for Active; 'I' for Inactive)
REMARK    1  A    between atoms: O_1  and  C_3 
REMARK    2  A    between atoms: C_3  and  C_8 
REMARK    3  A    between atoms: C_9  and  C_10 
REMARK    4  A    between atoms: C_10  and  C_11 
REMARK    5  A    between atoms: C_11  and  C_13 
REMARK    6  A    between atoms: C_13  and  C_14 
REMARK    7  A    between atoms: C_14  and  O_16 
ROOT
HETATM    1  C   UNK N   1      30.529  17.224   5.894  0.00  0.00     0.016 A 
HETATM    2  C   UNK N   1      30.811  17.267   4.532  0.00  0.00     0.001 A 
HETATM    3  C   UNK N   1      32.124  17.407   4.101  0.00  0.00     0.001 A 
HETATM    4  C   UNK N   1      33.154  17.483   5.033  0.00  0.00     0.019 A 
HETATM    5  C   UNK N   1      32.908  17.439   6.416  0.00  0.00     0.051 A 
HETATM    6  C   UNK N   1      31.542  17.323   6.866  0.00  0.00     0.026 A 
ENDROOT
BRANCH   6   7
HETATM    7  C   UNK N   1      31.095  17.302   8.298  0.00  0.00     0.161 C 
HETATM    8  O   UNK N   1      31.231  16.313   8.993  0.00  0.00    -0.292 OA
BRANCH   7   9
HETATM    9  C   UNK N   1      30.477  18.510   8.935  0.00  0.00     0.094 C 
BRANCH   9  10
HETATM   10  C   UNK N   1      29.427  18.145   9.967  0.00  0.00     0.117 C 
BRANCH  10  11
HETATM   11  C   UNK N   1      28.111  17.969   9.284  0.00  0.00     0.139 C 
HETATM   12  O   UNK N   1      27.515  16.906   9.368  0.00  0.00    -0.650 OA
BRANCH  11  13
HETATM   13  O   UNK N   1      27.576  18.984   8.581  0.00  0.00    -0.776 OA
HETATM   14  H   UNK N   1      27.303  18.873   7.692  0.00  0.00     0.167 HD
ENDBRANCH  11  13
ENDBRANCH  10  11
ENDBRANCH   9  10
ENDBRANCH   7   9
ENDBRANCH   6   7
BRANCH   5  15
HETATM   15  C   UNK N   1      34.129  17.454   7.284  0.00  0.00     0.177 C 
HETATM   16  O   UNK N   1      34.806  18.451   7.436  0.00  0.00    -0.646 OA
BRANCH  15  17
HETATM   17  O   UNK N   1      34.450  16.349   7.988  0.00  0.00    -0.773 OA
HETATM   18  H   UNK N   1      34.336  15.498   7.611  0.00  0.00     0.167 HD
ENDBRANCH  15  17
ENDBRANCH   5  15
TORSDOF 7
ENDMDL
MODEL 3
REMARK VINA RESULT:      -5.8      9.807     11.345
REMARK  7 active torsions:
REMARK  status: ('A' for Active; 'I' for Inactive)
REMARK    1  A    between atoms: O_1  and  C_3 
REMARK    2  A    between atoms: C_3  and  C_8 
REMARK    3  A    between atoms: C_9  and  C_10 
REMARK    4  A    between atoms: C_10  and  C_11 
REMARK    5  A    between atoms: C_11  and  C_13 
REMARK    6  A    between atoms: C_13  and  C_14 
REMARK    7  A    between atoms: C_14  and  O_16 
ROOT
HETATM    1  C   UNK N   1      24.088  18.424   4.552  0.00  0.00     0.016 A 
HETATM    2  C   UNK N   1      25.292  19.100   4.384  0.00  0.00     0.001 A 
HETATM    3  C   UNK N   1      25.353  20.208   3.551  0.00  0.00     0.001 A 
HETATM    4  C   UNK N   1      24.205  20.652   2.903  0.00  0.00     0.019 A 
HETATM    5  C   UNK N   1      22.970  19.997   3.051  0.00  0.00     0.051 A 
HETATM    6  C   UNK N   1      22.911  18.827   3.893  0.00  0.00     0.026 A 
ENDROOT
BRANCH   6   7
HETATM    7  C   UNK N   1      21.692  17.985   4.132  0.00  0.00     0.161 C 
HETATM    8  O   UNK N   1      21.014  18.117   5.133  0.00  0.00    -0.292 OA
BRANCH   7   9
HETATM    9  C   UNK N   1      21.252  16.958   3.134  0.00  0.00     0.094 C 
BRANCH   9  10
HETATM   10  C   UNK N   1      20.025  17.396   2.357  0.00  0.00     0.117 C 
BRANCH  10  11
HETATM   11  C   UNK N   1      20.294  17.248   0.896  0.00  0.00     0.139 C 
HETATM   12  O   UNK N   1      20.535  16.146   0.426  0.00  0.00    -0.650 OA
BRANCH  11  13
HETATM   13  O   UNK N   1      20.264  18.327   0.092  0.00  0.00    -0.776 OA
HETATM   14  H   UNK N   1      20.898  19.011   0.168  0.00  0.00     0.167 HD
ENDBRANCH  11  13
ENDBRANCH  10  11
ENDBRANCH   9  10
ENDBRANCH   7   9
ENDBRANCH   6   7
BRANCH   5  15
HETATM   15  C   UNK N   1      21.815  20.643   2.349  0.00  0.00     0.177 C 
HETATM   16  O   UNK N   1      21.664  20.573   1.146  0.00  0.00    -0.646 OA
BRANCH  15  17
HETATM   17  O   UNK N   1      20.862  21.258   3.079  0.00  0.00    -0.773 OA
HETATM   18  H   UNK N   1      20.412  20.795   3.758  0.00  0.00     0.167 HD
ENDBRANCH  15  17
ENDBRANCH   5  15
TORSDOF 7
ENDMDL
MODEL 4
REMARK VINA RESULT:      -5.7      1.663      2.755
REMARK  7 active torsions:
REMARK  status: ('A' for Active; 'I' for Inactive)
REMARK    1  A    between atoms: O_1  and  C_3 
REMARK    2  A    between atoms: C_3  and  C_8 
REMARK    3  A    between atoms: C_9  and  C_10 
REMARK    4  A    between atoms: C_10  and  C_11 
REMARK    5  A    between atoms: C_11  and  C_13 
REMARK    6  A    between atoms: C_13  and  C_14 
REMARK    7  A    between atoms: C_14  and  O_16 
ROOT
HETATM    1  C   UNK N   1      26.732  24.200  -5.730  0.00  0.00     0.016 A 
HETATM    2  C   UNK N   1      26.043  24.656  -6.850  0.00  0.00     0.001 A 
HETATM    3  C   UNK N   1      25.484  25.926  -6.849  0.00  0.00     0.001 A 
HETATM    4  C   UNK N   1      25.634  26.748  -5.736  0.00  0.00     0.019 A 
HETATM    5  C   UNK N   1      26.326  26.323  -4.589  0.00  0.00     0.051 A 
HETATM    6  C   UNK N   1      26.882  24.992  -4.576  0.00  0.00     0.026 A 
ENDROOT
BRANCH   6   7
HETATM    7  C   UNK N   1      27.613  24.363  -3.427  0.00  0.00     0.161 C 
HETATM    8  O   UNK N   1      27.019  23.882  -2.481  0.00  0.00    -0.292 OA
BRANCH   7   9
HETATM    9  C   UNK N   1      29.110  24.286  -3.411  0.00  0.00     0.094 C 
BRANCH   9  10
HETATM   10  C   UNK N   1      29.618  22.872  -3.620  0.00  0.00     0.117 C 
BRANCH  10  11
HETATM   11  C   UNK N   1      30.505  22.498  -2.479  0.00  0.00     0.139 C 
HETATM   12  O   UNK N   1      30.429  23.102  -1.420  0.00  0.00    -0.650 OA
BRANCH  11  13
HETATM   13  O   UNK N   1      31.386  21.490  -2.613  0.00  0.00    -0.776 OA
HETATM   14  H   UNK N   1      32.274  21.646  -2.866  0.00  0.00     0.167 HD
ENDBRANCH  11  13
ENDBRANCH  10  11
ENDBRANCH   9  10
ENDBRANCH   7   9
ENDBRANCH   6   7
BRANCH   5  15
HETATM   15  C   UNK N   1      26.465  27.351  -3.508  0.00  0.00     0.177 C 
HETATM   16  O   UNK N   1      25.535  27.677  -2.797  0.00  0.00    -0.646 OA
BRANCH  15  17
HETATM   17  O   UNK N   1      27.680  27.882  -3.256  0.00  0.00    -0.773 OA
HETATM   18  H   UNK N   1      28.318  27.949  -3.939  0.00  0.00     0.167 HD
ENDBRANCH  15  17
ENDBRANCH   5  15
TORSDOF 7
ENDMDL
MODEL 5
REMARK VINA RESULT:      -5.7     13.318     15.656
REMARK  7 active torsions:
REMARK  status: ('A' for Active; 'I' for Inactive)
REMARK    1  A    between atoms: O_1  and  C_3 
REMARK    2  A    between atoms: C_3  and  C_8 
REMARK    3  A    between atoms: C_9  and  C_10 
REMARK    4  A    between atoms: C_10  and  C_11 
REMARK    5  A    between atoms: C_11  and  C_13 
REMARK    6  A    between atoms: C_13  and  C_14 
REMARK    7  A    between atoms: C_14  and  O_16 
ROOT
HETATM    1  C   UNK N   1      33.456  17.493   5.448  0.00  0.00     0.016 A 
HETATM    2  C   UNK N   1      32.493  17.359   4.453  0.00  0.00     0.001 A 
HETATM    3  C   UNK N   1      31.159  17.194   4.798  0.00  0.00     0.001 A 
HETATM    4  C   UNK N   1      30.787  17.185   6.139  0.00  0.00     0.019 A 
HETATM    5  C   UNK N   1      31.730  17.322   7.171  0.00  0.00     0.051 A 
HETATM    6  C   UNK N   1      33.121  17.463   6.815  0.00  0.00     0.026 A 
ENDROOT
BRANCH   6   7
HETATM    7  C   UNK N   1      34.262  17.580   7.783  0.00  0.00     0.161 C 
HETATM    8  O   UNK N   1      34.795  18.649   8.012  0.00  0.00    -0.292 OA
BRANCH   7   9
HETATM    9  C   UNK N   1      34.777  16.382   8.522  0.00  0.00     0.094 C 
BRANCH   9  10
HETATM   10  C   UNK N   1      34.874  16.623  10.016  0.00  0.00     0.117 C 
BRANCH  10  11
HETATM   11  C   UNK N   1      34.568  15.351  10.736  0.00  0.00     0.139 C 
HETATM   12  O   UNK N   1      35.464  14.559  10.987  0.00  0.00    -0.650 OA
BRANCH  11  13
HETATM   13  O   UNK N   1      33.307  15.079  11.117  0.00  0.00    -0.776 OA
HETATM   14  H   UNK N   1      32.982  15.340  11.955  0.00  0.00     0.167 HD
ENDBRANCH  11  13
ENDBRANCH  10  11
ENDBRANCH   9  10
ENDBRANCH   7   9
ENDBRANCH   6   7
BRANCH   5  15
HETATM   15  C   UNK N   1      31.161  17.369   8.556  0.00  0.00     0.177 C 
HETATM   16  O   UNK N   1      30.522  18.317   8.965  0.00  0.00    -0.646 OA
BRANCH  15  17
HETATM   17  O   UNK N   1      31.291  16.291   9.358  0.00  0.00    -0.773 OA
HETATM   18  H   UNK N   1      30.532  15.825   9.651  0.00  0.00     0.167 HD
ENDBRANCH  15  17
ENDBRANCH   5  15
TORSDOF 7
ENDMDL
MODEL 6
REMARK VINA RESULT:      -5.6      1.862      5.000
REMARK  7 active torsions:
REMARK  status: ('A' for Active; 'I' for Inactive)
REMARK    1  A    between atoms: O_1  and  C_3 
REMARK    2  A    between atoms: C_3  and  C_8 
REMARK    3  A    between atoms: C_9  and  C_10 
REMARK    4  A    between atoms: C_10  and  C_11 
REMARK    5  A    between atoms: C_11  and  C_13 
REMARK    6  A    between atoms: C_13  and  C_14 
REMARK    7  A    between atoms: C_14  and  O_16 
ROOT
HETATM    1  C   UNK N   1      25.500  26.636  -5.970  0.00  0.00     0.016 A 
HETATM    2  C   UNK N   1      25.174  27.712  -5.150  0.00  0.00     0.001 A 
HETATM    3  C   UNK N   1      25.578  27.717  -3.822  0.00  0.00     0.001 A 
HETATM    4  C   UNK N   1      26.326  26.656  -3.322  0.00  0.00     0.019 A 
HETATM    5  C   UNK N   1      26.677  25.555  -4.121  0.00  0.00     0.051 A 
HETATM    6  C   UNK N   1      26.232  25.533  -5.493  0.00  0.00     0.026 A 
ENDROOT
BRANCH   6   7
HETATM    7  C   UNK N   1      26.480  24.424  -6.473  0.00  0.00     0.161 C 
HETATM    8  O   UNK N   1      27.286  24.542  -7.377  0.00  0.00    -0.292 OA
BRANCH   7   9
HETATM    9  C   UNK N   1      25.756  23.117  -6.364  0.00  0.00     0.094 C 
BRANCH   9  10
HETATM   10  C   UNK N   1      26.177  22.132  -7.438  0.00  0.00     0.117 C 
BRANCH  10  11
HETATM   11  C   UNK N   1      25.005  21.831  -8.312  0.00  0.00     0.139 C 
HETATM   12  O   UNK N   1      23.902  22.275  -8.032  0.00  0.00    -0.650 OA
BRANCH  11  13
HETATM   13  O   UNK N   1      25.163  21.075  -9.414  0.00  0.00    -0.776 OA
HETATM   14  H   UNK N   1      25.994  20.994  -9.837  0.00  0.00     0.167 HD
ENDBRANCH  11  13
ENDBRANCH  10  11
ENDBRANCH   9  10
ENDBRANCH   7   9
ENDBRANCH   6   7
BRANCH   5  15
HETATM   15  C   UNK N   1      27.547  24.533  -3.456  0.00  0.00     0.177 C 
HETATM   16  O   UNK N   1      28.725  24.407  -3.725  0.00  0.00    -0.646 OA
BRANCH  15  17
HETATM   17  O   UNK N   1      27.033  23.774  -2.465  0.00  0.00    -0.773 OA
HETATM   18  H   UNK N   1      26.122  23.555  -2.461  0.00  0.00     0.167 HD
ENDBRANCH  15  17
ENDBRANCH   5  15
TORSDOF 7
ENDMDL
MODEL 7
REMARK VINA RESULT:      -5.5     12.534     14.366
REMARK  7 active torsions:
REMARK  status: ('A' for Active; 'I' for Inactive)
REMARK    1  A    between atoms: O_1  and  C_3 
REMARK    2  A    between atoms: C_3  and  C_8 
REMARK    3  A    between atoms: C_9  and  C_10 
REMARK    4  A    between atoms: C_10  and  C_11 
REMARK    5  A    between atoms: C_11  and  C_13 
REMARK    6  A    between atoms: C_13  and  C_14 
REMARK    7  A    between atoms: C_14  and  O_16 
ROOT
HETATM    1  C   UNK N   1      30.710  17.187   5.932  0.00  0.00     0.016 A 
HETATM    2  C   UNK N   1      29.748  17.469   4.967  0.00  0.00     0.001 A 
HETATM    3  C   UNK N   1      28.506  17.956   5.351  0.00  0.00     0.001 A 
HETATM    4  C   UNK N   1      28.235  18.180   6.697  0.00  0.00     0.019 A 
HETATM    5  C   UNK N   1      29.183  17.910   7.699  0.00  0.00     0.051 A 
HETATM    6  C   UNK N   1      30.464  17.376   7.305  0.00  0.00     0.026 A 
ENDROOT
BRANCH   6   7
HETATM    7  C   UNK N   1      31.575  16.994   8.239  0.00  0.00     0.161 C 
HETATM    8  O   UNK N   1      31.587  15.919   8.807  0.00  0.00    -0.292 OA
BRANCH   7   9
HETATM    9  C   UNK N   1      32.725  17.921   8.495  0.00  0.00     0.094 C 
BRANCH   9  10
HETATM   10  C   UNK N   1      34.065  17.214   8.411  0.00  0.00     0.117 C 
BRANCH  10  11
HETATM   11  C   UNK N   1      34.432  17.033   6.975  0.00  0.00     0.139 C 
HETATM   12  O   UNK N   1      34.988  16.008   6.610  0.00  0.00    -0.650 OA
BRANCH  11  13
HETATM   13  O   UNK N   1      34.146  17.995   6.079  0.00  0.00    -0.776 OA
HETATM   14  H   UNK N   1      33.729  17.796   5.265  0.00  0.00     0.167 HD
ENDBRANCH  11  13
ENDBRANCH  10  11
ENDBRANCH   9  10
ENDBRANCH   7   9
ENDBRANCH   6   7
BRANCH   5  15
HETATM   15  C   UNK N   1      28.766  18.277   9.090  0.00  0.00     0.177 C 
HETATM   16  O   UNK N   1      29.531  18.780   9.887  0.00  0.00    -0.646 OA
BRANCH  15  17
HETATM   17  O   UNK N   1      27.476  18.118   9.454  0.00  0.00    -0.773 OA
HETATM   18  H   UNK N   1      27.158  17.275   9.714  0.00  0.00     0.167 HD
ENDBRANCH  15  17
ENDBRANCH   5  15
TORSDOF 7
ENDMDL
MODEL 8
REMARK VINA RESULT:      -5.5     12.926     15.125
REMARK  7 active torsions:
REMARK  status: ('A' for Active; 'I' for Inactive)
REMARK    1  A    between atoms: O_1  and  C_3 
REMARK    2  A    between atoms: C_3  and  C_8 
REMARK    3  A    between atoms: C_9  and  C_10 
REMARK    4  A    between atoms: C_10  and  C_11 
REMARK    5  A    between atoms: C_11  and  C_13 
REMARK    6  A    between atoms: C_13  and  C_14 
REMARK    7  A    between atoms: C_14  and  O_16 
ROOT
HETATM    1  C   UNK N   1      32.499  17.668   4.676  0.00  0.00     0.016 A 
HETATM    2  C   UNK N   1      32.257  17.204   3.387  0.00  0.00     0.001 A 
HETATM    3  C   UNK N   1      32.920  16.077   2.921  0.00  0.00     0.001 A 
HETATM    4  C   UNK N   1      33.808  15.402   3.753  0.00  0.00     0.019 A 
HETATM    5  C   UNK N   1      34.074  15.839   5.062  0.00  0.00     0.051 A 
HETATM    6  C   UNK N   1      33.409  17.028   5.538  0.00  0.00     0.026 A 
ENDROOT
BRANCH   6   7
HETATM    7  C   UNK N   1      33.604  17.656   6.886  0.00  0.00     0.161 C 
HETATM    8  O   UNK N   1      34.614  18.275   7.160  0.00  0.00    -0.292 OA
BRANCH   7   9
HETATM    9  C   UNK N   1      32.548  17.560   7.945  0.00  0.00     0.094 C 
BRANCH   9  10
HETATM   10  C   UNK N   1      31.942  16.172   8.032  0.00  0.00     0.117 C 
BRANCH  10  11
HETATM   11  C   UNK N   1      32.528  15.455   9.203  0.00  0.00     0.139 C 
HETATM   12  O   UNK N   1      33.697  15.100   9.181  0.00  0.00    -0.650 OA
BRANCH  11  13
HETATM   13  O   UNK N   1      31.773  15.205  10.288  0.00  0.00    -0.776 OA
HETATM   14  H   UNK N   1      31.217  14.453  10.334  0.00  0.00     0.167 HD
ENDBRANCH  11  13
ENDBRANCH  10  11
ENDBRANCH   9  10
ENDBRANCH   7   9
ENDBRANCH   6   7
BRANCH   5  15
HETATM   15  C   UNK N   1      34.995  14.962   5.854  0.00  0.00     0.177 C 
HETATM   16  O   UNK N   1      36.195  15.145   5.893  0.00  0.00    -0.646 OA
BRANCH  15  17
HETATM   17  O   UNK N   1      34.472  13.979   6.618  0.00  0.00    -0.773 OA
HETATM   18  H   UNK N   1      33.860  13.371   6.253  0.00  0.00     0.167 HD
ENDBRANCH  15  17
ENDBRANCH   5  15
TORSDOF 7
ENDMDL
MODEL 9
REMARK VINA RESULT:      -5.5     22.717     24.942
REMARK  7 active torsions:
REMARK  status: ('A' for Active; 'I' for Inactive)
REMARK    1  A    between atoms: O_1  and  C_3 
REMARK    2  A    between atoms: C_3  and  C_8 
REMARK    3  A    between atoms: C_9  and  C_10 
REMARK    4  A    between atoms: C_10  and  C_11 
REMARK    5  A    between atoms: C_11  and  C_13 
REMARK    6  A    between atoms: C_13  and  C_14 
REMARK    7  A    between atoms: C_14  and  O_16 
ROOT
HETATM    1  C   UNK N   1      35.523  10.909  17.639  0.00  0.00     0.016 A 
HETATM    2  C   UNK N   1      35.204  11.711  18.731  0.00  0.00     0.001 A 
HETATM    3  C   UNK N   1      35.167  13.091  18.588  0.00  0.00     0.001 A 
HETATM    4  C   UNK N   1      35.429  13.667  17.349  0.00  0.00     0.019 A 
HETATM    5  C   UNK N   1      35.751  12.889  16.224  0.00  0.00     0.051 A 
HETATM    6  C   UNK N   1      35.819  11.457  16.377  0.00  0.00     0.026 A 
ENDROOT
BRANCH   6   7
HETATM    7  C   UNK N   1      36.184  10.480  15.297  0.00  0.00     0.161 C 
HETATM    8  O   UNK N   1      37.333  10.350  14.920  0.00  0.00    -0.292 OA
BRANCH   7   9
HETATM    9  C   UNK N   1      35.146   9.612  14.653  0.00  0.00     0.094 C 
BRANCH   9  10
HETATM   10  C   UNK N   1      33.947  10.407  14.173  0.00  0.00     0.117 C 
BRANCH  10  11
HETATM   11  C   UNK N   1      34.026  10.563  12.690  0.00  0.00     0.139 C 
HETATM   12  O   UNK N   1      33.710   9.636  11.959  0.00  0.00    -0.650 OA
BRANCH  11  13
HETATM   13  O   UNK N   1      34.439  11.726  12.156  0.00  0.00    -0.776 OA
HETATM   14  H   UNK N   1      35.254  12.116  12.403  0.00  0.00     0.167 HD
ENDBRANCH  11  13
ENDBRANCH  10  11
ENDBRANCH   9  10
ENDBRANCH   7   9
ENDBRANCH   6   7
BRANCH   5  15
HETATM   15  C   UNK N   1      35.929  13.654  14.948  0.00  0.00     0.177 C 
HETATM   16  O   UNK N   1      35.071  13.696  14.089  0.00  0.00    -0.646 OA
BRANCH  15  17
HETATM   17  O   UNK N   1      37.047  14.389  14.771  0.00  0.00    -0.773 OA
HETATM   18  H   UNK N   1      37.727  14.379  15.417  0.00  0.00     0.167 HD
ENDBRANCH  15  17
ENDBRANCH   5  15
TORSDOF 7
ENDMDL
