MODEL 1
REMARK VINA RESULT:      -7.4      0.000      0.000
REMARK  10 active torsions:
REMARK  status: ('A' for Active; 'I' for Inactive)
REMARK    1  A    between atoms: C_1  and  C_7 
REMARK    2  A    between atoms: C_4  and  O_16 
REMARK    3  A    between atoms: C_7  and  C_8 
REMARK    4  A    between atoms: C_8  and  C_9 
REMARK    5  A    between atoms: C_8  and  N_12 
REMARK    6  A    between atoms: C_9  and  O_11 
REMARK       I    between atoms: N_12  and  C_13 
REMARK    7  A    between atoms: O_16  and  C_17 
REMARK    8  A    between atoms: C_19  and  N_20 
REMARK    9  A    between atoms: C_23  and  O_24 
REMARK   10  A    between atoms: C_25  and  N_26 
ROOT
HETATM    1  C   UNK N   1      26.622  18.443   4.834  0.00  0.00    -0.056 A 
HETATM    2  C   UNK N   1      26.731  17.111   5.252  0.00  0.00     0.010 A 
HETATM    3  C   UNK N   1      27.597  16.771   6.297  0.00  0.00     0.038 A 
HETATM    4  C   UNK N   1      28.376  17.761   6.904  0.00  0.00     0.076 A 
HETATM    5  C   UNK N   1      28.210  19.104   6.530  0.00  0.00     0.038 A 
HETATM    6  C   UNK N   1      27.331  19.444   5.507  0.00  0.00     0.010 A 
ENDROOT
BRANCH   4   7
HETATM    7  O   UNK N   1      29.395  17.404   7.722  0.00  0.00    -0.311 OA
BRANCH   7   8
HETATM    8  C   UNK N   1      30.683  17.408   7.269  0.00  0.00     0.081 A 
HETATM    9  C   UNK N   1      31.735  17.739   8.121  0.00  0.00     0.076 A 
HETATM   10  C   UNK N   1      33.070  17.704   7.668  0.00  0.00     0.141 A 
HETATM   11  C   UNK N   1      33.339  17.321   6.326  0.00  0.00     0.132 A 
HETATM   12  C   UNK N   1      32.276  16.981   5.461  0.00  0.00     0.141 A 
HETATM   13  C   UNK N   1      30.974  17.027   5.951  0.00  0.00     0.076 A 
BRANCH  10  14
HETATM   14  N   UNK N   1      34.123  18.048   8.572  0.00  0.00    -0.113 N 
HETATM   15  O   UNK N   1      34.313  17.387   9.548  0.00  0.00    -0.532 OA
HETATM   16  O   UNK N   1      34.898  19.088   8.344  0.00  0.00    -0.532 OA
ENDBRANCH  10  14
BRANCH  11  17
HETATM   17  O   UNK N   1      34.606  17.280   5.873  0.00  0.00    -0.356 OA
HETATM   18  H   UNK N   1      35.321  17.463   6.449  0.00  0.00     0.218 HD
ENDBRANCH  11  17
BRANCH  12  19
HETATM   19  N   UNK N   1      32.484  16.586   4.102  0.00  0.00    -0.113 N 
HETATM   20  O   UNK N   1      31.971  17.200   3.216  0.00  0.00    -0.532 OA
HETATM   21  O   UNK N   1      33.236  15.547   3.806  0.00  0.00    -0.532 OA
ENDBRANCH  12  19
ENDBRANCH   7   8
ENDBRANCH   4   7
BRANCH   1  22
HETATM   22  C   UNK N   1      25.847  18.766   3.589  0.00  0.00     0.074 C 
BRANCH  22  23
HETATM   23  C   UNK N   1      24.434  19.329   3.860  0.00  0.00     0.186 C 
BRANCH  23  24
HETATM   24  C   UNK N   1      24.070  20.490   2.959  0.00  0.00     0.163 C 
HETATM   25  O   UNK N   1      22.964  21.002   3.019  0.00  0.00    -0.648 OA
BRANCH  24  26
HETATM   26  O   UNK N   1      24.981  20.970   2.088  0.00  0.00    -0.775 OA
HETATM   27  H   UNK N   1      24.924  21.309   1.217  0.00  0.00     0.167 HD
ENDBRANCH  24  26
ENDBRANCH  23  24
BRANCH  23  28
HETATM   28  N   UNK N   1      23.467  18.261   3.706  0.00  0.00    -0.347 N 
HETATM   29  C   UNK N   1      22.644  17.852   4.706  0.00  0.00     0.214 C 
HETATM   30  C   UNK N   1      21.656  16.770   4.449  0.00  0.00     0.117 C 
HETATM   31  O   UNK N   1      22.709  18.359   5.817  0.00  0.00    -0.274 OA
HETATM   32  H   UNK N   1      23.403  17.810   2.833  0.00  0.00     0.163 HD
ENDBRANCH  23  28
ENDBRANCH  22  23
ENDBRANCH   1  22
TORSDOF 10
ENDMDL
MODEL 2
REMARK VINA RESULT:      -7.2      0.457      2.886
REMARK  10 active torsions:
REMARK  status: ('A' for Active; 'I' for Inactive)
REMARK    1  A    between atoms: C_1  and  C_7 
REMARK    2  A    between atoms: C_4  and  O_16 
REMARK    3  A    between atoms: C_7  and  C_8 
REMARK    4  A    between atoms: C_8  and  C_9 
REMARK    5  A    between atoms: C_8  and  N_12 
REMARK    6  A    between atoms: C_9  and  O_11 
REMARK       I    between atoms: N_12  and  C_13 
REMARK    7  A    between atoms: O_16  and  C_17 
REMARK    8  A    between atoms: C_19  and  N_20 
REMARK    9  A    between atoms: C_23  and  O_24 
REMARK   10  A    between atoms: C_25  and  N_26 
ROOT
HETATM    1  C   UNK N   1      26.790  18.711   5.069  0.00  0.00    -0.056 A 
HETATM    2  C   UNK N   1      26.958  17.346   5.333  0.00  0.00     0.010 A 
HETATM    3  C   UNK N   1      27.799  16.927   6.371  0.00  0.00     0.038 A 
HETATM    4  C   UNK N   1      28.496  17.877   7.124  0.00  0.00     0.076 A 
HETATM    5  C   UNK N   1      28.270  19.245   6.903  0.00  0.00     0.038 A 
HETATM    6  C   UNK N   1      27.415  19.659   5.887  0.00  0.00     0.010 A 
ENDROOT
BRANCH   4   7
HETATM    7  O   UNK N   1      29.501  17.478   7.941  0.00  0.00    -0.311 OA
BRANCH   7   8
HETATM    8  C   UNK N   1      30.771  17.334   7.461  0.00  0.00     0.081 A 
HETATM    9  C   UNK N   1      30.992  16.851   6.172  0.00  0.00     0.076 A 
HETATM   10  C   UNK N   1      32.300  16.740   5.657  0.00  0.00     0.141 A 
HETATM   11  C   UNK N   1      33.402  17.130   6.466  0.00  0.00     0.132 A 
HETATM   12  C   UNK N   1      33.180  17.623   7.771  0.00  0.00     0.141 A 
HETATM   13  C   UNK N   1      31.873  17.718   8.238  0.00  0.00     0.076 A 
BRANCH  10  14
HETATM   14  N   UNK N   1      32.487  16.243   4.329  0.00  0.00    -0.113 N 
HETATM   15  O   UNK N   1      32.992  16.934   3.498  0.00  0.00    -0.532 OA
HETATM   16  O   UNK N   1      32.114  15.022   4.005  0.00  0.00    -0.532 OA
ENDBRANCH  10  14
BRANCH  11  17
HETATM   17  O   UNK N   1      34.658  17.033   5.994  0.00  0.00    -0.356 OA
HETATM   18  H   UNK N   1      35.257  17.746   6.092  0.00  0.00     0.218 HD
ENDBRANCH  11  17
BRANCH  12  19
HETATM   19  N   UNK N   1      34.247  18.033   8.631  0.00  0.00    -0.113 N 
HETATM   20  O   UNK N   1      34.487  17.413   9.622  0.00  0.00    -0.532 OA
HETATM   21  O   UNK N   1      34.976  19.093   8.349  0.00  0.00    -0.532 OA
ENDBRANCH  12  19
ENDBRANCH   7   8
ENDBRANCH   4   7
BRANCH   1  22
HETATM   22  C   UNK N   1      26.048  19.140   3.837  0.00  0.00     0.074 C 
BRANCH  22  23
HETATM   23  C   UNK N   1      24.531  19.333   4.054  0.00  0.00     0.186 C 
BRANCH  23  24
HETATM   24  C   UNK N   1      23.914  20.339   3.106  0.00  0.00     0.163 C 
HETATM   25  O   UNK N   1      22.736  20.643   3.202  0.00  0.00    -0.648 OA
BRANCH  24  26
HETATM   26  O   UNK N   1      24.676  20.913   2.154  0.00  0.00    -0.775 OA
HETATM   27  H   UNK N   1      25.253  21.651   2.147  0.00  0.00     0.167 HD
ENDBRANCH  24  26
ENDBRANCH  23  24
BRANCH  23  28
HETATM   28  N   UNK N   1      23.871  18.050   3.913  0.00  0.00    -0.347 N 
HETATM   29  C   UNK N   1      22.949  17.587   4.796  0.00  0.00     0.214 C 
HETATM   30  C   UNK N   1      22.295  16.273   4.554  0.00  0.00     0.117 C 
HETATM   31  O   UNK N   1      22.654  18.233   5.790  0.00  0.00    -0.274 OA
HETATM   32  H   UNK N   1      24.102  17.488   3.138  0.00  0.00     0.163 HD
ENDBRANCH  23  28
ENDBRANCH  22  23
ENDBRANCH   1  22
TORSDOF 10
ENDMDL
MODEL 3
REMARK VINA RESULT:      -7.1      2.172      2.860
REMARK  10 active torsions:
REMARK  status: ('A' for Active; 'I' for Inactive)
REMARK    1  A    between atoms: C_1  and  C_7 
REMARK    2  A    between atoms: C_4  and  O_16 
REMARK    3  A    between atoms: C_7  and  C_8 
REMARK    4  A    between atoms: C_8  and  C_9 
REMARK    5  A    between atoms: C_8  and  N_12 
REMARK    6  A    between atoms: C_9  and  O_11 
REMARK       I    between atoms: N_12  and  C_13 
REMARK    7  A    between atoms: O_16  and  C_17 
REMARK    8  A    between atoms: C_19  and  N_20 
REMARK    9  A    between atoms: C_23  and  O_24 
REMARK   10  A    between atoms: C_25  and  N_26 
ROOT
HETATM    1  C   UNK N   1      27.304  17.892   4.856  0.00  0.00    -0.056 A 
HETATM    2  C   UNK N   1      28.639  18.295   4.735  0.00  0.00     0.010 A 
HETATM    3  C   UNK N   1      29.563  17.981   5.739  0.00  0.00     0.038 A 
HETATM    4  C   UNK N   1      29.141  17.289   6.878  0.00  0.00     0.076 A 
HETATM    5  C   UNK N   1      27.819  16.824   6.962  0.00  0.00     0.038 A 
HETATM    6  C   UNK N   1      26.908  17.117   5.952  0.00  0.00     0.010 A 
ENDROOT
BRANCH   4   7
HETATM    7  O   UNK N   1      29.957  17.216   7.957  0.00  0.00    -0.311 OA
BRANCH   7   8
HETATM    8  C   UNK N   1      31.252  16.806   7.822  0.00  0.00     0.081 A 
HETATM    9  C   UNK N   1      32.296  17.564   8.351  0.00  0.00     0.076 A 
HETATM   10  C   UNK N   1      33.632  17.124   8.249  0.00  0.00     0.141 A 
HETATM   11  C   UNK N   1      33.911  15.891   7.600  0.00  0.00     0.132 A 
HETATM   12  C   UNK N   1      32.855  15.119   7.067  0.00  0.00     0.141 A 
HETATM   13  C   UNK N   1      31.552  15.589   7.192  0.00  0.00     0.076 A 
BRANCH  10  14
HETATM   14  N   UNK N   1      34.675  17.928   8.807  0.00  0.00    -0.113 N 
HETATM   15  O   UNK N   1      35.289  17.538   9.753  0.00  0.00    -0.532 OA
HETATM   16  O   UNK N   1      34.977  19.100   8.288  0.00  0.00    -0.532 OA
ENDBRANCH  10  14
BRANCH  11  17
HETATM   17  O   UNK N   1      35.178  15.452   7.494  0.00  0.00    -0.356 OA
HETATM   18  H   UNK N   1      35.451  14.676   7.942  0.00  0.00     0.218 HD
ENDBRANCH  11  17
BRANCH  12  19
HETATM   19  N   UNK N   1      33.073  13.869   6.406  0.00  0.00    -0.113 N 
HETATM   20  O   UNK N   1      32.482  12.894   6.762  0.00  0.00    -0.532 OA
HETATM   21  O   UNK N   1      33.922  13.770   5.405  0.00  0.00    -0.532 OA
ENDBRANCH  12  19
ENDBRANCH   7   8
ENDBRANCH   4   7
BRANCH   1  22
HETATM   22  C   UNK N   1      26.286  18.402   3.878  0.00  0.00     0.074 C 
BRANCH  22  23
HETATM   23  C   UNK N   1      26.043  19.925   3.962  0.00  0.00     0.186 C 
BRANCH  23  24
HETATM   24  C   UNK N   1      24.938  20.406   3.046  0.00  0.00     0.163 C 
HETATM   25  O   UNK N   1      25.199  20.870   1.947  0.00  0.00    -0.648 OA
BRANCH  24  26
HETATM   26  O   UNK N   1      23.654  20.312   3.443  0.00  0.00    -0.775 OA
HETATM   27  H   UNK N   1      23.232  19.906   4.175  0.00  0.00     0.167 HD
ENDBRANCH  24  26
ENDBRANCH  23  24
BRANCH  23  28
HETATM   28  N   UNK N   1      25.737  20.275   5.334  0.00  0.00    -0.347 N 
HETATM   29  C   UNK N   1      26.540  21.060   6.099  0.00  0.00     0.214 C 
HETATM   30  C   UNK N   1      26.129  21.398   7.488  0.00  0.00     0.117 C 
HETATM   31  O   UNK N   1      27.597  21.488   5.661  0.00  0.00    -0.274 OA
HETATM   32  H   UNK N   1      24.905  19.927   5.732  0.00  0.00     0.163 HD
ENDBRANCH  23  28
ENDBRANCH  22  23
ENDBRANCH   1  22
TORSDOF 10
ENDMDL
MODEL 4
REMARK VINA RESULT:      -7.1      4.092     10.078
REMARK  10 active torsions:
REMARK  status: ('A' for Active; 'I' for Inactive)
REMARK    1  A    between atoms: C_1  and  C_7 
REMARK    2  A    between atoms: C_4  and  O_16 
REMARK    3  A    between atoms: C_7  and  C_8 
REMARK    4  A    between atoms: C_8  and  C_9 
REMARK    5  A    between atoms: C_8  and  N_12 
REMARK    6  A    between atoms: C_9  and  O_11 
REMARK       I    between atoms: N_12  and  C_13 
REMARK    7  A    between atoms: O_16  and  C_17 
REMARK    8  A    between atoms: C_19  and  N_20 
REMARK    9  A    between atoms: C_23  and  O_24 
REMARK   10  A    between atoms: C_25  and  N_26 
ROOT
HETATM    1  C   UNK N   1      34.439  15.875   9.797  0.00  0.00    -0.056 A 
HETATM    2  C   UNK N   1      33.574  14.894   9.294  0.00  0.00     0.010 A 
HETATM    3  C   UNK N   1      32.947  15.077   8.056  0.00  0.00     0.038 A 
HETATM    4  C   UNK N   1      33.163  16.256   7.337  0.00  0.00     0.076 A 
HETATM    5  C   UNK N   1      34.085  17.203   7.810  0.00  0.00     0.038 A 
HETATM    6  C   UNK N   1      34.726  17.009   9.029  0.00  0.00     0.010 A 
ENDROOT
BRANCH   4   7
HETATM    7  O   UNK N   1      32.365  16.553   6.282  0.00  0.00    -0.311 OA
BRANCH   7   8
HETATM    8  C   UNK N   1      31.103  17.035   6.480  0.00  0.00     0.081 A 
HETATM    9  C   UNK N   1      30.623  17.260   7.769  0.00  0.00     0.076 A 
HETATM   10  C   UNK N   1      29.336  17.797   7.977  0.00  0.00     0.141 A 
HETATM   11  C   UNK N   1      28.524  18.114   6.854  0.00  0.00     0.132 A 
HETATM   12  C   UNK N   1      29.010  17.891   5.546  0.00  0.00     0.141 A 
HETATM   13  C   UNK N   1      30.287  17.362   5.388  0.00  0.00     0.076 A 
BRANCH  10  14
HETATM   14  N   UNK N   1      28.879  18.016   9.314  0.00  0.00    -0.113 N 
HETATM   15  O   UNK N   1      29.496  18.727  10.048  0.00  0.00    -0.532 OA
HETATM   16  O   UNK N   1      27.776  17.446   9.755  0.00  0.00    -0.532 OA
ENDBRANCH  10  14
BRANCH  11  17
HETATM   17  O   UNK N   1      27.294  18.628   7.030  0.00  0.00    -0.356 OA
HETATM   18  H   UNK N   1      27.169  19.387   7.564  0.00  0.00     0.218 HD
ENDBRANCH  11  17
BRANCH  12  19
HETATM   19  N   UNK N   1      28.242  18.192   4.378  0.00  0.00    -0.113 N 
HETATM   20  O   UNK N   1      27.793  19.288   4.224  0.00  0.00    -0.532 OA
HETATM   21  O   UNK N   1      28.014  17.275   3.462  0.00  0.00    -0.532 OA
ENDBRANCH  12  19
ENDBRANCH   7   8
ENDBRANCH   4   7
BRANCH   1  22
HETATM   22  C   UNK N   1      34.947  15.761  11.205  0.00  0.00     0.074 C 
BRANCH  22  23
HETATM   23  C   UNK N   1      35.835  14.521  11.453  0.00  0.00     0.186 C 
BRANCH  23  24
HETATM   24  C   UNK N   1      36.884  14.314  10.381  0.00  0.00     0.163 C 
HETATM   25  O   UNK N   1      36.831  13.349   9.636  0.00  0.00    -0.648 OA
BRANCH  24  26
HETATM   26  O   UNK N   1      37.882  15.210  10.242  0.00  0.00    -0.775 OA
HETATM   27  H   UNK N   1      37.927  16.076   9.887  0.00  0.00     0.167 HD
ENDBRANCH  24  26
ENDBRANCH  23  24
BRANCH  23  28
HETATM   28  N   UNK N   1      36.469  14.651  12.749  0.00  0.00    -0.347 N 
HETATM   29  C   UNK N   1      36.005  14.037  13.869  0.00  0.00     0.214 C 
HETATM   30  C   UNK N   1      36.740  14.198  15.152  0.00  0.00     0.117 C 
HETATM   31  O   UNK N   1      34.989  13.359  13.836  0.00  0.00    -0.274 OA
HETATM   32  H   UNK N   1      37.276  15.211  12.822  0.00  0.00     0.163 HD
ENDBRANCH  23  28
ENDBRANCH  22  23
ENDBRANCH   1  22
TORSDOF 10
ENDMDL
MODEL 5
REMARK VINA RESULT:      -7.0      8.055     11.164
REMARK  10 active torsions:
REMARK  status: ('A' for Active; 'I' for Inactive)
REMARK    1  A    between atoms: C_1  and  C_7 
REMARK    2  A    between atoms: C_4  and  O_16 
REMARK    3  A    between atoms: C_7  and  C_8 
REMARK    4  A    between atoms: C_8  and  C_9 
REMARK    5  A    between atoms: C_8  and  N_12 
REMARK    6  A    between atoms: C_9  and  O_11 
REMARK       I    between atoms: N_12  and  C_13 
REMARK    7  A    between atoms: O_16  and  C_17 
REMARK    8  A    between atoms: C_19  and  N_20 
REMARK    9  A    between atoms: C_23  and  O_24 
REMARK   10  A    between atoms: C_25  and  N_26 
ROOT
HETATM    1  C   UNK N   1      21.562  14.123   8.969  0.00  0.00    -0.056 A 
HETATM    2  C   UNK N   1      20.512  15.042   9.093  0.00  0.00     0.010 A 
HETATM    3  C   UNK N   1      20.421  16.128   8.215  0.00  0.00     0.038 A 
HETATM    4  C   UNK N   1      21.399  16.310   7.232  0.00  0.00     0.076 A 
HETATM    5  C   UNK N   1      22.407  15.347   7.065  0.00  0.00     0.038 A 
HETATM    6  C   UNK N   1      22.482  14.255   7.923  0.00  0.00     0.010 A 
ENDROOT
BRANCH   4   7
HETATM    7  O   UNK N   1      21.464  17.486   6.561  0.00  0.00    -0.311 OA
BRANCH   7   8
HETATM    8  C   UNK N   1      21.042  17.570   5.265  0.00  0.00     0.081 A 
HETATM    9  C   UNK N   1      21.123  18.775   4.569  0.00  0.00     0.076 A 
HETATM   10  C   UNK N   1      20.727  18.855   3.218  0.00  0.00     0.141 A 
HETATM   11  C   UNK N   1      20.244  17.690   2.563  0.00  0.00     0.132 A 
HETATM   12  C   UNK N   1      20.166  16.467   3.265  0.00  0.00     0.141 A 
HETATM   13  C   UNK N   1      20.569  16.432   4.597  0.00  0.00     0.076 A 
BRANCH  10  14
HETATM   14  N   UNK N   1      20.827  20.108   2.536  0.00  0.00    -0.113 N 
HETATM   15  O   UNK N   1      20.709  21.130   3.142  0.00  0.00    -0.532 OA
HETATM   16  O   UNK N   1      21.054  20.157   1.240  0.00  0.00    -0.532 OA
ENDBRANCH  10  14
BRANCH  11  17
HETATM   17  O   UNK N   1      19.863  17.745   1.274  0.00  0.00    -0.356 OA
HETATM   18  H   UNK N   1      19.299  17.087   0.918  0.00  0.00     0.218 HD
ENDBRANCH  11  17
BRANCH  12  19
HETATM   19  N   UNK N   1      19.691  15.261   2.660  0.00  0.00    -0.113 N 
HETATM   20  O   UNK N   1      19.947  15.024   1.518  0.00  0.00    -0.532 OA
HETATM   21  O   UNK N   1      18.967  14.399   3.343  0.00  0.00    -0.532 OA
ENDBRANCH  12  19
ENDBRANCH   7   8
ENDBRANCH   4   7
BRANCH   1  22
HETATM   22  C   UNK N   1      21.762  13.081  10.031  0.00  0.00     0.074 C 
BRANCH  22  23
HETATM   23  C   UNK N   1      23.156  12.417  10.003  0.00  0.00     0.186 C 
BRANCH  23  24
HETATM   24  C   UNK N   1      23.730  12.174  11.383  0.00  0.00     0.163 C 
HETATM   25  O   UNK N   1      23.002  11.877  12.316  0.00  0.00    -0.648 OA
BRANCH  24  26
HETATM   26  O   UNK N   1      25.060  12.278  11.580  0.00  0.00    -0.775 OA
HETATM   27  H   UNK N   1      25.589  12.807  12.143  0.00  0.00     0.167 HD
ENDBRANCH  24  26
ENDBRANCH  23  24
BRANCH  23  28
HETATM   28  N   UNK N   1      23.064  11.166   9.278  0.00  0.00    -0.347 N 
HETATM   29  C   UNK N   1      23.764  10.911   8.142  0.00  0.00     0.214 C 
HETATM   30  C   UNK N   1      23.635   9.585   7.481  0.00  0.00     0.117 C 
HETATM   31  O   UNK N   1      24.494  11.760   7.653  0.00  0.00    -0.274 OA
HETATM   32  H   UNK N   1      22.465  10.465   9.626  0.00  0.00     0.163 HD
ENDBRANCH  23  28
ENDBRANCH  22  23
ENDBRANCH   1  22
TORSDOF 10
ENDMDL
MODEL 6
REMARK VINA RESULT:      -7.0      7.724     10.960
REMARK  10 active torsions:
REMARK  status: ('A' for Active; 'I' for Inactive)
REMARK    1  A    between atoms: C_1  and  C_7 
REMARK    2  A    between atoms: C_4  and  O_16 
REMARK    3  A    between atoms: C_7  and  C_8 
REMARK    4  A    between atoms: C_8  and  C_9 
REMARK    5  A    between atoms: C_8  and  N_12 
REMARK    6  A    between atoms: C_9  and  O_11 
REMARK       I    between atoms: N_12  and  C_13 
REMARK    7  A    between atoms: O_16  and  C_17 
REMARK    8  A    between atoms: C_19  and  N_20 
REMARK    9  A    between atoms: C_23  and  O_24 
REMARK   10  A    between atoms: C_25  and  N_26 
ROOT
HETATM    1  C   UNK N   1      21.706  14.262   8.203  0.00  0.00    -0.056 A 
HETATM    2  C   UNK N   1      20.547  15.046   8.259  0.00  0.00     0.010 A 
HETATM    3  C   UNK N   1      20.440  16.200   7.474  0.00  0.00     0.038 A 
HETATM    4  C   UNK N   1      21.507  16.583   6.655  0.00  0.00     0.076 A 
HETATM    5  C   UNK N   1      22.636  15.756   6.548  0.00  0.00     0.038 A 
HETATM    6  C   UNK N   1      22.731  14.597   7.311  0.00  0.00     0.010 A 
ENDROOT
BRANCH   4   7
HETATM    7  O   UNK N   1      21.516  17.821   6.103  0.00  0.00    -0.311 OA
BRANCH   7   8
HETATM    8  C   UNK N   1      21.294  17.987   4.766  0.00  0.00     0.081 A 
HETATM    9  C   UNK N   1      20.874  16.916   3.978  0.00  0.00     0.076 A 
HETATM   10  C   UNK N   1      20.603  17.093   2.606  0.00  0.00     0.141 A 
HETATM   11  C   UNK N   1      20.759  18.381   2.025  0.00  0.00     0.132 A 
HETATM   12  C   UNK N   1      21.180  19.468   2.823  0.00  0.00     0.141 A 
HETATM   13  C   UNK N   1      21.434  19.250   4.173  0.00  0.00     0.076 A 
BRANCH  10  14
HETATM   14  N   UNK N   1      20.171  15.971   1.830  0.00  0.00    -0.113 N 
HETATM   15  O   UNK N   1      19.510  15.115   2.334  0.00  0.00    -0.532 OA
HETATM   16  O   UNK N   1      20.488  15.867   0.556  0.00  0.00    -0.532 OA
ENDBRANCH  10  14
BRANCH  11  17
HETATM   17  O   UNK N   1      20.504  18.572   0.718  0.00  0.00    -0.356 OA
HETATM   18  H   UNK N   1      21.056  18.187   0.067  0.00  0.00     0.218 HD
ENDBRANCH  11  17
BRANCH  12  19
HETATM   19  N   UNK N   1      21.353  20.787   2.297  0.00  0.00    -0.113 N 
HETATM   20  O   UNK N   1      22.168  21.518   2.773  0.00  0.00    -0.532 OA
HETATM   21  O   UNK N   1      20.621  21.217   1.290  0.00  0.00    -0.532 OA
ENDBRANCH  12  19
ENDBRANCH   7   8
ENDBRANCH   4   7
BRANCH   1  22
HETATM   22  C   UNK N   1      21.892  13.145   9.190  0.00  0.00     0.074 C 
BRANCH  22  23
HETATM   23  C   UNK N   1      23.309  12.532   9.183  0.00  0.00     0.186 C 
BRANCH  23  24
HETATM   24  C   UNK N   1      23.972  12.543  10.544  0.00  0.00     0.163 C 
HETATM   25  O   UNK N   1      23.362  12.176  11.536  0.00  0.00    -0.648 OA
BRANCH  24  26
HETATM   26  O   UNK N   1      25.251  12.952  10.660  0.00  0.00    -0.775 OA
HETATM   27  H   UNK N   1      25.656  13.701  11.049  0.00  0.00     0.167 HD
ENDBRANCH  24  26
ENDBRANCH  23  24
BRANCH  23  28
HETATM   28  N   UNK N   1      23.228  11.175   8.682  0.00  0.00    -0.347 N 
HETATM   29  C   UNK N   1      23.789  10.780   7.509  0.00  0.00     0.214 C 
HETATM   30  C   UNK N   1      23.688   9.357   7.088  0.00  0.00     0.117 C 
HETATM   31  O   UNK N   1      24.371  11.581   6.792  0.00  0.00    -0.274 OA
HETATM   32  H   UNK N   1      22.745  10.505   9.218  0.00  0.00     0.163 HD
ENDBRANCH  23  28
ENDBRANCH  22  23
ENDBRANCH   1  22
TORSDOF 10
ENDMDL
MODEL 7
REMARK VINA RESULT:      -7.0      7.970     10.891
REMARK  10 active torsions:
REMARK  status: ('A' for Active; 'I' for Inactive)
REMARK    1  A    between atoms: C_1  and  C_7 
REMARK    2  A    between atoms: C_4  and  O_16 
REMARK    3  A    between atoms: C_7  and  C_8 
REMARK    4  A    between atoms: C_8  and  C_9 
REMARK    5  A    between atoms: C_8  and  N_12 
REMARK    6  A    between atoms: C_9  and  O_11 
REMARK       I    between atoms: N_12  and  C_13 
REMARK    7  A    between atoms: O_16  and  C_17 
REMARK    8  A    between atoms: C_19  and  N_20 
REMARK    9  A    between atoms: C_23  and  O_24 
REMARK   10  A    between atoms: C_25  and  N_26 
ROOT
HETATM    1  C   UNK N   1      22.941  14.563   7.094  0.00  0.00    -0.056 A 
HETATM    2  C   UNK N   1      21.547  14.506   7.213  0.00  0.00     0.010 A 
HETATM    3  C   UNK N   1      20.748  15.464   6.579  0.00  0.00     0.038 A 
HETATM    4  C   UNK N   1      21.347  16.496   5.851  0.00  0.00     0.076 A 
HETATM    5  C   UNK N   1      22.740  16.508   5.675  0.00  0.00     0.038 A 
HETATM    6  C   UNK N   1      23.532  15.541   6.286  0.00  0.00     0.010 A 
ENDROOT
BRANCH   4   7
HETATM    7  O   UNK N   1      20.604  17.561   5.463  0.00  0.00    -0.311 OA
BRANCH   7   8
HETATM    8  C   UNK N   1      20.578  17.950   4.154  0.00  0.00     0.081 A 
HETATM    9  C   UNK N   1      20.891  19.260   3.796  0.00  0.00     0.076 A 
HETATM   10  C   UNK N   1      20.906  19.654   2.442  0.00  0.00     0.141 A 
HETATM   11  C   UNK N   1      20.600  18.698   1.435  0.00  0.00     0.132 A 
HETATM   12  C   UNK N   1      20.287  17.369   1.796  0.00  0.00     0.141 A 
HETATM   13  C   UNK N   1      20.287  17.023   3.143  0.00  0.00     0.076 A 
BRANCH  10  14
HETATM   14  N   UNK N   1      21.234  21.007   2.113  0.00  0.00    -0.113 N 
HETATM   15  O   UNK N   1      22.119  21.563   2.689  0.00  0.00    -0.532 OA
HETATM   16  O   UNK N   1      20.575  21.654   1.175  0.00  0.00    -0.532 OA
ENDBRANCH  10  14
BRANCH  11  17
HETATM   17  O   UNK N   1      20.610  19.053   0.138  0.00  0.00    -0.356 OA
HETATM   18  H   UNK N   1      21.014  19.854  -0.132  0.00  0.00     0.218 HD
ENDBRANCH  11  17
BRANCH  12  19
HETATM   19  N   UNK N   1      19.974  16.363   0.828  0.00  0.00    -0.113 N 
HETATM   20  O   UNK N   1      18.981  16.454   0.171  0.00  0.00    -0.532 OA
HETATM   21  O   UNK N   1      20.764  15.326   0.648  0.00  0.00    -0.532 OA
ENDBRANCH  12  19
ENDBRANCH   7   8
ENDBRANCH   4   7
BRANCH   1  22
HETATM   22  C   UNK N   1      23.793  13.656   7.935  0.00  0.00     0.074 C 
BRANCH  22  23
HETATM   23  C   UNK N   1      23.045  12.416   8.474  0.00  0.00     0.186 C 
BRANCH  23  24
HETATM   24  C   UNK N   1      23.263  11.175   7.635  0.00  0.00     0.163 C 
HETATM   25  O   UNK N   1      23.759  10.173   8.125  0.00  0.00    -0.648 OA
BRANCH  24  26
HETATM   26  O   UNK N   1      22.896  11.172   6.339  0.00  0.00    -0.775 OA
HETATM   27  H   UNK N   1      22.663  11.848   5.732  0.00  0.00     0.167 HD
ENDBRANCH  24  26
ENDBRANCH  23  24
BRANCH  23  28
HETATM   28  N   UNK N   1      23.467  12.173   9.839  0.00  0.00    -0.347 N 
HETATM   29  C   UNK N   1      22.614  12.197  10.896  0.00  0.00     0.214 C 
HETATM   30  C   UNK N   1      23.128  11.900  12.261  0.00  0.00     0.117 C 
HETATM   31  O   UNK N   1      21.432  12.465  10.742  0.00  0.00    -0.274 OA
HETATM   32  H   UNK N   1      24.417  11.979  10.008  0.00  0.00     0.163 HD
ENDBRANCH  23  28
ENDBRANCH  22  23
ENDBRANCH   1  22
TORSDOF 10
ENDMDL
MODEL 8
REMARK VINA RESULT:      -7.0      4.065     10.185
REMARK  10 active torsions:
REMARK  status: ('A' for Active; 'I' for Inactive)
REMARK    1  A    between atoms: C_1  and  C_7 
REMARK    2  A    between atoms: C_4  and  O_16 
REMARK    3  A    between atoms: C_7  and  C_8 
REMARK    4  A    between atoms: C_8  and  C_9 
REMARK    5  A    between atoms: C_8  and  N_12 
REMARK    6  A    between atoms: C_9  and  O_11 
REMARK       I    between atoms: N_12  and  C_13 
REMARK    7  A    between atoms: O_16  and  C_17 
REMARK    8  A    between atoms: C_19  and  N_20 
REMARK    9  A    between atoms: C_23  and  O_24 
REMARK   10  A    between atoms: C_25  and  N_26 
ROOT
HETATM    1  C   UNK N   1      34.828  15.997   9.938  0.00  0.00    -0.056 A 
HETATM    2  C   UNK N   1      33.916  14.937   9.866  0.00  0.00     0.010 A 
HETATM    3  C   UNK N   1      32.714  15.089   9.164  0.00  0.00     0.038 A 
HETATM    4  C   UNK N   1      32.415  16.313   8.559  0.00  0.00     0.076 A 
HETATM    5  C   UNK N   1      33.363  17.348   8.573  0.00  0.00     0.038 A 
HETATM    6  C   UNK N   1      34.566  17.188   9.251  0.00  0.00     0.010 A 
ENDROOT
BRANCH   4   7
HETATM    7  O   UNK N   1      31.157  16.549   8.112  0.00  0.00    -0.311 OA
BRANCH   7   8
HETATM    8  C   UNK N   1      30.900  16.628   6.773  0.00  0.00     0.081 A 
HETATM    9  C   UNK N   1      29.812  17.360   6.300  0.00  0.00     0.076 A 
HETATM   10  C   UNK N   1      29.567  17.478   4.917  0.00  0.00     0.141 A 
HETATM   11  C   UNK N   1      30.447  16.844   3.998  0.00  0.00     0.132 A 
HETATM   12  C   UNK N   1      31.553  16.106   4.474  0.00  0.00     0.141 A 
HETATM   13  C   UNK N   1      31.758  16.017   5.847  0.00  0.00     0.076 A 
BRANCH  10  14
HETATM   14  N   UNK N   1      28.442  18.239   4.471  0.00  0.00    -0.113 N 
HETATM   15  O   UNK N   1      27.663  17.761   3.703  0.00  0.00    -0.532 OA
HETATM   16  O   UNK N   1      28.243  19.469   4.899  0.00  0.00    -0.532 OA
ENDBRANCH  10  14
BRANCH  11  17
HETATM   17  O   UNK N   1      30.232  16.946   2.674  0.00  0.00    -0.356 OA
HETATM   18  H   UNK N   1      29.711  17.643   2.330  0.00  0.00     0.218 HD
ENDBRANCH  11  17
BRANCH  12  19
HETATM   19  N   UNK N   1      32.474  15.448   3.598  0.00  0.00    -0.113 N 
HETATM   20  O   UNK N   1      32.740  14.297   3.767  0.00  0.00    -0.532 OA
HETATM   21  O   UNK N   1      33.041  16.095   2.602  0.00  0.00    -0.532 OA
ENDBRANCH  12  19
ENDBRANCH   7   8
ENDBRANCH   4   7
BRANCH   1  22
HETATM   22  C   UNK N   1      36.013  15.892  10.854  0.00  0.00     0.074 C 
BRANCH  22  23
HETATM   23  C   UNK N   1      36.413  14.440  11.197  0.00  0.00     0.186 C 
BRANCH  23  24
HETATM   24  C   UNK N   1      37.526  13.904  10.323  0.00  0.00     0.163 C 
HETATM   25  O   UNK N   1      37.409  13.887   9.107  0.00  0.00    -0.648 OA
BRANCH  24  26
HETATM   26  O   UNK N   1      38.661  13.451  10.890  0.00  0.00    -0.775 OA
HETATM   27  H   UNK N   1      39.570  13.628  10.746  0.00  0.00     0.167 HD
ENDBRANCH  24  26
ENDBRANCH  23  24
BRANCH  23  28
HETATM   28  N   UNK N   1      36.805  14.380  12.591  0.00  0.00    -0.347 N 
HETATM   29  C   UNK N   1      35.986  13.928  13.576  0.00  0.00     0.214 C 
HETATM   30  C   UNK N   1      36.484  13.867  14.976  0.00  0.00     0.117 C 
HETATM   31  O   UNK N   1      34.843  13.574  13.326  0.00  0.00    -0.274 OA
HETATM   32  H   UNK N   1      37.710  14.681  12.836  0.00  0.00     0.163 HD
ENDBRANCH  23  28
ENDBRANCH  22  23
ENDBRANCH   1  22
TORSDOF 10
ENDMDL
MODEL 9
REMARK VINA RESULT:      -7.0      2.208      3.394
REMARK  10 active torsions:
REMARK  status: ('A' for Active; 'I' for Inactive)
REMARK    1  A    between atoms: C_1  and  C_7 
REMARK    2  A    between atoms: C_4  and  O_16 
REMARK    3  A    between atoms: C_7  and  C_8 
REMARK    4  A    between atoms: C_8  and  C_9 
REMARK    5  A    between atoms: C_8  and  N_12 
REMARK    6  A    between atoms: C_9  and  O_11 
REMARK       I    between atoms: N_12  and  C_13 
REMARK    7  A    between atoms: O_16  and  C_17 
REMARK    8  A    between atoms: C_19  and  N_20 
REMARK    9  A    between atoms: C_23  and  O_24 
REMARK   10  A    between atoms: C_25  and  N_26 
ROOT
HETATM    1  C   UNK N   1      24.643  17.366   4.221  0.00  0.00    -0.056 A 
HETATM    2  C   UNK N   1      25.369  16.213   4.544  0.00  0.00     0.010 A 
HETATM    3  C   UNK N   1      26.752  16.286   4.749  0.00  0.00     0.038 A 
HETATM    4  C   UNK N   1      27.410  17.510   4.602  0.00  0.00     0.076 A 
HETATM    5  C   UNK N   1      26.669  18.675   4.350  0.00  0.00     0.038 A 
HETATM    6  C   UNK N   1      25.292  18.604   4.169  0.00  0.00     0.010 A 
ENDROOT
BRANCH   4   7
HETATM    7  O   UNK N   1      28.764  17.539   4.538  0.00  0.00    -0.311 OA
BRANCH   7   8
HETATM    8  C   UNK N   1      29.512  17.563   5.680  0.00  0.00     0.081 A 
HETATM    9  C   UNK N   1      28.916  17.813   6.915  0.00  0.00     0.076 A 
HETATM   10  C   UNK N   1      29.678  17.797   8.101  0.00  0.00     0.141 A 
HETATM   11  C   UNK N   1      31.070  17.520   8.031  0.00  0.00     0.132 A 
HETATM   12  C   UNK N   1      31.676  17.262   6.781  0.00  0.00     0.141 A 
HETATM   13  C   UNK N   1      30.886  17.285   5.636  0.00  0.00     0.076 A 
BRANCH  10  14
HETATM   14  N   UNK N   1      29.029  18.056   9.350  0.00  0.00    -0.113 N 
HETATM   15  O   UNK N   1      29.561  18.743  10.168  0.00  0.00    -0.532 OA
HETATM   16  O   UNK N   1      27.843  17.550   9.614  0.00  0.00    -0.532 OA
ENDBRANCH  10  14
BRANCH  11  17
HETATM   17  O   UNK N   1      31.815  17.500   9.151  0.00  0.00    -0.356 OA
HETATM   18  H   UNK N   1      32.346  16.755   9.353  0.00  0.00     0.218 HD
ENDBRANCH  11  17
BRANCH  12  19
HETATM   19  N   UNK N   1      33.071  16.975   6.647  0.00  0.00    -0.113 N 
HETATM   20  O   UNK N   1      33.532  16.000   7.159  0.00  0.00    -0.532 OA
HETATM   21  O   UNK N   1      33.865  17.774   5.966  0.00  0.00    -0.532 OA
ENDBRANCH  12  19
ENDBRANCH   7   8
ENDBRANCH   4   7
BRANCH   1  22
HETATM   22  C   UNK N   1      23.204  17.243   3.810  0.00  0.00     0.074 C 
BRANCH  22  23
HETATM   23  C   UNK N   1      22.232  18.077   4.672  0.00  0.00     0.186 C 
BRANCH  23  24
HETATM   24  C   UNK N   1      21.202  18.828   3.855  0.00  0.00     0.163 C 
HETATM   25  O   UNK N   1      20.760  18.351   2.822  0.00  0.00    -0.648 OA
BRANCH  24  26
HETATM   26  O   UNK N   1      20.760  20.029   4.279  0.00  0.00    -0.775 OA
HETATM   27  H   UNK N   1      21.035  20.910   4.120  0.00  0.00     0.167 HD
ENDBRANCH  24  26
ENDBRANCH  23  24
BRANCH  23  28
HETATM   28  N   UNK N   1      21.572  17.199   5.616  0.00  0.00    -0.347 N 
HETATM   29  C   UNK N   1      21.006  17.638   6.771  0.00  0.00     0.214 C 
HETATM   30  C   UNK N   1      20.316  16.670   7.666  0.00  0.00     0.117 C 
HETATM   31  O   UNK N   1      21.060  18.817   7.086  0.00  0.00    -0.274 OA
HETATM   32  H   UNK N   1      21.530  16.236   5.411  0.00  0.00     0.163 HD
ENDBRANCH  23  28
ENDBRANCH  22  23
ENDBRANCH   1  22
TORSDOF 10
ENDMDL
