REMARK  10 active torsions:
REMARK  status: ('A' for Active; 'I' for Inactive)
REMARK    1  A    between atoms: C_1  and  C_7 
REMARK    2  A    between atoms: C_4  and  O_16 
REMARK    3  A    between atoms: C_7  and  C_8 
REMARK    4  A    between atoms: C_8  and  C_9 
REMARK    5  A    between atoms: C_8  and  N_12 
REMARK    6  A    between atoms: C_9  and  O_11 
REMARK       I    between atoms: N_12  and  C_13 
REMARK    7  A    between atoms: O_16  and  C_17 
REMARK    8  A    between atoms: C_19  and  N_20 
REMARK    9  A    between atoms: C_23  and  O_24 
REMARK   10  A    between atoms: C_25  and  N_26 
ROOT
HETATM    1  C   UNK N   1       2.973  -4.002  -0.150  0.00  0.00    -0.056 A 
HETATM    2  C   UNK N   1       1.978  -4.249   0.804  0.00  0.00     0.010 A 
HETATM    3  C   UNK N   1       0.738  -3.607   0.710  0.00  0.00     0.038 A 
HETATM    4  C   UNK N   1       0.506  -2.695  -0.324  0.00  0.00     0.076 A 
HETATM    5  C   UNK N   1       1.479  -2.505  -1.318  0.00  0.00     0.038 A 
HETATM    6  C   UNK N   1       2.702  -3.162  -1.236  0.00  0.00     0.010 A 
ENDROOT
BRANCH   4   7
HETATM    7  O   UNK N   1      -0.578  -1.883  -0.270  0.00  0.00    -0.311 OA
BRANCH   7   8
HETATM    8  C   UNK N   1      -0.427  -0.530  -0.165  0.00  0.00     0.081 A 
HETATM    9  C   UNK N   1      -1.538   0.312  -0.177  0.00  0.00     0.076 A 
HETATM   10  C   UNK N   1      -1.389   1.706  -0.027  0.00  0.00     0.141 A 
HETATM   11  C   UNK N   1      -0.088   2.253   0.141  0.00  0.00     0.132 A 
HETATM   12  C   UNK N   1       1.039   1.402   0.158  0.00  0.00     0.141 A 
HETATM   13  C   UNK N   1       0.846   0.032   0.009  0.00  0.00     0.076 A 
BRANCH  10  14
HETATM   14  N   UNK N   1      -2.553   2.537  -0.042  0.00  0.00    -0.113 N 
HETATM   15  O   UNK N   1      -3.634   2.049  -0.175  0.00  0.00    -0.532 OA
HETATM   16  O   UNK N   1      -2.454   3.843   0.095  0.00  0.00    -0.532 OA
ENDBRANCH  10  14
BRANCH  11  17
HETATM   17  O   UNK N   1       0.076   3.580   0.287  0.00  0.00    -0.356 OA
HETATM   18  H   UNK N   1       0.933   3.944   0.389  0.00  0.00     0.218 HD
ENDBRANCH  11  17
BRANCH  12  19
HETATM   19  N   UNK N   1       2.372   1.893   0.326  0.00  0.00    -0.113 N 
HETATM   20  O   UNK N   1       3.292   1.132   0.338  0.00  0.00    -0.532 OA
HETATM   21  O   UNK N   1       2.607   3.180   0.472  0.00  0.00    -0.532 OA
ENDBRANCH  12  19
ENDBRANCH   7   8
ENDBRANCH   4   7
BRANCH   1  22
HETATM   22  C   UNK N   1       4.358  -4.538   0.070  0.00  0.00     0.074 C 
BRANCH  22  23
HETATM   23  C   UNK N   1       5.479  -3.516  -0.220  0.00  0.00     0.186 C 
BRANCH  23  24
HETATM   24  C   UNK N   1       5.196  -2.141   0.347  0.00  0.00     0.163 C 
HETATM   25  O   UNK N   1       5.054  -1.981   1.549  0.00  0.00    -0.648 OA
BRANCH  24  26
HETATM   26  O   UNK N   1       5.110  -1.082  -0.482  0.00  0.00    -0.775 OA
HETATM   27  H   UNK N   1       5.718  -0.662  -1.058  0.00  0.00     0.167 HD
ENDBRANCH  24  26
ENDBRANCH  23  24
BRANCH  23  28
HETATM   28  N   UNK N   1       6.726  -4.025   0.314  0.00  0.00    -0.347 N 
HETATM   29  C   UNK N   1       7.927  -3.428   0.097  0.00  0.00     0.214 C 
HETATM   30  C   UNK N   1       9.154  -4.000   0.714  0.00  0.00     0.117 C 
HETATM   31  O   UNK N   1       8.013  -2.430  -0.603  0.00  0.00    -0.274 OA
HETATM   32  H   UNK N   1       6.702  -4.843   0.862  0.00  0.00     0.163 HD
ENDBRANCH  23  28
ENDBRANCH  22  23
ENDBRANCH   1  22
TORSDOF 10
