MODEL 1
REMARK VINA RESULT:      -4.0      0.000      0.000
REMARK  21 active torsions:
REMARK  status: ('A' for Active; 'I' for Inactive)
REMARK    1  A    between atoms: S_1  and  C_2 
REMARK    2  A    between atoms: C_2  and  C_3 
REMARK    3  A    between atoms: C_3  and  O_4 
REMARK    4  A    between atoms: O_4  and  C_5 
REMARK    5  A    between atoms: C_5  and  C_6 
REMARK    6  A    between atoms: C_6  and  O_7 
REMARK    7  A    between atoms: O_7  and  C_8 
REMARK    8  A    between atoms: C_8  and  C_9 
REMARK    9  A    between atoms: C_9  and  O_10 
REMARK   10  A    between atoms: O_10  and  C_11 
REMARK   11  A    between atoms: C_11  and  C_12 
REMARK   12  A    between atoms: C_12  and  O_13 
REMARK   13  A    between atoms: O_13  and  C_14 
REMARK   14  A    between atoms: C_14  and  C_15 
REMARK   15  A    between atoms: C_15  and  O_16 
REMARK   16  A    between atoms: O_16  and  C_17 
REMARK   17  A    between atoms: C_17  and  C_18 
REMARK   18  A    between atoms: C_18  and  O_19 
REMARK   19  A    between atoms: O_19  and  C_20 
REMARK   20  A    between atoms: C_20  and  C_21 
REMARK   21  A    between atoms: C_21  and  O_22 
ROOT
HETATM    1  C   UNK N   1      34.583  15.367  10.725  0.00  0.00     0.193 C 
ENDROOT
BRANCH   1   2
HETATM    2  O   UNK N   1      34.511  14.506  11.824  0.00  0.00    -0.387 OA
BRANCH   2   3
HETATM    3  C   UNK N   1      35.815  14.430  12.325  0.00  0.00     0.193 C 
BRANCH   3   4
HETATM    4  C   UNK N   1      35.812  13.714  13.669  0.00  0.00     0.193 C 
BRANCH   4   5
HETATM    5  O   UNK N   1      36.659  14.378  14.565  0.00  0.00    -0.387 OA
BRANCH   5   6
HETATM    6  C   UNK N   1      36.327  13.882  15.830  0.00  0.00     0.193 C 
BRANCH   6   7
HETATM    7  C   UNK N   1      35.720  12.494  15.701  0.00  0.00     0.193 C 
BRANCH   7   8
HETATM    8  O   UNK N   1      35.112  12.133  16.906  0.00  0.00    -0.388 OA
BRANCH   8   9
HETATM    9  C   UNK N   1      35.447  10.791  17.100  0.00  0.00     0.177 C 
BRANCH   9  10
HETATM   10  C   UNK N   1      34.967  10.345  18.468  0.00  0.00     0.097 C 
BRANCH  10  11
HETATM   11  S   UNK N   1      35.585  11.483  19.740  0.00  0.00    -0.180 SA
HETATM   12  H   UNK N   1      35.669  11.092  21.039  0.00  0.00     0.101 HD
ENDBRANCH  10  11
ENDBRANCH   9  10
ENDBRANCH   8   9
ENDBRANCH   7   8
ENDBRANCH   6   7
ENDBRANCH   5   6
ENDBRANCH   4   5
ENDBRANCH   3   4
ENDBRANCH   2   3
ENDBRANCH   1   2
BRANCH   1  13
HETATM   13  C   UNK N   1      35.353  16.625  11.101  0.00  0.00     0.193 C 
BRANCH  13  14
HETATM   14  O   UNK N   1      35.494  17.444   9.979  0.00  0.00    -0.387 OA
BRANCH  14  15
HETATM   15  C   UNK N   1      34.523  17.003   9.078  0.00  0.00     0.193 C 
BRANCH  15  16
HETATM   16  C   UNK N   1      34.109  18.144   8.165  0.00  0.00     0.193 C 
BRANCH  16  17
HETATM   17  O   UNK N   1      34.524  17.872   6.862  0.00  0.00    -0.387 OA
BRANCH  17  18
HETATM   18  C   UNK N   1      33.367  17.513   6.171  0.00  0.00     0.193 C 
BRANCH  18  19
HETATM   19  C   UNK N   1      33.739  16.665   4.966  0.00  0.00     0.193 C 
BRANCH  19  20
HETATM   20  O   UNK N   1      33.908  15.334   5.355  0.00  0.00    -0.387 OA
BRANCH  20  21
HETATM   21  C   UNK N   1      33.376  14.579   4.307  0.00  0.00     0.193 C 
BRANCH  21  22
HETATM   22  C   UNK N   1      33.455  15.370   3.014  0.00  0.00     0.190 C 
BRANCH  22  23
HETATM   23  O   UNK N   1      33.916  14.545   1.990  0.00  0.00    -0.399 OA
HETATM   24  H   UNK N   1      34.133  14.880   1.105  0.00  0.00     0.209 HD
ENDBRANCH  22  23
ENDBRANCH  21  22
ENDBRANCH  20  21
ENDBRANCH  19  20
ENDBRANCH  18  19
ENDBRANCH  17  18
ENDBRANCH  16  17
ENDBRANCH  15  16
ENDBRANCH  14  15
ENDBRANCH  13  14
ENDBRANCH   1  13
TORSDOF 21
ENDMDL
MODEL 2
REMARK VINA RESULT:      -4.0      4.734     10.107
REMARK  21 active torsions:
REMARK  status: ('A' for Active; 'I' for Inactive)
REMARK    1  A    between atoms: S_1  and  C_2 
REMARK    2  A    between atoms: C_2  and  C_3 
REMARK    3  A    between atoms: C_3  and  O_4 
REMARK    4  A    between atoms: O_4  and  C_5 
REMARK    5  A    between atoms: C_5  and  C_6 
REMARK    6  A    between atoms: C_6  and  O_7 
REMARK    7  A    between atoms: O_7  and  C_8 
REMARK    8  A    between atoms: C_8  and  C_9 
REMARK    9  A    between atoms: C_9  and  O_10 
REMARK   10  A    between atoms: O_10  and  C_11 
REMARK   11  A    between atoms: C_11  and  C_12 
REMARK   12  A    between atoms: C_12  and  O_13 
REMARK   13  A    between atoms: O_13  and  C_14 
REMARK   14  A    between atoms: C_14  and  C_15 
REMARK   15  A    between atoms: C_15  and  O_16 
REMARK   16  A    between atoms: O_16  and  C_17 
REMARK   17  A    between atoms: C_17  and  C_18 
REMARK   18  A    between atoms: C_18  and  O_19 
REMARK   19  A    between atoms: O_19  and  C_20 
REMARK   20  A    between atoms: C_20  and  C_21 
REMARK   21  A    between atoms: C_21  and  O_22 
ROOT
HETATM    1  C   UNK N   1      34.956  16.696   9.467  0.00  0.00     0.193 C 
ENDROOT
BRANCH   1   2
HETATM    2  O   UNK N   1      34.793  18.032   9.088  0.00  0.00    -0.387 OA
BRANCH   2   3
HETATM    3  C   UNK N   1      33.771  18.026   8.132  0.00  0.00     0.193 C 
BRANCH   3   4
HETATM    4  C   UNK N   1      33.159  16.636   8.036  0.00  0.00     0.193 C 
BRANCH   4   5
HETATM    5  O   UNK N   1      31.814  16.679   8.421  0.00  0.00    -0.387 OA
BRANCH   5   6
HETATM    6  C   UNK N   1      31.086  16.355   7.272  0.00  0.00     0.193 C 
BRANCH   6   7
HETATM    7  C   UNK N   1      30.025  17.413   7.014  0.00  0.00     0.193 C 
BRANCH   7   8
HETATM    8  O   UNK N   1      29.817  17.545   5.638  0.00  0.00    -0.388 OA
BRANCH   8   9
HETATM    9  C   UNK N   1      28.440  17.726   5.490  0.00  0.00     0.177 C 
BRANCH   9  10
HETATM   10  C   UNK N   1      28.171  19.110   4.932  0.00  0.00     0.097 C 
BRANCH  10  11
HETATM   11  S   UNK N   1      27.399  20.148   6.205  0.00  0.00    -0.180 SA
HETATM   12  H   UNK N   1      26.891  21.370   5.890  0.00  0.00     0.101 HD
ENDBRANCH  10  11
ENDBRANCH   9  10
ENDBRANCH   8   9
ENDBRANCH   7   8
ENDBRANCH   6   7
ENDBRANCH   5   6
ENDBRANCH   4   5
ENDBRANCH   3   4
ENDBRANCH   2   3
ENDBRANCH   1   2
BRANCH   1  13
HETATM   13  C   UNK N   1      35.296  16.614  10.948  0.00  0.00     0.193 C 
BRANCH  13  14
HETATM   14  O   UNK N   1      36.355  15.724  11.140  0.00  0.00    -0.387 OA
BRANCH  14  15
HETATM   15  C   UNK N   1      36.250  14.799  10.100  0.00  0.00     0.193 C 
BRANCH  15  16
HETATM   16  C   UNK N   1      36.071  13.402  10.669  0.00  0.00     0.193 C 
BRANCH  16  17
HETATM   17  O   UNK N   1      35.619  13.489  11.986  0.00  0.00    -0.387 OA
BRANCH  17  18
HETATM   18  C   UNK N   1      34.997  12.267  12.246  0.00  0.00     0.193 C 
BRANCH  18  19
HETATM   19  C   UNK N   1      34.746  12.136  13.739  0.00  0.00     0.193 C 
BRANCH  19  20
HETATM   20  O   UNK N   1      34.901  13.377  14.359  0.00  0.00    -0.387 OA
BRANCH  20  21
HETATM   21  C   UNK N   1      35.914  13.187  15.303  0.00  0.00     0.193 C 
BRANCH  21  22
HETATM   22  C   UNK N   1      36.908  14.331  15.225  0.00  0.00     0.190 C 
BRANCH  22  23
HETATM   23  O   UNK N   1      36.789  14.970  13.993  0.00  0.00    -0.399 OA
HETATM   24  H   UNK N   1      37.273  15.783  13.776  0.00  0.00     0.209 HD
ENDBRANCH  22  23
ENDBRANCH  21  22
ENDBRANCH  20  21
ENDBRANCH  19  20
ENDBRANCH  18  19
ENDBRANCH  17  18
ENDBRANCH  16  17
ENDBRANCH  15  16
ENDBRANCH  14  15
ENDBRANCH  13  14
ENDBRANCH   1  13
TORSDOF 21
ENDMDL
MODEL 3
REMARK VINA RESULT:      -4.0      5.281      7.714
REMARK  21 active torsions:
REMARK  status: ('A' for Active; 'I' for Inactive)
REMARK    1  A    between atoms: S_1  and  C_2 
REMARK    2  A    between atoms: C_2  and  C_3 
REMARK    3  A    between atoms: C_3  and  O_4 
REMARK    4  A    between atoms: O_4  and  C_5 
REMARK    5  A    between atoms: C_5  and  C_6 
REMARK    6  A    between atoms: C_6  and  O_7 
REMARK    7  A    between atoms: O_7  and  C_8 
REMARK    8  A    between atoms: C_8  and  C_9 
REMARK    9  A    between atoms: C_9  and  O_10 
REMARK   10  A    between atoms: O_10  and  C_11 
REMARK   11  A    between atoms: C_11  and  C_12 
REMARK   12  A    between atoms: C_12  and  O_13 
REMARK   13  A    between atoms: O_13  and  C_14 
REMARK   14  A    between atoms: C_14  and  C_15 
REMARK   15  A    between atoms: C_15  and  O_16 
REMARK   16  A    between atoms: O_16  and  C_17 
REMARK   17  A    between atoms: C_17  and  C_18 
REMARK   18  A    between atoms: C_18  and  O_19 
REMARK   19  A    between atoms: O_19  and  C_20 
REMARK   20  A    between atoms: C_20  and  C_21 
REMARK   21  A    between atoms: C_21  and  O_22 
ROOT
HETATM    1  C   UNK N   1      33.573  13.813   9.243  0.00  0.00     0.193 C 
ENDROOT
BRANCH   1   2
HETATM    2  O   UNK N   1      33.964  14.503  10.394  0.00  0.00    -0.387 OA
BRANCH   2   3
HETATM    3  C   UNK N   1      35.131  15.189  10.041  0.00  0.00     0.193 C 
BRANCH   3   4
HETATM    4  C   UNK N   1      35.296  16.419  10.923  0.00  0.00     0.193 C 
BRANCH   4   5
HETATM    5  O   UNK N   1      35.415  17.564  10.128  0.00  0.00    -0.387 OA
BRANCH   5   6
HETATM    6  C   UNK N   1      34.900  17.208   8.878  0.00  0.00     0.193 C 
BRANCH   6   7
HETATM    7  C   UNK N   1      34.477  18.453   8.115  0.00  0.00     0.193 C 
BRANCH   7   8
HETATM    8  O   UNK N   1      34.322  18.145   6.761  0.00  0.00    -0.388 OA
BRANCH   8   9
HETATM    9  C   UNK N   1      34.520  16.765   6.672  0.00  0.00     0.177 C 
BRANCH   9  10
HETATM   10  C   UNK N   1      34.077  16.280   5.305  0.00  0.00     0.097 C 
BRANCH  10  11
HETATM   11  S   UNK N   1      34.225  14.473   5.214  0.00  0.00    -0.180 SA
HETATM   12  H   UNK N   1      34.390  13.733   6.343  0.00  0.00     0.101 HD
ENDBRANCH  10  11
ENDBRANCH   9  10
ENDBRANCH   8   9
ENDBRANCH   7   8
ENDBRANCH   6   7
ENDBRANCH   5   6
ENDBRANCH   4   5
ENDBRANCH   3   4
ENDBRANCH   2   3
ENDBRANCH   1   2
BRANCH   1  13
HETATM   13  C   UNK N   1      32.374  14.499   8.607  0.00  0.00     0.193 C 
BRANCH  13  14
HETATM   14  O   UNK N   1      31.719  15.284   9.559  0.00  0.00    -0.387 OA
BRANCH  14  15
HETATM   15  C   UNK N   1      31.388  16.465   8.892  0.00  0.00     0.193 C 
BRANCH  15  16
HETATM   16  C   UNK N   1      31.043  16.162   7.444  0.00  0.00     0.193 C 
BRANCH  16  17
HETATM   17  O   UNK N   1      30.167  17.133   6.961  0.00  0.00    -0.387 OA
BRANCH  17  18
HETATM   18  C   UNK N   1      29.185  17.270   7.943  0.00  0.00     0.193 C 
BRANCH  18  19
HETATM   19  C   UNK N   1      28.004  18.038   7.374  0.00  0.00     0.193 C 
BRANCH  19  20
HETATM   20  O   UNK N   1      28.309  19.398   7.304  0.00  0.00    -0.387 OA
BRANCH  20  21
HETATM   21  C   UNK N   1      27.485  19.904   6.296  0.00  0.00     0.193 C 
BRANCH  21  22
HETATM   22  C   UNK N   1      27.694  19.113   5.018  0.00  0.00     0.190 C 
BRANCH  22  23
HETATM   23  O   UNK N   1      28.434  19.873   4.114  0.00  0.00    -0.399 OA
HETATM   24  H   UNK N   1      28.801  20.743   4.340  0.00  0.00     0.209 HD
ENDBRANCH  22  23
ENDBRANCH  21  22
ENDBRANCH  20  21
ENDBRANCH  19  20
ENDBRANCH  18  19
ENDBRANCH  17  18
ENDBRANCH  16  17
ENDBRANCH  15  16
ENDBRANCH  14  15
ENDBRANCH  13  14
ENDBRANCH   1  13
TORSDOF 21
ENDMDL
MODEL 4
REMARK VINA RESULT:      -3.9      2.085      2.231
REMARK  21 active torsions:
REMARK  status: ('A' for Active; 'I' for Inactive)
REMARK    1  A    between atoms: S_1  and  C_2 
REMARK    2  A    between atoms: C_2  and  C_3 
REMARK    3  A    between atoms: C_3  and  O_4 
REMARK    4  A    between atoms: O_4  and  C_5 
REMARK    5  A    between atoms: C_5  and  C_6 
REMARK    6  A    between atoms: C_6  and  O_7 
REMARK    7  A    between atoms: O_7  and  C_8 
REMARK    8  A    between atoms: C_8  and  C_9 
REMARK    9  A    between atoms: C_9  and  O_10 
REMARK   10  A    between atoms: O_10  and  C_11 
REMARK   11  A    between atoms: C_11  and  C_12 
REMARK   12  A    between atoms: C_12  and  O_13 
REMARK   13  A    between atoms: O_13  and  C_14 
REMARK   14  A    between atoms: C_14  and  C_15 
REMARK   15  A    between atoms: C_15  and  O_16 
REMARK   16  A    between atoms: O_16  and  C_17 
REMARK   17  A    between atoms: C_17  and  C_18 
REMARK   18  A    between atoms: C_18  and  O_19 
REMARK   19  A    between atoms: O_19  and  C_20 
REMARK   20  A    between atoms: C_20  and  C_21 
REMARK   21  A    between atoms: C_21  and  O_22 
ROOT
HETATM    1  C   UNK N   1      34.741  15.183  10.630  0.00  0.00     0.193 C 
ENDROOT
BRANCH   1   2
HETATM    2  O   UNK N   1      34.474  14.446  11.787  0.00  0.00    -0.387 OA
BRANCH   2   3
HETATM    3  C   UNK N   1      35.691  14.374  12.473  0.00  0.00     0.193 C 
BRANCH   3   4
HETATM    4  C   UNK N   1      35.703  13.152  13.380  0.00  0.00     0.193 C 
BRANCH   4   5
HETATM    5  O   UNK N   1      34.444  12.983  13.969  0.00  0.00    -0.387 OA
BRANCH   5   6
HETATM    6  C   UNK N   1      34.382  11.636  14.338  0.00  0.00     0.193 C 
BRANCH   6   7
HETATM    7  C   UNK N   1      34.946  11.454  15.738  0.00  0.00     0.193 C 
BRANCH   7   8
HETATM    8  O   UNK N   1      35.968  10.501  15.713  0.00  0.00    -0.388 OA
BRANCH   8   9
HETATM    9  C   UNK N   1      35.332   9.286  15.446  0.00  0.00     0.177 C 
BRANCH   9  10
HETATM   10  C   UNK N   1      35.668   8.290  16.540  0.00  0.00     0.097 C 
BRANCH  10  11
HETATM   11  S   UNK N   1      37.460   8.277  16.832  0.00  0.00    -0.180 SA
HETATM   12  H   UNK N   1      38.058   7.210  17.423  0.00  0.00     0.101 HD
ENDBRANCH  10  11
ENDBRANCH   9  10
ENDBRANCH   8   9
ENDBRANCH   7   8
ENDBRANCH   6   7
ENDBRANCH   5   6
ENDBRANCH   4   5
ENDBRANCH   3   4
ENDBRANCH   2   3
ENDBRANCH   1   2
BRANCH   1  13
HETATM   13  C   UNK N   1      35.236  16.572  11.001  0.00  0.00     0.193 C 
BRANCH  13  14
HETATM   14  O   UNK N   1      35.432  17.329   9.843  0.00  0.00    -0.387 OA
BRANCH  14  15
HETATM   15  C   UNK N   1      34.334  17.044   9.030  0.00  0.00     0.193 C 
BRANCH  15  16
HETATM   16  C   UNK N   1      34.028  18.237   8.140  0.00  0.00     0.193 C 
BRANCH  16  17
HETATM   17  O   UNK N   1      34.519  17.998   6.856  0.00  0.00    -0.387 OA
BRANCH  17  18
HETATM   18  C   UNK N   1      33.905  16.817   6.438  0.00  0.00     0.193 C 
BRANCH  18  19
HETATM   19  C   UNK N   1      32.729  17.151   5.535  0.00  0.00     0.193 C 
BRANCH  19  20
HETATM   20  O   UNK N   1      33.183  17.791   4.380  0.00  0.00    -0.387 OA
BRANCH  20  21
HETATM   21  C   UNK N   1      32.404  17.266   3.345  0.00  0.00     0.193 C 
BRANCH  21  22
HETATM   22  C   UNK N   1      31.088  16.755   3.901  0.00  0.00     0.190 C 
BRANCH  22  23
HETATM   23  O   UNK N   1      30.090  16.890   2.938  0.00  0.00    -0.399 OA
HETATM   24  H   UNK N   1      29.308  17.449   3.070  0.00  0.00     0.209 HD
ENDBRANCH  22  23
ENDBRANCH  21  22
ENDBRANCH  20  21
ENDBRANCH  19  20
ENDBRANCH  18  19
ENDBRANCH  17  18
ENDBRANCH  16  17
ENDBRANCH  15  16
ENDBRANCH  14  15
ENDBRANCH  13  14
ENDBRANCH   1  13
TORSDOF 21
ENDMDL
MODEL 5
REMARK VINA RESULT:      -3.9      9.919     12.501
REMARK  21 active torsions:
REMARK  status: ('A' for Active; 'I' for Inactive)
REMARK    1  A    between atoms: S_1  and  C_2 
REMARK    2  A    between atoms: C_2  and  C_3 
REMARK    3  A    between atoms: C_3  and  O_4 
REMARK    4  A    between atoms: O_4  and  C_5 
REMARK    5  A    between atoms: C_5  and  C_6 
REMARK    6  A    between atoms: C_6  and  O_7 
REMARK    7  A    between atoms: O_7  and  C_8 
REMARK    8  A    between atoms: C_8  and  C_9 
REMARK    9  A    between atoms: C_9  and  O_10 
REMARK   10  A    between atoms: O_10  and  C_11 
REMARK   11  A    between atoms: C_11  and  C_12 
REMARK   12  A    between atoms: C_12  and  O_13 
REMARK   13  A    between atoms: O_13  and  C_14 
REMARK   14  A    between atoms: C_14  and  C_15 
REMARK   15  A    between atoms: C_15  and  O_16 
REMARK   16  A    between atoms: O_16  and  C_17 
REMARK   17  A    between atoms: C_17  and  C_18 
REMARK   18  A    between atoms: C_18  and  O_19 
REMARK   19  A    between atoms: O_19  and  C_20 
REMARK   20  A    between atoms: C_20  and  C_21 
REMARK   21  A    between atoms: C_21  and  O_22 
ROOT
HETATM    1  C   UNK N   1      27.332  19.496   3.907  0.00  0.00     0.193 C 
ENDROOT
BRANCH   1   2
HETATM    2  O   UNK N   1      28.116  20.198   4.827  0.00  0.00    -0.387 OA
BRANCH   2   3
HETATM    3  C   UNK N   1      27.595  19.874   6.085  0.00  0.00     0.193 C 
BRANCH   3   4
HETATM    4  C   UNK N   1      27.684  18.371   6.311  0.00  0.00     0.193 C 
BRANCH   4   5
HETATM    5  O   UNK N   1      28.400  18.107   7.483  0.00  0.00    -0.387 OA
BRANCH   5   6
HETATM    6  C   UNK N   1      29.564  17.450   7.071  0.00  0.00     0.193 C 
BRANCH   6   7
HETATM    7  C   UNK N   1      30.644  17.591   8.132  0.00  0.00     0.193 C 
BRANCH   7   8
HETATM    8  O   UNK N   1      31.904  17.466   7.540  0.00  0.00    -0.388 OA
BRANCH   8   9
HETATM    9  C   UNK N   1      32.697  16.825   8.495  0.00  0.00     0.177 C 
BRANCH   9  10
HETATM   10  C   UNK N   1      33.181  15.499   7.939  0.00  0.00     0.097 C 
BRANCH  10  11
HETATM   11  S   UNK N   1      34.597  15.772   6.838  0.00  0.00    -0.180 SA
HETATM   12  H   UNK N   1      35.869  15.707   7.314  0.00  0.00     0.101 HD
ENDBRANCH  10  11
ENDBRANCH   9  10
ENDBRANCH   8   9
ENDBRANCH   7   8
ENDBRANCH   6   7
ENDBRANCH   5   6
ENDBRANCH   4   5
ENDBRANCH   3   4
ENDBRANCH   2   3
ENDBRANCH   1   2
BRANCH   1  13
HETATM   13  C   UNK N   1      26.284  20.420   3.305  0.00  0.00     0.193 C 
BRANCH  13  14
HETATM   14  O   UNK N   1      25.018  20.071   3.779  0.00  0.00    -0.387 OA
BRANCH  14  15
HETATM   15  C   UNK N   1      24.121  20.797   2.993  0.00  0.00     0.193 C 
BRANCH  15  16
HETATM   16  C   UNK N   1      22.775  20.092   2.962  0.00  0.00     0.193 C 
BRANCH  16  17
HETATM   17  O   UNK N   1      21.790  20.987   2.546  0.00  0.00    -0.387 OA
BRANCH  17  18
HETATM   18  C   UNK N   1      20.612  20.553   3.155  0.00  0.00     0.193 C 
BRANCH  18  19
HETATM   19  C   UNK N   1      20.610  19.035   3.229  0.00  0.00     0.193 C 
BRANCH  19  20
HETATM   20  O   UNK N   1      19.749  18.514   2.262  0.00  0.00    -0.387 OA
BRANCH  20  21
HETATM   21  C   UNK N   1      19.996  17.138   2.259  0.00  0.00     0.193 C 
BRANCH  21  22
HETATM   22  C   UNK N   1      20.241  16.664   0.839  0.00  0.00     0.190 C 
BRANCH  22  23
HETATM   23  O   UNK N   1      20.306  17.763  -0.015  0.00  0.00    -0.399 OA
HETATM   24  H   UNK N   1      19.633  18.462  -0.020  0.00  0.00     0.209 HD
ENDBRANCH  22  23
ENDBRANCH  21  22
ENDBRANCH  20  21
ENDBRANCH  19  20
ENDBRANCH  18  19
ENDBRANCH  17  18
ENDBRANCH  16  17
ENDBRANCH  15  16
ENDBRANCH  14  15
ENDBRANCH  13  14
ENDBRANCH   1  13
TORSDOF 21
ENDMDL
MODEL 6
REMARK VINA RESULT:      -3.9      2.785      4.371
REMARK  21 active torsions:
REMARK  status: ('A' for Active; 'I' for Inactive)
REMARK    1  A    between atoms: S_1  and  C_2 
REMARK    2  A    between atoms: C_2  and  C_3 
REMARK    3  A    between atoms: C_3  and  O_4 
REMARK    4  A    between atoms: O_4  and  C_5 
REMARK    5  A    between atoms: C_5  and  C_6 
REMARK    6  A    between atoms: C_6  and  O_7 
REMARK    7  A    between atoms: O_7  and  C_8 
REMARK    8  A    between atoms: C_8  and  C_9 
REMARK    9  A    between atoms: C_9  and  O_10 
REMARK   10  A    between atoms: O_10  and  C_11 
REMARK   11  A    between atoms: C_11  and  C_12 
REMARK   12  A    between atoms: C_12  and  O_13 
REMARK   13  A    between atoms: O_13  and  C_14 
REMARK   14  A    between atoms: C_14  and  C_15 
REMARK   15  A    between atoms: C_15  and  O_16 
REMARK   16  A    between atoms: O_16  and  C_17 
REMARK   17  A    between atoms: C_17  and  C_18 
REMARK   18  A    between atoms: C_18  and  O_19 
REMARK   19  A    between atoms: O_19  and  C_20 
REMARK   20  A    between atoms: C_20  and  C_21 
REMARK   21  A    between atoms: C_21  and  O_22 
ROOT
HETATM    1  C   UNK N   1      35.266  14.836   7.902  0.00  0.00     0.193 C 
ENDROOT
BRANCH   1   2
HETATM    2  O   UNK N   1      34.720  14.927   9.186  0.00  0.00    -0.387 OA
BRANCH   2   3
HETATM    3  C   UNK N   1      35.428  15.954   9.821  0.00  0.00     0.193 C 
BRANCH   3   4
HETATM    4  C   UNK N   1      35.201  15.886  11.324  0.00  0.00     0.193 C 
BRANCH   4   5
HETATM    5  O   UNK N   1      34.516  14.710  11.651  0.00  0.00    -0.387 OA
BRANCH   5   6
HETATM    6  C   UNK N   1      35.303  14.075  12.616  0.00  0.00     0.193 C 
BRANCH   6   7
HETATM    7  C   UNK N   1      34.862  12.628  12.776  0.00  0.00     0.193 C 
BRANCH   7   8
HETATM    8  O   UNK N   1      34.499  12.391  14.105  0.00  0.00    -0.388 OA
BRANCH   8   9
HETATM    9  C   UNK N   1      35.473  13.034  14.873  0.00  0.00     0.177 C 
BRANCH   9  10
HETATM   10  C   UNK N   1      35.645  12.296  16.187  0.00  0.00     0.097 C 
BRANCH  10  11
HETATM   11  S   UNK N   1      35.110  13.353  17.562  0.00  0.00    -0.180 SA
HETATM   12  H   UNK N   1      34.601  14.592  17.327  0.00  0.00     0.101 HD
ENDBRANCH  10  11
ENDBRANCH   9  10
ENDBRANCH   8   9
ENDBRANCH   7   8
ENDBRANCH   6   7
ENDBRANCH   5   6
ENDBRANCH   4   5
ENDBRANCH   3   4
ENDBRANCH   2   3
ENDBRANCH   1   2
BRANCH   1  13
HETATM   13  C   UNK N   1      34.325  15.472   6.891  0.00  0.00     0.193 C 
BRANCH  13  14
HETATM   14  O   UNK N   1      34.851  16.691   6.457  0.00  0.00    -0.387 OA
BRANCH  14  15
HETATM   15  C   UNK N   1      33.752  17.543   6.338  0.00  0.00     0.193 C 
BRANCH  15  16
HETATM   16  C   UNK N   1      32.944  17.174   5.106  0.00  0.00     0.193 C 
BRANCH  16  17
HETATM   17  O   UNK N   1      31.615  17.557   5.289  0.00  0.00    -0.387 OA
BRANCH  17  18
HETATM   18  C   UNK N   1      30.887  16.367   5.327  0.00  0.00     0.193 C 
BRANCH  18  19
HETATM   19  C   UNK N   1      30.398  16.119   6.743  0.00  0.00     0.193 C 
BRANCH  19  20
HETATM   20  O   UNK N   1      30.081  17.332   7.357  0.00  0.00    -0.387 OA
BRANCH  20  21
HETATM   21  C   UNK N   1      30.407  17.154   8.704  0.00  0.00     0.193 C 
BRANCH  21  22
HETATM   22  C   UNK N   1      29.301  17.714   9.578  0.00  0.00     0.190 C 
BRANCH  22  23
HETATM   23  O   UNK N   1      29.786  18.797  10.309  0.00  0.00    -0.399 OA
HETATM   24  H   UNK N   1      29.318  19.645  10.361  0.00  0.00     0.209 HD
ENDBRANCH  22  23
ENDBRANCH  21  22
ENDBRANCH  20  21
ENDBRANCH  19  20
ENDBRANCH  18  19
ENDBRANCH  17  18
ENDBRANCH  16  17
ENDBRANCH  15  16
ENDBRANCH  14  15
ENDBRANCH  13  14
ENDBRANCH   1  13
TORSDOF 21
ENDMDL
MODEL 7
REMARK VINA RESULT:      -3.9     12.591     16.426
REMARK  21 active torsions:
REMARK  status: ('A' for Active; 'I' for Inactive)
REMARK    1  A    between atoms: S_1  and  C_2 
REMARK    2  A    between atoms: C_2  and  C_3 
REMARK    3  A    between atoms: C_3  and  O_4 
REMARK    4  A    between atoms: O_4  and  C_5 
REMARK    5  A    between atoms: C_5  and  C_6 
REMARK    6  A    between atoms: C_6  and  O_7 
REMARK    7  A    between atoms: O_7  and  C_8 
REMARK    8  A    between atoms: C_8  and  C_9 
REMARK    9  A    between atoms: C_9  and  O_10 
REMARK   10  A    between atoms: O_10  and  C_11 
REMARK   11  A    between atoms: C_11  and  C_12 
REMARK   12  A    between atoms: C_12  and  O_13 
REMARK   13  A    between atoms: O_13  and  C_14 
REMARK   14  A    between atoms: C_14  and  C_15 
REMARK   15  A    between atoms: C_15  and  O_16 
REMARK   16  A    between atoms: O_16  and  C_17 
REMARK   17  A    between atoms: C_17  and  C_18 
REMARK   18  A    between atoms: C_18  and  O_19 
REMARK   19  A    between atoms: O_19  and  C_20 
REMARK   20  A    between atoms: C_20  and  C_21 
REMARK   21  A    between atoms: C_21  and  O_22 
ROOT
HETATM    1  C   UNK N   1      21.295  16.999   5.868  0.00  0.00     0.193 C 
ENDROOT
BRANCH   1   2
HETATM    2  O   UNK N   1      21.126  16.656   4.523  0.00  0.00    -0.387 OA
BRANCH   2   3
HETATM    3  C   UNK N   1      21.987  17.500   3.812  0.00  0.00     0.193 C 
BRANCH   3   4
HETATM    4  C   UNK N   1      21.186  18.598   3.127  0.00  0.00     0.193 C 
BRANCH   4   5
HETATM    5  O   UNK N   1      21.499  19.840   3.691  0.00  0.00    -0.387 OA
BRANCH   5   6
HETATM    6  C   UNK N   1      22.139  20.561   2.678  0.00  0.00     0.193 C 
BRANCH   6   7
HETATM    7  C   UNK N   1      23.550  20.926   3.112  0.00  0.00     0.193 C 
BRANCH   7   8
HETATM    8  O   UNK N   1      24.449  20.629   2.084  0.00  0.00    -0.388 OA
BRANCH   8   9
HETATM    9  C   UNK N   1      25.577  20.107   2.722  0.00  0.00     0.177 C 
BRANCH   9  10
HETATM   10  C   UNK N   1      25.426  20.268   4.223  0.00  0.00     0.097 C 
BRANCH  10  11
HETATM   11  S   UNK N   1      27.062  20.412   4.995  0.00  0.00    -0.180 SA
HETATM   12  H   UNK N   1      28.132  20.847   4.278  0.00  0.00     0.101 HD
ENDBRANCH  10  11
ENDBRANCH   9  10
ENDBRANCH   8   9
ENDBRANCH   7   8
ENDBRANCH   6   7
ENDBRANCH   5   6
ENDBRANCH   4   5
ENDBRANCH   3   4
ENDBRANCH   2   3
ENDBRANCH   1   2
BRANCH   1  13
HETATM   13  C   UNK N   1      19.955  16.962   6.587  0.00  0.00     0.193 C 
BRANCH  13  14
HETATM   14  O   UNK N   1      20.100  17.463   7.882  0.00  0.00    -0.387 OA
BRANCH  14  15
HETATM   15  C   UNK N   1      19.628  16.451   8.720  0.00  0.00     0.193 C 
BRANCH  15  16
HETATM   16  C   UNK N   1      20.690  15.378   8.883  0.00  0.00     0.193 C 
BRANCH  16  17
HETATM   17  O   UNK N   1      20.078  14.151   9.139  0.00  0.00    -0.387 OA
BRANCH  17  18
HETATM   18  C   UNK N   1      21.020  13.185   8.782  0.00  0.00     0.193 C 
BRANCH  18  19
HETATM   19  C   UNK N   1      22.149  13.179   9.799  0.00  0.00     0.193 C 
BRANCH  19  20
HETATM   20  O   UNK N   1      22.212  11.936  10.432  0.00  0.00    -0.387 OA
BRANCH  20  21
HETATM   21  C   UNK N   1      23.153  12.097  11.453  0.00  0.00     0.193 C 
BRANCH  21  22
HETATM   22  C   UNK N   1      24.553  11.947  10.889  0.00  0.00     0.190 C 
BRANCH  22  23
HETATM   23  O   UNK N   1      25.424  12.796  11.570  0.00  0.00    -0.399 OA
HETATM   24  H   UNK N   1      25.541  13.729  11.328  0.00  0.00     0.209 HD
ENDBRANCH  22  23
ENDBRANCH  21  22
ENDBRANCH  20  21
ENDBRANCH  19  20
ENDBRANCH  18  19
ENDBRANCH  17  18
ENDBRANCH  16  17
ENDBRANCH  15  16
ENDBRANCH  14  15
ENDBRANCH  13  14
ENDBRANCH   1  13
TORSDOF 21
ENDMDL
MODEL 8
REMARK VINA RESULT:      -3.8     17.120     20.038
REMARK  21 active torsions:
REMARK  status: ('A' for Active; 'I' for Inactive)
REMARK    1  A    between atoms: S_1  and  C_2 
REMARK    2  A    between atoms: C_2  and  C_3 
REMARK    3  A    between atoms: C_3  and  O_4 
REMARK    4  A    between atoms: O_4  and  C_5 
REMARK    5  A    between atoms: C_5  and  C_6 
REMARK    6  A    between atoms: C_6  and  O_7 
REMARK    7  A    between atoms: O_7  and  C_8 
REMARK    8  A    between atoms: C_8  and  C_9 
REMARK    9  A    between atoms: C_9  and  O_10 
REMARK   10  A    between atoms: O_10  and  C_11 
REMARK   11  A    between atoms: C_11  and  C_12 
REMARK   12  A    between atoms: C_12  and  O_13 
REMARK   13  A    between atoms: O_13  and  C_14 
REMARK   14  A    between atoms: C_14  and  C_15 
REMARK   15  A    between atoms: C_15  and  O_16 
REMARK   16  A    between atoms: O_16  and  C_17 
REMARK   17  A    between atoms: C_17  and  C_18 
REMARK   18  A    between atoms: C_18  and  O_19 
REMARK   19  A    between atoms: O_19  and  C_20 
REMARK   20  A    between atoms: C_20  and  C_21 
REMARK   21  A    between atoms: C_21  and  O_22 
ROOT
HETATM    1  C   UNK N   1      27.235  25.050  -3.639  0.00  0.00     0.193 C 
ENDROOT
BRANCH   1   2
HETATM    2  O   UNK N   1      26.961  24.095  -2.656  0.00  0.00    -0.387 OA
BRANCH   2   3
HETATM    3  C   UNK N   1      28.193  23.499  -2.361  0.00  0.00     0.193 C 
BRANCH   3   4
HETATM    4  C   UNK N   1      29.279  24.087  -3.251  0.00  0.00     0.193 C 
BRANCH   4   5
HETATM    5  O   UNK N   1      30.534  23.897  -2.662  0.00  0.00    -0.387 OA
BRANCH   5   6
HETATM    6  C   UNK N   1      31.258  23.115  -3.567  0.00  0.00     0.193 C 
BRANCH   6   7
HETATM    7  C   UNK N   1      31.583  21.766  -2.945  0.00  0.00     0.193 C 
BRANCH   7   8
HETATM    8  O   UNK N   1      30.875  20.760  -3.606  0.00  0.00    -0.388 OA
BRANCH   8   9
HETATM    9  C   UNK N   1      31.768  20.235  -4.543  0.00  0.00     0.177 C 
BRANCH   9  10
HETATM   10  C   UNK N   1      31.098  20.183  -5.903  0.00  0.00     0.097 C 
BRANCH  10  11
HETATM   11  S   UNK N   1      32.068  21.138  -7.104  0.00  0.00    -0.180 SA
HETATM   12  H   UNK N   1      32.448  20.584  -8.286  0.00  0.00     0.101 HD
ENDBRANCH  10  11
ENDBRANCH   9  10
ENDBRANCH   8   9
ENDBRANCH   7   8
ENDBRANCH   6   7
ENDBRANCH   5   6
ENDBRANCH   4   5
ENDBRANCH   3   4
ENDBRANCH   2   3
ENDBRANCH   1   2
BRANCH   1  13
HETATM   13  C   UNK N   1      26.439  26.317  -3.368  0.00  0.00     0.193 C 
BRANCH  13  14
HETATM   14  O   UNK N   1      26.192  26.986  -4.569  0.00  0.00    -0.387 OA
BRANCH  14  15
HETATM   15  C   UNK N   1      26.595  26.100  -5.570  0.00  0.00     0.193 C 
BRANCH  15  16
HETATM   16  C   UNK N   1      25.650  26.197  -6.756  0.00  0.00     0.193 C 
BRANCH  16  17
HETATM   17  O   UNK N   1      25.433  24.925  -7.284  0.00  0.00    -0.387 OA
BRANCH  17  18
HETATM   18  C   UNK N   1      26.609  24.215  -7.039  0.00  0.00     0.193 C 
BRANCH  18  19
HETATM   19  C   UNK N   1      26.372  22.737  -7.298  0.00  0.00     0.193 C 
BRANCH  19  20
HETATM   20  O   UNK N   1      25.191  22.329  -6.675  0.00  0.00    -0.387 OA
BRANCH  20  21
HETATM   21  C   UNK N   1      24.582  21.460  -7.585  0.00  0.00     0.193 C 
BRANCH  21  22
HETATM   22  C   UNK N   1      25.624  20.900  -8.534  0.00  0.00     0.190 C 
BRANCH  22  23
HETATM   23  O   UNK N   1      25.125  20.917  -9.836  0.00  0.00    -0.399 OA
HETATM   24  H   UNK N   1      25.702  20.905 -10.617  0.00  0.00     0.209 HD
ENDBRANCH  22  23
ENDBRANCH  21  22
ENDBRANCH  20  21
ENDBRANCH  19  20
ENDBRANCH  18  19
ENDBRANCH  17  18
ENDBRANCH  16  17
ENDBRANCH  15  16
ENDBRANCH  14  15
ENDBRANCH  13  14
ENDBRANCH   1  13
TORSDOF 21
ENDMDL
MODEL 9
REMARK VINA RESULT:      -3.8      3.031      4.669
REMARK  21 active torsions:
REMARK  status: ('A' for Active; 'I' for Inactive)
REMARK    1  A    between atoms: S_1  and  C_2 
REMARK    2  A    between atoms: C_2  and  C_3 
REMARK    3  A    between atoms: C_3  and  O_4 
REMARK    4  A    between atoms: O_4  and  C_5 
REMARK    5  A    between atoms: C_5  and  C_6 
REMARK    6  A    between atoms: C_6  and  O_7 
REMARK    7  A    between atoms: O_7  and  C_8 
REMARK    8  A    between atoms: C_8  and  C_9 
REMARK    9  A    between atoms: C_9  and  O_10 
REMARK   10  A    between atoms: O_10  and  C_11 
REMARK   11  A    between atoms: C_11  and  C_12 
REMARK   12  A    between atoms: C_12  and  O_13 
REMARK   13  A    between atoms: O_13  and  C_14 
REMARK   14  A    between atoms: C_14  and  C_15 
REMARK   15  A    between atoms: C_15  and  O_16 
REMARK   16  A    between atoms: O_16  and  C_17 
REMARK   17  A    between atoms: C_17  and  C_18 
REMARK   18  A    between atoms: C_18  and  O_19 
REMARK   19  A    between atoms: O_19  and  C_20 
REMARK   20  A    between atoms: C_20  and  C_21 
REMARK   21  A    between atoms: C_21  and  O_22 
ROOT
HETATM    1  C   UNK N   1      35.951  13.773  14.639  0.00  0.00     0.193 C 
ENDROOT
BRANCH   1   2
HETATM    2  O   UNK N   1      34.753  13.094  14.877  0.00  0.00    -0.387 OA
BRANCH   2   3
HETATM    3  C   UNK N   1      34.534  13.198  16.256  0.00  0.00     0.193 C 
BRANCH   3   4
HETATM    4  C   UNK N   1      35.408  12.195  16.995  0.00  0.00     0.193 C 
BRANCH   4   5
HETATM    5  O   UNK N   1      35.250  10.921  16.437  0.00  0.00    -0.387 OA
BRANCH   5   6
HETATM    6  C   UNK N   1      36.485  10.286  16.600  0.00  0.00     0.193 C 
BRANCH   6   7
HETATM    7  C   UNK N   1      37.203  10.196  15.262  0.00  0.00     0.193 C 
BRANCH   7   8
HETATM    8  O   UNK N   1      36.298   9.819  14.267  0.00  0.00    -0.388 OA
BRANCH   8   9
HETATM    9  C   UNK N   1      36.667  10.552  13.137  0.00  0.00     0.177 C 
BRANCH   9  10
HETATM   10  C   UNK N   1      35.831  10.107  11.952  0.00  0.00     0.097 C 
BRANCH  10  11
HETATM   11  S   UNK N   1      34.073  10.399  12.295  0.00  0.00    -0.180 SA
HETATM   12  H   UNK N   1      33.557  10.159  13.530  0.00  0.00     0.101 HD
ENDBRANCH  10  11
ENDBRANCH   9  10
ENDBRANCH   8   9
ENDBRANCH   7   8
ENDBRANCH   6   7
ENDBRANCH   5   6
ENDBRANCH   4   5
ENDBRANCH   3   4
ENDBRANCH   2   3
ENDBRANCH   1   2
BRANCH   1  13
HETATM   13  C   UNK N   1      35.960  14.331  13.223  0.00  0.00     0.193 C 
BRANCH  13  14
HETATM   14  O   UNK N   1      34.740  14.059  12.601  0.00  0.00    -0.387 OA
BRANCH  14  15
HETATM   15  C   UNK N   1      34.833  14.652  11.340  0.00  0.00     0.193 C 
BRANCH  15  16
HETATM   16  C   UNK N   1      35.878  15.754  11.364  0.00  0.00     0.193 C 
BRANCH  16  17
HETATM   17  O   UNK N   1      35.639  16.646  10.319  0.00  0.00    -0.387 OA
BRANCH  17  18
HETATM   18  C   UNK N   1      34.523  16.142   9.649  0.00  0.00     0.193 C 
BRANCH  18  19
HETATM   19  C   UNK N   1      34.522  16.647   8.216  0.00  0.00     0.193 C 
BRANCH  19  20
HETATM   20  O   UNK N   1      33.211  16.744   7.747  0.00  0.00    -0.387 OA
BRANCH  20  21
HETATM   21  C   UNK N   1      32.721  17.938   8.282  0.00  0.00     0.193 C 
BRANCH  21  22
HETATM   22  C   UNK N   1      31.229  17.816   8.529  0.00  0.00     0.190 C 
BRANCH  22  23
HETATM   23  O   UNK N   1      30.979  16.711   9.341  0.00  0.00    -0.399 OA
HETATM   24  H   UNK N   1      31.009  16.757  10.310  0.00  0.00     0.209 HD
ENDBRANCH  22  23
ENDBRANCH  21  22
ENDBRANCH  20  21
ENDBRANCH  19  20
ENDBRANCH  18  19
ENDBRANCH  17  18
ENDBRANCH  16  17
ENDBRANCH  15  16
ENDBRANCH  14  15
ENDBRANCH  13  14
ENDBRANCH   1  13
TORSDOF 21
ENDMDL
