MODEL 1
REMARK VINA RESULT:      -7.8      0.000      0.000
REMARK  5 active torsions:
REMARK  status: ('A' for Active; 'I' for Inactive)
REMARK    1  A    between atoms: N_6  and  C_10 
REMARK    2  A    between atoms: C_17  and  O_18 
REMARK    3  A    between atoms: O_18  and  C_19 
REMARK    4  A    between atoms: C_22  and  C_23 
REMARK    5  A    between atoms: C_26  and  O_28 
ROOT
HETATM    1  C   UNK N   1      24.989  19.045   4.040  0.00  0.00     0.062 A 
HETATM    2  C   UNK N   1      25.687  19.909   4.862  0.00  0.00     0.041 A 
HETATM    3  C   UNK N   1      26.997  19.711   5.237  0.00  0.00    -0.025 A 
HETATM    4  C   UNK N   1      27.491  20.788   6.116  0.00  0.00     0.051 C 
HETATM    5  C   UNK N   1      25.652  17.904   3.566  0.00  0.00     0.041 A 
HETATM    6  C   UNK N   1      26.995  17.659   3.922  0.00  0.00    -0.025 A 
HETATM    7  C   UNK N   1      27.654  16.430   3.388  0.00  0.00     0.051 C 
HETATM    8  C   UNK N   1      27.711  18.552   4.768  0.00  0.00     0.088 A 
ENDROOT
BRANCH   8   9
HETATM    9  O   UNK N   1      29.027  18.220   5.060  0.00  0.00    -0.310 OA
BRANCH   9  10
HETATM   10  C   UNK N   1      29.713  17.704   6.132  0.00  0.00     0.076 A 
HETATM   11  C   UNK N   1      29.260  17.816   7.438  0.00  0.00     0.040 A 
HETATM   12  C   UNK N   1      29.954  17.294   8.517  0.00  0.00     0.040 A 
HETATM   13  C   UNK N   1      31.151  16.630   8.314  0.00  0.00     0.072 A 
HETATM   14  C   UNK N   1      31.664  16.486   7.005  0.00  0.00    -0.019 A 
HETATM   15  C   UNK N   1      30.931  17.029   5.920  0.00  0.00     0.047 A 
BRANCH  13  16
HETATM   16  O   UNK N   1      31.795  16.138   9.385  0.00  0.00    -0.360 OA
HETATM   17  H   UNK N   1      32.719  16.269   9.478  0.00  0.00     0.217 HD
ENDBRANCH  13  16
BRANCH  14  18
HETATM   18  C   UNK N   1      32.971  15.764   6.743  0.00  0.00     0.013 C 
HETATM   19  C   UNK N   1      33.077  14.249   6.671  0.00  0.00     0.015 C 
HETATM   20  C   UNK N   1      34.257  16.547   6.556  0.00  0.00     0.015 C 
ENDBRANCH  14  18
ENDBRANCH   9  10
ENDBRANCH   8   9
BRANCH   1  21
HETATM   21  N   UNK N   1      23.611  19.385   3.731  0.00  0.00    -0.206 N 
HETATM   22  C   UNK N   1      23.234  20.364   2.824  0.00  0.00     0.348 A 
HETATM   23  O   UNK N   1      24.063  21.016   2.217  0.00  0.00    -0.245 OA
HETATM   24  N   UNK N   1      21.901  20.604   2.608  0.00  0.00    -0.273 N 
HETATM   25  C   UNK N   1      20.949  19.886   3.277  0.00  0.00     0.266 A 
HETATM   26  H   UNK N   1      21.628  21.298   1.965  0.00  0.00     0.173 HD
HETATM   27  O   UNK N   1      19.766  20.099   3.083  0.00  0.00    -0.267 OA
HETATM   28  C   UNK N   1      21.338  18.914   4.176  0.00  0.00     0.182 A 
HETATM   29  N   UNK N   1      22.659  18.695   4.374  0.00  0.00    -0.296 N 
ATOM     30  HN  UNK N   1      22.941  17.976   5.039  1.00  0.00     0.187 HD
ENDBRANCH   1  21
TORSDOF 5
ENDMDL
MODEL 2
REMARK VINA RESULT:      -7.7      5.005     10.056
REMARK  5 active torsions:
REMARK  status: ('A' for Active; 'I' for Inactive)
REMARK    1  A    between atoms: N_6  and  C_10 
REMARK    2  A    between atoms: C_17  and  O_18 
REMARK    3  A    between atoms: O_18  and  C_19 
REMARK    4  A    between atoms: C_22  and  C_23 
REMARK    5  A    between atoms: C_26  and  O_28 
ROOT
HETATM    1  C   UNK N   1      33.189  16.477   8.246  0.00  0.00     0.062 A 
HETATM    2  C   UNK N   1      31.878  16.849   8.477  0.00  0.00     0.041 A 
HETATM    3  C   UNK N   1      31.000  17.204   7.477  0.00  0.00    -0.025 A 
HETATM    4  C   UNK N   1      29.669  17.555   8.008  0.00  0.00     0.051 C 
HETATM    5  C   UNK N   1      33.647  16.462   6.921  0.00  0.00     0.041 A 
HETATM    6  C   UNK N   1      32.784  16.818   5.863  0.00  0.00    -0.025 A 
HETATM    7  C   UNK N   1      33.323  16.784   4.471  0.00  0.00     0.051 C 
HETATM    8  C   UNK N   1      31.434  17.200   6.105  0.00  0.00     0.088 A 
ENDROOT
BRANCH   8   9
HETATM    9  O   UNK N   1      30.668  17.532   4.996  0.00  0.00    -0.310 OA
BRANCH   9  10
HETATM   10  C   UNK N   1      29.338  17.491   4.652  0.00  0.00     0.076 A 
HETATM   11  C   UNK N   1      28.675  16.311   4.354  0.00  0.00     0.040 A 
HETATM   12  C   UNK N   1      27.335  16.273   4.009  0.00  0.00     0.040 A 
HETATM   13  C   UNK N   1      26.603  17.446   3.948  0.00  0.00     0.072 A 
HETATM   14  C   UNK N   1      27.225  18.681   4.241  0.00  0.00    -0.019 A 
HETATM   15  C   UNK N   1      28.598  18.689   4.592  0.00  0.00     0.047 A 
BRANCH  13  16
HETATM   16  O   UNK N   1      25.305  17.370   3.609  0.00  0.00    -0.360 OA
HETATM   17  H   UNK N   1      24.740  16.766   4.049  0.00  0.00     0.217 HD
ENDBRANCH  13  16
BRANCH  14  18
HETATM   18  C   UNK N   1      26.456  19.987   4.186  0.00  0.00     0.013 C 
HETATM   19  C   UNK N   1      25.869  20.544   2.898  0.00  0.00     0.015 C 
HETATM   20  C   UNK N   1      26.255  20.814   5.442  0.00  0.00     0.015 C 
ENDBRANCH  14  18
ENDBRANCH   9  10
ENDBRANCH   8   9
BRANCH   1  21
HETATM   21  N   UNK N   1      33.997  16.128   9.401  0.00  0.00    -0.206 N 
HETATM   22  C   UNK N   1      35.001  16.930   9.922  0.00  0.00     0.348 A 
HETATM   23  O   UNK N   1      35.270  18.008   9.424  0.00  0.00    -0.245 OA
HETATM   24  N   UNK N   1      35.704  16.502  11.019  0.00  0.00    -0.273 N 
HETATM   25  C   UNK N   1      35.422  15.295  11.597  0.00  0.00     0.266 A 
HETATM   26  H   UNK N   1      36.418  17.067  11.393  0.00  0.00     0.173 HD
HETATM   27  O   UNK N   1      36.047  14.916  12.570  0.00  0.00    -0.267 OA
HETATM   28  C   UNK N   1      34.420  14.506  11.068  0.00  0.00     0.182 A 
HETATM   29  N   UNK N   1      33.740  14.950   9.985  0.00  0.00    -0.296 N 
ATOM     30  HN  UNK N   1      33.000  14.364   9.598  1.00  0.00     0.187 HD
ENDBRANCH   1  21
TORSDOF 5
ENDMDL
MODEL 3
REMARK VINA RESULT:      -7.5     13.427     17.693
REMARK  5 active torsions:
REMARK  status: ('A' for Active; 'I' for Inactive)
REMARK    1  A    between atoms: N_6  and  C_10 
REMARK    2  A    between atoms: C_17  and  O_18 
REMARK    3  A    between atoms: O_18  and  C_19 
REMARK    4  A    between atoms: C_22  and  C_23 
REMARK    5  A    between atoms: C_26  and  O_28 
ROOT
HETATM    1  C   UNK N   1      35.699  12.615  16.558  0.00  0.00     0.062 A 
HETATM    2  C   UNK N   1      36.089  11.298  16.715  0.00  0.00     0.041 A 
HETATM    3  C   UNK N   1      36.031  10.626  17.916  0.00  0.00    -0.025 A 
HETATM    4  C   UNK N   1      36.509   9.236  17.795  0.00  0.00     0.051 C 
HETATM    5  C   UNK N   1      35.219  13.300  17.683  0.00  0.00     0.041 A 
HETATM    6  C   UNK N   1      35.141  12.653  18.934  0.00  0.00    -0.025 A 
HETATM    7  C   UNK N   1      34.622  13.429  20.099  0.00  0.00     0.051 C 
HETATM    8  C   UNK N   1      35.543  11.296  19.092  0.00  0.00     0.088 A 
ENDROOT
BRANCH   8   9
HETATM    9  O   UNK N   1      35.428  10.752  20.364  0.00  0.00    -0.310 OA
BRANCH   9  10
HETATM   10  C   UNK N   1      34.747   9.711  20.947  0.00  0.00     0.076 A 
HETATM   11  C   UNK N   1      35.042   9.236  22.215  0.00  0.00     0.040 A 
HETATM   12  C   UNK N   1      34.354   8.188  22.800  0.00  0.00     0.040 A 
HETATM   13  C   UNK N   1      33.324   7.567  22.114  0.00  0.00     0.072 A 
HETATM   14  C   UNK N   1      32.977   8.007  20.816  0.00  0.00    -0.019 A 
HETATM   15  C   UNK N   1      33.699   9.084  20.243  0.00  0.00     0.047 A 
BRANCH  13  16
HETATM   16  O   UNK N   1      32.679   6.553  22.714  0.00  0.00    -0.360 OA
HETATM   17  H   UNK N   1      33.024   5.683  22.663  0.00  0.00     0.217 HD
ENDBRANCH  13  16
BRANCH  14  18
HETATM   18  C   UNK N   1      31.855   7.354  20.033  0.00  0.00     0.013 C 
HETATM   19  C   UNK N   1      32.047   6.080  19.225  0.00  0.00     0.015 C 
HETATM   20  C   UNK N   1      30.470   7.972  20.014  0.00  0.00     0.015 C 
ENDBRANCH  14  18
ENDBRANCH   9  10
ENDBRANCH   8   9
BRANCH   1  21
HETATM   21  N   UNK N   1      35.816  13.191  15.230  0.00  0.00    -0.206 N 
HETATM   22  C   UNK N   1      36.689  14.217  14.899  0.00  0.00     0.348 A 
HETATM   23  O   UNK N   1      37.430  14.708  15.730  0.00  0.00    -0.245 OA
HETATM   24  N   UNK N   1      36.718  14.688  13.611  0.00  0.00    -0.273 N 
HETATM   25  C   UNK N   1      35.896  14.153  12.658  0.00  0.00     0.266 A 
HETATM   26  H   UNK N   1      37.335  15.416  13.371  0.00  0.00     0.173 HD
HETATM   27  O   UNK N   1      35.923  14.572  11.516  0.00  0.00    -0.267 OA
HETATM   28  C   UNK N   1      35.032  13.133  13.001  0.00  0.00     0.182 A 
HETATM   29  N   UNK N   1      35.021  12.685  14.278  0.00  0.00    -0.296 N 
ATOM     30  HN  UNK N   1      34.381  11.930  14.526  1.00  0.00     0.187 HD
ENDBRANCH   1  21
TORSDOF 5
ENDMDL
MODEL 4
REMARK VINA RESULT:      -7.5      1.561      1.953
REMARK  5 active torsions:
REMARK  status: ('A' for Active; 'I' for Inactive)
REMARK    1  A    between atoms: N_6  and  C_10 
REMARK    2  A    between atoms: C_17  and  O_18 
REMARK    3  A    between atoms: O_18  and  C_19 
REMARK    4  A    between atoms: C_22  and  C_23 
REMARK    5  A    between atoms: C_26  and  O_28 
ROOT
HETATM    1  C   UNK N   1      25.168  18.764   4.303  0.00  0.00     0.062 A 
HETATM    2  C   UNK N   1      25.881  19.522   5.214  0.00  0.00     0.041 A 
HETATM    3  C   UNK N   1      27.033  19.087   5.829  0.00  0.00    -0.025 A 
HETATM    4  C   UNK N   1      27.584  20.097   6.752  0.00  0.00     0.051 C 
HETATM    5  C   UNK N   1      25.648  17.484   3.991  0.00  0.00     0.041 A 
HETATM    6  C   UNK N   1      26.824  16.995   4.596  0.00  0.00    -0.025 A 
HETATM    7  C   UNK N   1      27.291  15.625   4.227  0.00  0.00     0.051 C 
HETATM    8  C   UNK N   1      27.556  17.778   5.533  0.00  0.00     0.088 A 
ENDROOT
BRANCH   8   9
HETATM    9  O   UNK N   1      28.700  17.206   6.071  0.00  0.00    -0.310 OA
BRANCH   9  10
HETATM   10  C   UNK N   1      30.054  17.283   5.850  0.00  0.00     0.076 A 
HETATM   11  C   UNK N   1      30.602  17.419   4.584  0.00  0.00     0.040 A 
HETATM   12  C   UNK N   1      31.967  17.497   4.365  0.00  0.00     0.040 A 
HETATM   13  C   UNK N   1      32.844  17.437   5.433  0.00  0.00     0.072 A 
HETATM   14  C   UNK N   1      32.344  17.297   6.748  0.00  0.00    -0.019 A 
HETATM   15  C   UNK N   1      30.942  17.221   6.942  0.00  0.00     0.047 A 
BRANCH  13  16
HETATM   16  O   UNK N   1      34.161  17.514   5.181  0.00  0.00    -0.360 OA
HETATM   17  H   UNK N   1      34.589  16.828   4.707  0.00  0.00     0.217 HD
ENDBRANCH  13  16
BRANCH  14  18
HETATM   18  C   UNK N   1      33.273  17.228   7.944  0.00  0.00     0.013 C 
HETATM   19  C   UNK N   1      33.305  16.042   8.896  0.00  0.00     0.015 C 
HETATM   20  C   UNK N   1      34.216  18.376   8.253  0.00  0.00     0.015 C 
ENDBRANCH  14  18
ENDBRANCH   9  10
ENDBRANCH   8   9
BRANCH   1  21
HETATM   21  N   UNK N   1      23.969  19.355   3.735  0.00  0.00    -0.206 N 
HETATM   22  C   UNK N   1      23.971  20.371   2.792  0.00  0.00     0.348 A 
HETATM   23  O   UNK N   1      25.013  20.841   2.372  0.00  0.00    -0.245 OA
HETATM   24  N   UNK N   1      22.778  20.857   2.323  0.00  0.00    -0.273 N 
HETATM   25  C   UNK N   1      21.594  20.348   2.778  0.00  0.00     0.266 A 
HETATM   26  H   UNK N   1      22.774  21.578   1.653  0.00  0.00     0.173 HD
HETATM   27  O   UNK N   1      20.535  20.780   2.360  0.00  0.00    -0.267 OA
HETATM   28  C   UNK N   1      21.605  19.336   3.717  0.00  0.00     0.182 A 
HETATM   29  N   UNK N   1      22.796  18.873   4.166  0.00  0.00    -0.296 N 
ATOM     30  HN  UNK N   1      22.799  18.126   4.860  1.00  0.00     0.187 HD
ENDBRANCH   1  21
TORSDOF 5
ENDMDL
MODEL 5
REMARK VINA RESULT:      -7.4     12.536     16.744
REMARK  5 active torsions:
REMARK  status: ('A' for Active; 'I' for Inactive)
REMARK    1  A    between atoms: N_6  and  C_10 
REMARK    2  A    between atoms: C_17  and  O_18 
REMARK    3  A    between atoms: O_18  and  C_19 
REMARK    4  A    between atoms: C_22  and  C_23 
REMARK    5  A    between atoms: C_26  and  O_28 
ROOT
HETATM    1  C   UNK N   1      35.736  12.581  15.244  0.00  0.00     0.062 A 
HETATM    2  C   UNK N   1      35.427  13.188  16.447  0.00  0.00     0.041 A 
HETATM    3  C   UNK N   1      35.392  12.518  17.650  0.00  0.00    -0.025 A 
HETATM    4  C   UNK N   1      35.034  13.409  18.769  0.00  0.00     0.051 C 
HETATM    5  C   UNK N   1      36.029  11.210  15.252  0.00  0.00     0.041 A 
HETATM    6  C   UNK N   1      36.006  10.481  16.460  0.00  0.00    -0.025 A 
HETATM    7  C   UNK N   1      36.327   9.024  16.413  0.00  0.00     0.051 C 
HETATM    8  C   UNK N   1      35.688  11.110  17.698  0.00  0.00     0.088 A 
ENDROOT
BRANCH   8   9
HETATM    9  O   UNK N   1      35.693  10.306  18.829  0.00  0.00    -0.310 OA
BRANCH   9  10
HETATM   10  C   UNK N   1      34.772   9.876  19.753  0.00  0.00     0.076 A 
HETATM   11  C   UNK N   1      34.733  10.354  21.054  0.00  0.00     0.040 A 
HETATM   12  C   UNK N   1      33.803   9.919  21.982  0.00  0.00     0.040 A 
HETATM   13  C   UNK N   1      32.862   8.969  21.627  0.00  0.00     0.072 A 
HETATM   14  C   UNK N   1      32.853   8.443  20.314  0.00  0.00    -0.019 A 
HETATM   15  C   UNK N   1      33.817   8.908  19.385  0.00  0.00     0.047 A 
BRANCH  13  16
HETATM   16  O   UNK N   1      31.976   8.571  22.555  0.00  0.00    -0.360 OA
HETATM   17  H   UNK N   1      31.148   8.221  22.292  0.00  0.00     0.217 HD
ENDBRANCH  13  16
BRANCH  14  18
HETATM   18  C   UNK N   1      31.838   7.401  19.887  0.00  0.00     0.013 C 
HETATM   19  C   UNK N   1      32.234   6.021  19.385  0.00  0.00     0.015 C 
HETATM   20  C   UNK N   1      30.353   7.711  19.930  0.00  0.00     0.015 C 
ENDBRANCH  14  18
ENDBRANCH   9  10
ENDBRANCH   8   9
BRANCH   1  21
HETATM   21  N   UNK N   1      35.733  13.415  14.056  0.00  0.00    -0.206 N 
HETATM   22  C   UNK N   1      36.411  14.620  13.946  0.00  0.00     0.348 A 
HETATM   23  O   UNK N   1      37.068  15.061  14.870  0.00  0.00    -0.245 OA
HETATM   24  N   UNK N   1      36.339  15.329  12.774  0.00  0.00    -0.273 N 
HETATM   25  C   UNK N   1      35.608  14.856  11.720  0.00  0.00     0.266 A 
HETATM   26  H   UNK N   1      36.818  16.185  12.690  0.00  0.00     0.173 HD
HETATM   27  O   UNK N   1      35.546  15.485  10.680  0.00  0.00    -0.267 OA
HETATM   28  C   UNK N   1      34.938  13.655  11.842  0.00  0.00     0.182 A 
HETATM   29  N   UNK N   1      35.024  12.973  13.008  0.00  0.00    -0.296 N 
ATOM     30  HN  UNK N   1      34.527  12.086  13.094  1.00  0.00     0.187 HD
ENDBRANCH   1  21
TORSDOF 5
ENDMDL
MODEL 6
REMARK VINA RESULT:      -7.4      2.513      3.892
REMARK  5 active torsions:
REMARK  status: ('A' for Active; 'I' for Inactive)
REMARK    1  A    between atoms: N_6  and  C_10 
REMARK    2  A    between atoms: C_17  and  O_18 
REMARK    3  A    between atoms: O_18  and  C_19 
REMARK    4  A    between atoms: C_22  and  C_23 
REMARK    5  A    between atoms: C_26  and  O_28 
ROOT
HETATM    1  C   UNK N   1      28.140  18.133   4.728  0.00  0.00     0.062 A 
HETATM    2  C   UNK N   1      28.292  18.282   6.094  0.00  0.00     0.041 A 
HETATM    3  C   UNK N   1      29.303  17.688   6.815  0.00  0.00    -0.025 A 
HETATM    4  C   UNK N   1      29.226  18.016   8.251  0.00  0.00     0.051 C 
HETATM    5  C   UNK N   1      29.066  17.333   4.043  0.00  0.00     0.041 A 
HETATM    6  C   UNK N   1      30.119  16.704   4.740  0.00  0.00    -0.025 A 
HETATM    7  C   UNK N   1      31.077  15.863   3.962  0.00  0.00     0.051 C 
HETATM    8  C   UNK N   1      30.273  16.860   6.147  0.00  0.00     0.088 A 
ENDROOT
BRANCH   8   9
HETATM    9  O   UNK N   1      31.341  16.199   6.737  0.00  0.00    -0.310 OA
BRANCH   9  10
HETATM   10  C   UNK N   1      32.409  16.538   7.532  0.00  0.00     0.076 A 
HETATM   11  C   UNK N   1      32.908  17.829   7.610  0.00  0.00     0.040 A 
HETATM   12  C   UNK N   1      33.984  18.168   8.412  0.00  0.00     0.040 A 
HETATM   13  C   UNK N   1      34.609  17.199   9.177  0.00  0.00     0.072 A 
HETATM   14  C   UNK N   1      34.146  15.863   9.138  0.00  0.00    -0.019 A 
HETATM   15  C   UNK N   1      33.041  15.547   8.308  0.00  0.00     0.047 A 
BRANCH  13  16
HETATM   16  O   UNK N   1      35.651  17.565   9.942  0.00  0.00    -0.360 OA
HETATM   17  H   UNK N   1      35.970  16.987  10.607  0.00  0.00     0.217 HD
ENDBRANCH  13  16
BRANCH  14  18
HETATM   18  C   UNK N   1      34.803  14.774   9.963  0.00  0.00     0.013 C 
HETATM   19  C   UNK N   1      34.548  14.599  11.452  0.00  0.00     0.015 C 
HETATM   20  C   UNK N   1      35.779  13.806   9.319  0.00  0.00     0.015 C 
ENDBRANCH  14  18
ENDBRANCH   9  10
ENDBRANCH   8   9
BRANCH   1  21
HETATM   21  N   UNK N   1      27.024  18.821   4.102  0.00  0.00    -0.206 N 
HETATM   22  C   UNK N   1      25.727  18.334   4.067  0.00  0.00     0.348 A 
HETATM   23  O   UNK N   1      25.440  17.267   4.576  0.00  0.00    -0.245 OA
HETATM   24  N   UNK N   1      24.748  19.068   3.447  0.00  0.00    -0.273 N 
HETATM   25  C   UNK N   1      25.044  20.271   2.868  0.00  0.00     0.266 A 
HETATM   26  H   UNK N   1      23.825  18.727   3.419  0.00  0.00     0.173 HD
HETATM   27  O   UNK N   1      24.175  20.921   2.318  0.00  0.00    -0.267 OA
HETATM   28  C   UNK N   1      26.340  20.745   2.909  0.00  0.00     0.182 A 
HETATM   29  N   UNK N   1      27.289  20.002   3.527  0.00  0.00    -0.296 N 
ATOM     30  HN  UNK N   1      28.245  20.357   3.555  1.00  0.00     0.187 HD
ENDBRANCH   1  21
TORSDOF 5
ENDMDL
MODEL 7
REMARK VINA RESULT:      -7.4     13.413     17.654
REMARK  5 active torsions:
REMARK  status: ('A' for Active; 'I' for Inactive)
REMARK    1  A    between atoms: N_6  and  C_10 
REMARK    2  A    between atoms: C_17  and  O_18 
REMARK    3  A    between atoms: O_18  and  C_19 
REMARK    4  A    between atoms: C_22  and  C_23 
REMARK    5  A    between atoms: C_26  and  O_28 
ROOT
HETATM    1  C   UNK N   1      35.651  12.694  16.169  0.00  0.00     0.062 A 
HETATM    2  C   UNK N   1      35.785  11.320  16.095  0.00  0.00     0.041 A 
HETATM    3  C   UNK N   1      35.632  10.481  17.177  0.00  0.00    -0.025 A 
HETATM    4  C   UNK N   1      35.829   9.066  16.812  0.00  0.00     0.051 C 
HETATM    5  C   UNK N   1      35.344  13.261  17.414  0.00  0.00     0.041 A 
HETATM    6  C   UNK N   1      35.177  12.443  18.551  0.00  0.00    -0.025 A 
HETATM    7  C   UNK N   1      34.849  13.099  19.851  0.00  0.00     0.051 C 
HETATM    8  C   UNK N   1      35.315  11.028  18.470  0.00  0.00     0.088 A 
ENDROOT
BRANCH   8   9
HETATM    9  O   UNK N   1      35.131  10.313  19.645  0.00  0.00    -0.310 OA
BRANCH   9  10
HETATM   10  C   UNK N   1      34.143   9.535  20.198  0.00  0.00     0.076 A 
HETATM   11  C   UNK N   1      33.279   8.764  19.435  0.00  0.00     0.040 A 
HETATM   12  C   UNK N   1      32.284   7.981  19.995  0.00  0.00     0.040 A 
HETATM   13  C   UNK N   1      32.120   7.947  21.369  0.00  0.00     0.072 A 
HETATM   14  C   UNK N   1      32.971   8.714  22.199  0.00  0.00    -0.019 A 
HETATM   15  C   UNK N   1      33.981   9.505  21.597  0.00  0.00     0.047 A 
BRANCH  13  16
HETATM   16  O   UNK N   1      31.144   7.176  21.875  0.00  0.00    -0.360 OA
HETATM   17  H   UNK N   1      30.693   6.569  21.323  0.00  0.00     0.217 HD
ENDBRANCH  13  16
BRANCH  14  18
HETATM   18  C   UNK N   1      32.823   8.702  23.707  0.00  0.00     0.013 C 
HETATM   19  C   UNK N   1      33.504   7.671  24.595  0.00  0.00     0.015 C 
HETATM   20  C   UNK N   1      31.955   9.734  24.403  0.00  0.00     0.015 C 
ENDBRANCH  14  18
ENDBRANCH   9  10
ENDBRANCH   8   9
BRANCH   1  21
HETATM   21  N   UNK N   1      35.841  13.450  14.944  0.00  0.00    -0.206 N 
HETATM   22  C   UNK N   1      36.745  14.491  14.801  0.00  0.00     0.348 A 
HETATM   23  O   UNK N   1      37.454  14.843  15.726  0.00  0.00    -0.245 OA
HETATM   24  N   UNK N   1      36.843  15.138  13.596  0.00  0.00    -0.273 N 
HETATM   25  C   UNK N   1      36.058  14.763  12.541  0.00  0.00     0.266 A 
HETATM   26  H   UNK N   1      37.483  15.879  13.489  0.00  0.00     0.173 HD
HETATM   27  O   UNK N   1      36.146  15.338  11.472  0.00  0.00    -0.267 OA
HETATM   28  C   UNK N   1      35.163  13.725  12.696  0.00  0.00     0.182 A 
HETATM   29  N   UNK N   1      35.084  13.101  13.895  0.00  0.00    -0.296 N 
ATOM     30  HN  UNK N   1      34.420  12.334  14.004  1.00  0.00     0.187 HD
ENDBRANCH   1  21
TORSDOF 5
ENDMDL
MODEL 8
REMARK VINA RESULT:      -7.2      9.791     13.789
REMARK  5 active torsions:
REMARK  status: ('A' for Active; 'I' for Inactive)
REMARK    1  A    between atoms: N_6  and  C_10 
REMARK    2  A    between atoms: C_17  and  O_18 
REMARK    3  A    between atoms: O_18  and  C_19 
REMARK    4  A    between atoms: C_22  and  C_23 
REMARK    5  A    between atoms: C_26  and  O_28 
ROOT
HETATM    1  C   UNK N   1      34.903  13.971  11.723  0.00  0.00     0.062 A 
HETATM    2  C   UNK N   1      34.588  12.674  12.083  0.00  0.00     0.041 A 
HETATM    3  C   UNK N   1      35.002  12.090  13.260  0.00  0.00    -0.025 A 
HETATM    4  C   UNK N   1      34.522  10.701  13.386  0.00  0.00     0.051 C 
HETATM    5  C   UNK N   1      35.686  14.730  12.605  0.00  0.00     0.041 A 
HETATM    6  C   UNK N   1      36.133  14.174  13.822  0.00  0.00    -0.025 A 
HETATM    7  C   UNK N   1      36.963  15.026  14.724  0.00  0.00     0.051 C 
HETATM    8  C   UNK N   1      35.806  12.838  14.190  0.00  0.00     0.088 A 
ENDROOT
BRANCH   8   9
HETATM    9  O   UNK N   1      36.294  12.386  15.408  0.00  0.00    -0.310 OA
BRANCH   9  10
HETATM   10  C   UNK N   1      35.865  12.370  16.713  0.00  0.00     0.076 A 
HETATM   11  C   UNK N   1      35.526  13.522  17.406  0.00  0.00     0.040 A 
HETATM   12  C   UNK N   1      35.093  13.502  18.721  0.00  0.00     0.040 A 
HETATM   13  C   UNK N   1      34.984  12.299  19.397  0.00  0.00     0.072 A 
HETATM   14  C   UNK N   1      35.317  11.091  18.741  0.00  0.00    -0.019 A 
HETATM   15  C   UNK N   1      35.757  11.142  17.395  0.00  0.00     0.047 A 
BRANCH  13  16
HETATM   16  O   UNK N   1      34.561  12.320  20.671  0.00  0.00    -0.360 OA
HETATM   17  H   UNK N   1      33.838  12.864  20.916  0.00  0.00     0.217 HD
ENDBRANCH  13  16
BRANCH  14  18
HETATM   18  C   UNK N   1      35.210   9.754  19.448  0.00  0.00     0.013 C 
HETATM   19  C   UNK N   1      33.974   8.872  19.362  0.00  0.00     0.015 C 
HETATM   20  C   UNK N   1      36.356   9.242  20.301  0.00  0.00     0.015 C 
ENDBRANCH  14  18
ENDBRANCH   9  10
ENDBRANCH   8   9
BRANCH   1  21
HETATM   21  N   UNK N   1      34.396  14.452  10.450  0.00  0.00    -0.206 N 
HETATM   22  C   UNK N   1      35.128  14.465   9.273  0.00  0.00     0.348 A 
HETATM   23  O   UNK N   1      36.275  14.060   9.238  0.00  0.00    -0.245 OA
HETATM   24  N   UNK N   1      34.549  14.942   8.124  0.00  0.00    -0.273 N 
HETATM   25  C   UNK N   1      33.262  15.403   8.136  0.00  0.00     0.266 A 
HETATM   26  H   UNK N   1      35.064  14.953   7.286  0.00  0.00     0.173 HD
HETATM   27  O   UNK N   1      32.749  15.826   7.116  0.00  0.00    -0.267 OA
HETATM   28  C   UNK N   1      32.544  15.385   9.315  0.00  0.00     0.182 A 
HETATM   29  N   UNK N   1      33.136  14.909  10.435  0.00  0.00    -0.296 N 
ATOM     30  HN  UNK N   1      32.602  14.898  11.303  1.00  0.00     0.187 HD
ENDBRANCH   1  21
TORSDOF 5
ENDMDL
MODEL 9
REMARK VINA RESULT:      -7.1      9.514     13.797
REMARK  5 active torsions:
REMARK  status: ('A' for Active; 'I' for Inactive)
REMARK    1  A    between atoms: N_6  and  C_10 
REMARK    2  A    between atoms: C_17  and  O_18 
REMARK    3  A    between atoms: O_18  and  C_19 
REMARK    4  A    between atoms: C_22  and  C_23 
REMARK    5  A    between atoms: C_26  and  O_28 
ROOT
HETATM    1  C   UNK N   1      35.358  14.428  11.737  0.00  0.00     0.062 A 
HETATM    2  C   UNK N   1      35.682  13.148  11.325  0.00  0.00     0.041 A 
HETATM    3  C   UNK N   1      36.398  12.260  12.096  0.00  0.00    -0.025 A 
HETATM    4  C   UNK N   1      36.599  10.969  11.411  0.00  0.00     0.051 C 
HETATM    5  C   UNK N   1      35.784  14.840  13.008  0.00  0.00     0.041 A 
HETATM    6  C   UNK N   1      36.520  13.965  13.833  0.00  0.00    -0.025 A 
HETATM    7  C   UNK N   1      36.947  14.454  15.177  0.00  0.00     0.051 C 
HETATM    8  C   UNK N   1      36.851  12.647  13.406  0.00  0.00     0.088 A 
ENDROOT
BRANCH   8   9
HETATM    9  O   UNK N   1      37.578  11.865  14.293  0.00  0.00    -0.310 OA
BRANCH   9  10
HETATM   10  C   UNK N   1      37.333  10.782  15.101  0.00  0.00     0.076 A 
HETATM   11  C   UNK N   1      37.863   9.525  14.854  0.00  0.00     0.040 A 
HETATM   12  C   UNK N   1      37.616   8.436  15.672  0.00  0.00     0.040 A 
HETATM   13  C   UNK N   1      36.808   8.576  16.787  0.00  0.00     0.072 A 
HETATM   14  C   UNK N   1      36.238   9.834  17.090  0.00  0.00    -0.019 A 
HETATM   15  C   UNK N   1      36.510  10.932  16.235  0.00  0.00     0.047 A 
BRANCH  13  16
HETATM   16  O   UNK N   1      36.590   7.496  17.556  0.00  0.00    -0.360 OA
HETATM   17  H   UNK N   1      37.257   6.844  17.647  0.00  0.00     0.217 HD
ENDBRANCH  13  16
BRANCH  14  18
HETATM   18  C   UNK N   1      35.350  10.028  18.303  0.00  0.00     0.013 C 
HETATM   19  C   UNK N   1      34.075   9.229  18.527  0.00  0.00     0.015 C 
HETATM   20  C   UNK N   1      35.699  11.064  19.355  0.00  0.00     0.015 C 
ENDBRANCH  14  18
ENDBRANCH   9  10
ENDBRANCH   8   9
BRANCH   1  21
HETATM   21  N   UNK N   1      34.597  15.253  10.815  0.00  0.00    -0.206 N 
HETATM   22  C   UNK N   1      35.041  16.462  10.301  0.00  0.00     0.348 A 
HETATM   23  O   UNK N   1      36.129  16.915  10.603  0.00  0.00    -0.245 OA
HETATM   24  N   UNK N   1      34.239  17.161   9.435  0.00  0.00    -0.273 N 
HETATM   25  C   UNK N   1      33.011  16.674   9.080  0.00  0.00     0.266 A 
HETATM   26  H   UNK N   1      34.549  18.019   9.067  0.00  0.00     0.173 HD
HETATM   27  O   UNK N   1      32.301  17.296   8.312  0.00  0.00    -0.267 OA
HETATM   28  C   UNK N   1      32.582  15.470   9.599  0.00  0.00     0.182 A 
HETATM   29  N   UNK N   1      33.391  14.798  10.451  0.00  0.00    -0.296 N 
ATOM     30  HN  UNK N   1      33.068  13.908  10.832  1.00  0.00     0.187 HD
ENDBRANCH   1  21
TORSDOF 5
ENDMDL
