MODEL 1
REMARK VINA RESULT:      -7.5      0.000      0.000
REMARK  9 active torsions:
REMARK  status: ('A' for Active; 'I' for Inactive)
REMARK    1  A    between atoms: O_1  and  C_2 
REMARK    2  A    between atoms: C_2  and  C_3 
REMARK    3  A    between atoms: C_8  and  C_9 
REMARK    4  A    between atoms: C_14  and  N_15 
REMARK    5  A    between atoms: N_15  and  C_16 
REMARK    6  A    between atoms: C_22  and  O_23 
REMARK    7  A    between atoms: O_23  and  C_24 
REMARK    8  A    between atoms: C_30  and  O_31 
REMARK    9  A    between atoms: O_31  and  C_32 
ROOT
HETATM    1  C   UNK N   1      28.519  17.513   7.198  0.00  0.00     0.119 A 
HETATM    2  N   UNK N   1      27.873  17.803   8.362  0.00  0.00    -0.338 N 
ATOM      3  HN  UNK N   1      26.858  17.900   8.372  1.00  0.00     0.168 HD
HETATM    4  C   UNK N   1      28.586  17.962   9.515  0.00  0.00     0.182 A 
HETATM    5  C   UNK N   1      29.897  17.403   7.179  0.00  0.00     0.038 A 
HETATM    6  C   UNK N   1      30.555  17.156   5.974  0.00  0.00     0.057 A 
HETATM    7  C   UNK N   1      31.941  17.084   5.914  0.00  0.00     0.103 A 
HETATM    8  C   UNK N   1      30.618  17.584   8.354  0.00  0.00     0.050 A 
HETATM    9  N   UNK N   1      29.949  17.856   9.509  0.00  0.00    -0.351 N 
ATOM     10  HN  UNK N   1      30.470  17.981  10.378  1.00  0.00     0.166 HD
HETATM   11  C   UNK N   1      32.015  17.501   8.321  0.00  0.00     0.070 A 
HETATM   12  C   UNK N   1      32.686  17.249   7.094  0.00  0.00     0.104 A 
ENDROOT
BRANCH   1  13
HETATM   13  N   UNK N   1      27.857  17.378   5.967  0.00  0.00    -0.342 N 
HETATM   14  H   UNK N   1      27.832  16.458   5.616  0.00  0.00     0.167 HD
BRANCH  13  15
HETATM   15  C   UNK N   1      27.226  18.323   5.150  0.00  0.00     0.034 A 
HETATM   16  C   UNK N   1      25.859  18.189   5.039  0.00  0.00     0.043 A 
HETATM   17  C   UNK N   1      25.101  19.036   4.256  0.00  0.00    -0.007 A 
HETATM   18  C   UNK N   1      25.741  20.071   3.555  0.00  0.00     0.014 A 
HETATM   19  C   UNK N   1      27.143  20.199   3.630  0.00  0.00     0.003 A 
HETATM   20  C   UNK N   1      27.894  19.319   4.429  0.00  0.00     0.029 A 
BRANCH  17  21
HETATM   21  C   UNK N   1      23.643  18.848   4.274  0.00  0.00     0.049 A 
HETATM   22  C   UNK N   1      23.013  18.004   5.219  0.00  0.00     0.082 A 
HETATM   23  S   UNK N   1      21.395  18.223   4.974  0.00  0.00    -0.084 SA
HETATM   24  C   UNK N   1      21.493  19.330   3.761  0.00  0.00     0.075 A 
HETATM   25  N   UNK N   1      22.794  19.576   3.469  0.00  0.00    -0.351 N 
ATOM     26  HN  UNK N   1      23.106  20.220   2.743  1.00  0.00     0.166 HD
BRANCH  24  27
HETATM   27  C   UNK N   1      20.341  20.051   3.162  0.00  0.00     0.229 C 
BRANCH  27  28
HETATM   28  O   UNK N   1      20.606  21.416   3.110  0.00  0.00    -0.394 OA
HETATM   29  H   UNK N   1      21.330  22.035   3.293  0.00  0.00     0.209 HD
ENDBRANCH  27  28
ENDBRANCH  24  27
ENDBRANCH  17  21
ENDBRANCH  13  15
ENDBRANCH   1  13
BRANCH   7  30
HETATM   30  O   UNK N   1      32.567  16.862   4.729  0.00  0.00    -0.349 OA
BRANCH  30  31
HETATM   31  C   UNK N   1      32.352  15.719   3.984  0.00  0.00     0.171 C 
HETATM   32  C   UNK N   1      33.446  15.552   2.952  0.00  0.00     0.034 C 
ENDBRANCH  30  31
ENDBRANCH   7  30
BRANCH  12  33
HETATM   33  O   UNK N   1      34.034  17.153   7.036  0.00  0.00    -0.349 OA
BRANCH  33  34
HETATM   34  C   UNK N   1      34.733  16.103   7.581  0.00  0.00     0.171 C 
HETATM   35  C   UNK N   1      35.274  15.239   6.460  0.00  0.00     0.034 C 
ENDBRANCH  33  34
ENDBRANCH  12  33
TORSDOF 9
ENDMDL
MODEL 2
REMARK VINA RESULT:      -7.2      1.851      3.388
REMARK  9 active torsions:
REMARK  status: ('A' for Active; 'I' for Inactive)
REMARK    1  A    between atoms: O_1  and  C_2 
REMARK    2  A    between atoms: C_2  and  C_3 
REMARK    3  A    between atoms: C_8  and  C_9 
REMARK    4  A    between atoms: C_14  and  N_15 
REMARK    5  A    between atoms: N_15  and  C_16 
REMARK    6  A    between atoms: C_22  and  O_23 
REMARK    7  A    between atoms: O_23  and  C_24 
REMARK    8  A    between atoms: C_30  and  O_31 
REMARK    9  A    between atoms: O_31  and  C_32 
ROOT
HETATM    1  C   UNK N   1      29.916  17.131   4.292  0.00  0.00     0.119 A 
HETATM    2  N   UNK N   1      30.377  17.073   3.011  0.00  0.00    -0.338 N 
ATOM      3  HN  UNK N   1      29.730  17.181   2.230  1.00  0.00     0.168 HD
HETATM    4  C   UNK N   1      31.706  16.873   2.774  0.00  0.00     0.182 A 
HETATM    5  C   UNK N   1      30.789  16.964   5.350  0.00  0.00     0.038 A 
HETATM    6  C   UNK N   1      30.301  16.974   6.658  0.00  0.00     0.057 A 
HETATM    7  C   UNK N   1      31.147  16.765   7.740  0.00  0.00     0.103 A 
HETATM    8  C   UNK N   1      32.139  16.742   5.100  0.00  0.00     0.050 A 
HETATM    9  N   UNK N   1      32.579  16.706   3.812  0.00  0.00    -0.351 N 
ATOM     10  HN  UNK N   1      33.570  16.553   3.620  1.00  0.00     0.166 HD
HETATM   11  C   UNK N   1      33.011  16.544   6.177  0.00  0.00     0.070 A 
HETATM   12  C   UNK N   1      32.516  16.555   7.509  0.00  0.00     0.104 A 
ENDROOT
BRANCH   1  13
HETATM   13  N   UNK N   1      28.558  17.291   4.612  0.00  0.00    -0.342 N 
HETATM   14  H   UNK N   1      28.079  16.448   4.789  0.00  0.00     0.167 HD
BRANCH  13  15
HETATM   15  C   UNK N   1      27.765  18.438   4.723  0.00  0.00     0.034 A 
HETATM   16  C   UNK N   1      26.457  18.295   4.314  0.00  0.00     0.043 A 
HETATM   17  C   UNK N   1      25.559  19.343   4.348  0.00  0.00    -0.007 A 
HETATM   18  C   UNK N   1      25.989  20.592   4.822  0.00  0.00     0.014 A 
HETATM   19  C   UNK N   1      27.333  20.765   5.210  0.00  0.00     0.003 A 
HETATM   20  C   UNK N   1      28.231  19.684   5.159  0.00  0.00     0.029 A 
BRANCH  17  21
HETATM   21  C   UNK N   1      24.170  19.055   3.962  0.00  0.00     0.049 A 
HETATM   22  C   UNK N   1      23.526  17.853   4.342  0.00  0.00     0.082 A 
HETATM   23  S   UNK N   1      21.963  18.031   3.839  0.00  0.00    -0.084 SA
HETATM   24  C   UNK N   1      22.097  19.540   3.198  0.00  0.00     0.075 A 
HETATM   25  N   UNK N   1      23.372  19.981   3.327  0.00  0.00    -0.351 N 
ATOM     26  HN  UNK N   1      23.701  20.887   2.994  1.00  0.00     0.166 HD
BRANCH  24  27
HETATM   27  C   UNK N   1      20.969  20.354   2.677  0.00  0.00     0.229 C 
BRANCH  27  28
HETATM   28  O   UNK N   1      20.279  20.945   3.730  0.00  0.00    -0.394 OA
HETATM   29  H   UNK N   1      19.521  21.531   3.881  0.00  0.00     0.209 HD
ENDBRANCH  27  28
ENDBRANCH  24  27
ENDBRANCH  17  21
ENDBRANCH  13  15
ENDBRANCH   1  13
BRANCH   7  30
HETATM   30  O   UNK N   1      30.652  16.758   9.006  0.00  0.00    -0.349 OA
BRANCH  30  31
HETATM   31  C   UNK N   1      29.448  17.353   9.331  0.00  0.00     0.171 C 
HETATM   32  C   UNK N   1      29.676  18.762   9.830  0.00  0.00     0.034 C 
ENDBRANCH  30  31
ENDBRANCH   7  30
BRANCH  12  33
HETATM   33  O   UNK N   1      33.339  16.376   8.567  0.00  0.00    -0.349 OA
BRANCH  33  34
HETATM   34  C   UNK N   1      34.260  17.315   8.965  0.00  0.00     0.171 C 
HETATM   35  C   UNK N   1      35.083  16.745  10.101  0.00  0.00     0.034 C 
ENDBRANCH  33  34
ENDBRANCH  12  33
TORSDOF 9
ENDMDL
MODEL 3
REMARK VINA RESULT:      -7.0      4.013      9.254
REMARK  9 active torsions:
REMARK  status: ('A' for Active; 'I' for Inactive)
REMARK    1  A    between atoms: O_1  and  C_2 
REMARK    2  A    between atoms: C_2  and  C_3 
REMARK    3  A    between atoms: C_8  and  C_9 
REMARK    4  A    between atoms: C_14  and  N_15 
REMARK    5  A    between atoms: N_15  and  C_16 
REMARK    6  A    between atoms: C_22  and  O_23 
REMARK    7  A    between atoms: O_23  and  C_24 
REMARK    8  A    between atoms: C_30  and  O_31 
REMARK    9  A    between atoms: O_31  and  C_32 
ROOT
HETATM    1  C   UNK N   1      21.486  18.697   3.569  0.00  0.00     0.119 A 
HETATM    2  N   UNK N   1      20.506  19.601   3.291  0.00  0.00    -0.338 N 
ATOM      3  HN  UNK N   1      20.589  20.563   3.622  1.00  0.00     0.168 HD
HETATM    4  C   UNK N   1      19.414  19.221   2.567  0.00  0.00     0.182 A 
HETATM    5  C   UNK N   1      21.364  17.389   3.139  0.00  0.00     0.038 A 
HETATM    6  C   UNK N   1      22.347  16.457   3.473  0.00  0.00     0.057 A 
HETATM    7  C   UNK N   1      22.232  15.125   3.093  0.00  0.00     0.103 A 
HETATM    8  C   UNK N   1      20.239  17.004   2.418  0.00  0.00     0.050 A 
HETATM    9  N   UNK N   1      19.281  17.930   2.137  0.00  0.00    -0.351 N 
ATOM     10  HN  UNK N   1      18.457  17.658   1.600  1.00  0.00     0.166 HD
HETATM   11  C   UNK N   1      20.109  15.670   2.013  0.00  0.00     0.070 A 
HETATM   12  C   UNK N   1      21.110  14.720   2.350  0.00  0.00     0.104 A 
ENDROOT
BRANCH   1  13
HETATM   13  N   UNK N   1      22.616  19.005   4.344  0.00  0.00    -0.342 N 
HETATM   14  H   UNK N   1      22.476  18.930   5.316  0.00  0.00     0.167 HD
BRANCH  13  15
HETATM   15  C   UNK N   1      23.907  19.400   3.977  0.00  0.00     0.034 A 
HETATM   16  C   UNK N   1      24.926  18.859   4.729  0.00  0.00     0.043 A 
HETATM   17  C   UNK N   1      26.252  19.167   4.497  0.00  0.00    -0.007 A 
HETATM   18  C   UNK N   1      26.572  20.055   3.458  0.00  0.00     0.014 A 
HETATM   19  C   UNK N   1      25.539  20.646   2.703  0.00  0.00     0.003 A 
HETATM   20  C   UNK N   1      24.196  20.321   2.964  0.00  0.00     0.029 A 
BRANCH  17  21
HETATM   21  C   UNK N   1      27.261  18.471   5.310  0.00  0.00     0.049 A 
HETATM   22  C   UNK N   1      28.540  18.151   4.795  0.00  0.00     0.082 A 
HETATM   23  S   UNK N   1      29.374  17.536   6.079  0.00  0.00    -0.084 SA
HETATM   24  C   UNK N   1      28.192  17.684   7.214  0.00  0.00     0.075 A 
HETATM   25  N   UNK N   1      27.077  18.205   6.648  0.00  0.00    -0.351 N 
ATOM     26  HN  UNK N   1      26.207  18.380   7.152  1.00  0.00     0.166 HD
BRANCH  24  27
HETATM   27  C   UNK N   1      28.357  17.413   8.665  0.00  0.00     0.229 C 
BRANCH  27  28
HETATM   28  O   UNK N   1      27.466  18.187   9.401  0.00  0.00    -0.394 OA
HETATM   29  H   UNK N   1      26.735  18.808   9.258  0.00  0.00     0.209 HD
ENDBRANCH  27  28
ENDBRANCH  24  27
ENDBRANCH  17  21
ENDBRANCH  13  15
ENDBRANCH   1  13
BRANCH   7  30
HETATM   30  O   UNK N   1      23.188  14.226   3.442  0.00  0.00    -0.349 OA
BRANCH  30  31
HETATM   31  C   UNK N   1      24.532  14.449   3.205  0.00  0.00     0.171 C 
HETATM   32  C   UNK N   1      25.293  14.506   4.511  0.00  0.00     0.034 C 
ENDBRANCH  30  31
ENDBRANCH   7  30
BRANCH  12  33
HETATM   33  O   UNK N   1      21.014  13.428   1.962  0.00  0.00    -0.349 OA
BRANCH  33  34
HETATM   34  C   UNK N   1      21.071  13.037   0.646  0.00  0.00     0.171 C 
HETATM   35  C   UNK N   1      22.520  12.823   0.260  0.00  0.00     0.034 C 
ENDBRANCH  33  34
ENDBRANCH  12  33
TORSDOF 9
ENDMDL
MODEL 4
REMARK VINA RESULT:      -6.7      5.112      8.690
REMARK  9 active torsions:
REMARK  status: ('A' for Active; 'I' for Inactive)
REMARK    1  A    between atoms: O_1  and  C_2 
REMARK    2  A    between atoms: C_2  and  C_3 
REMARK    3  A    between atoms: C_8  and  C_9 
REMARK    4  A    between atoms: C_14  and  N_15 
REMARK    5  A    between atoms: N_15  and  C_16 
REMARK    6  A    between atoms: C_22  and  O_23 
REMARK    7  A    between atoms: O_23  and  C_24 
REMARK    8  A    between atoms: C_30  and  O_31 
REMARK    9  A    between atoms: O_31  and  C_32 
ROOT
HETATM    1  C   UNK N   1      21.223  17.560   4.356  0.00  0.00     0.119 A 
HETATM    2  N   UNK N   1      20.140  18.117   3.747  0.00  0.00    -0.338 N 
ATOM      3  HN  UNK N   1      19.226  17.669   3.820  1.00  0.00     0.168 HD
HETATM    4  C   UNK N   1      20.277  19.276   3.041  0.00  0.00     0.182 A 
HETATM    5  C   UNK N   1      22.465  18.155   4.239  0.00  0.00     0.038 A 
HETATM    6  C   UNK N   1      23.579  17.550   4.823  0.00  0.00     0.057 A 
HETATM    7  C   UNK N   1      24.848  18.100   4.687  0.00  0.00     0.103 A 
HETATM    8  C   UNK N   1      22.601  19.326   3.503  0.00  0.00     0.050 A 
HETATM    9  N   UNK N   1      21.500  19.874   2.917  0.00  0.00    -0.351 N 
ATOM     10  HN  UNK N   1      21.589  20.739   2.382  1.00  0.00     0.166 HD
HETATM   11  C   UNK N   1      23.868  19.905   3.364  0.00  0.00     0.070 A 
HETATM   12  C   UNK N   1      25.002  19.292   3.959  0.00  0.00     0.104 A 
ENDROOT
BRANCH   1  13
HETATM   13  N   UNK N   1      21.166  16.347   5.063  0.00  0.00    -0.342 N 
HETATM   14  H   UNK N   1      21.401  15.553   4.529  0.00  0.00     0.167 HD
BRANCH  13  15
HETATM   15  C   UNK N   1      20.835  16.069   6.394  0.00  0.00     0.034 A 
HETATM   16  C   UNK N   1      21.498  15.001   6.956  0.00  0.00     0.043 A 
HETATM   17  C   UNK N   1      21.265  14.595   8.256  0.00  0.00    -0.007 A 
HETATM   18  C   UNK N   1      20.327  15.298   9.030  0.00  0.00     0.014 A 
HETATM   19  C   UNK N   1      19.614  16.370   8.457  0.00  0.00     0.003 A 
HETATM   20  C   UNK N   1      19.864  16.759   7.129  0.00  0.00     0.029 A 
BRANCH  17  21
HETATM   21  C   UNK N   1      22.086  13.493   8.777  0.00  0.00     0.049 A 
HETATM   22  C   UNK N   1      22.820  12.641   7.918  0.00  0.00     0.082 A 
HETATM   23  S   UNK N   1      23.703  11.677   8.926  0.00  0.00    -0.084 SA
HETATM   24  C   UNK N   1      23.197  12.314  10.356  0.00  0.00     0.075 A 
HETATM   25  N   UNK N   1      22.299  13.303  10.125  0.00  0.00    -0.351 N 
ATOM     26  HN  UNK N   1      21.837  13.840  10.858  1.00  0.00     0.166 HD
BRANCH  24  27
HETATM   27  C   UNK N   1      23.735  11.957  11.694  0.00  0.00     0.229 C 
BRANCH  27  28
HETATM   28  O   UNK N   1      25.094  12.249  11.756  0.00  0.00    -0.394 OA
HETATM   29  H   UNK N   1      25.821  12.250  12.398  0.00  0.00     0.209 HD
ENDBRANCH  27  28
ENDBRANCH  24  27
ENDBRANCH  17  21
ENDBRANCH  13  15
ENDBRANCH   1  13
BRANCH   7  30
HETATM   30  O   UNK N   1      25.925  17.489   5.245  0.00  0.00    -0.349 OA
BRANCH  30  31
HETATM   31  C   UNK N   1      26.432  16.298   4.759  0.00  0.00     0.171 C 
HETATM   32  C   UNK N   1      27.538  16.567   3.762  0.00  0.00     0.034 C 
ENDBRANCH  30  31
ENDBRANCH   7  30
BRANCH  12  33
HETATM   33  O   UNK N   1      26.236  19.836   3.849  0.00  0.00    -0.349 OA
BRANCH  33  34
HETATM   34  C   UNK N   1      26.701  20.810   4.699  0.00  0.00     0.171 C 
HETATM   35  C   UNK N   1      27.902  20.273   5.451  0.00  0.00     0.034 C 
ENDBRANCH  33  34
ENDBRANCH  12  33
TORSDOF 9
ENDMDL
MODEL 5
REMARK VINA RESULT:      -6.7      1.696      2.009
REMARK  9 active torsions:
REMARK  status: ('A' for Active; 'I' for Inactive)
REMARK    1  A    between atoms: O_1  and  C_2 
REMARK    2  A    between atoms: C_2  and  C_3 
REMARK    3  A    between atoms: C_8  and  C_9 
REMARK    4  A    between atoms: C_14  and  N_15 
REMARK    5  A    between atoms: N_15  and  C_16 
REMARK    6  A    between atoms: C_22  and  O_23 
REMARK    7  A    between atoms: O_23  and  C_24 
REMARK    8  A    between atoms: C_30  and  O_31 
REMARK    9  A    between atoms: O_31  and  C_32 
ROOT
HETATM    1  C   UNK N   1      29.124  17.810   6.909  0.00  0.00     0.119 A 
HETATM    2  N   UNK N   1      28.446  17.770   8.089  0.00  0.00    -0.338 N 
ATOM      3  HN  UNK N   1      27.458  18.024   8.119  1.00  0.00     0.168 HD
HETATM    4  C   UNK N   1      29.087  17.388   9.231  0.00  0.00     0.182 A 
HETATM    5  C   UNK N   1      30.468  17.486   6.871  0.00  0.00     0.038 A 
HETATM    6  C   UNK N   1      31.168  17.579   5.668  0.00  0.00     0.057 A 
HETATM    7  C   UNK N   1      32.529  17.303   5.607  0.00  0.00     0.103 A 
HETATM    8  C   UNK N   1      31.119  17.116   8.042  0.00  0.00     0.050 A 
HETATM    9  N   UNK N   1      30.416  17.067   9.207  0.00  0.00    -0.351 N 
ATOM     10  HN  UNK N   1      30.884  16.786  10.070  1.00  0.00     0.166 HD
HETATM   11  C   UNK N   1      32.487  16.819   8.001  0.00  0.00     0.070 A 
HETATM   12  C   UNK N   1      33.201  16.912   6.777  0.00  0.00     0.104 A 
ENDROOT
BRANCH   1  13
HETATM   13  N   UNK N   1      28.542  18.234   5.703  0.00  0.00    -0.342 N 
HETATM   14  H   UNK N   1      28.846  19.118   5.392  0.00  0.00     0.167 HD
BRANCH  13  15
HETATM   15  C   UNK N   1      27.606  17.619   4.864  0.00  0.00     0.034 A 
HETATM   16  C   UNK N   1      26.290  17.947   5.109  0.00  0.00     0.043 A 
HETATM   17  C   UNK N   1      25.252  17.408   4.375  0.00  0.00    -0.007 A 
HETATM   18  C   UNK N   1      25.547  16.502   3.343  0.00  0.00     0.014 A 
HETATM   19  C   UNK N   1      26.885  16.129   3.105  0.00  0.00     0.003 A 
HETATM   20  C   UNK N   1      27.924  16.686   3.871  0.00  0.00     0.029 A 
BRANCH  17  21
HETATM   21  C   UNK N   1      23.894  17.889   4.671  0.00  0.00     0.049 A 
HETATM   22  C   UNK N   1      23.136  18.609   3.717  0.00  0.00     0.082 A 
HETATM   23  S   UNK N   1      21.649  18.797   4.409  0.00  0.00    -0.084 SA
HETATM   24  C   UNK N   1      21.948  18.000   5.817  0.00  0.00     0.075 A 
HETATM   25  N   UNK N   1      23.230  17.559   5.831  0.00  0.00    -0.351 N 
ATOM     26  HN  UNK N   1      23.650  17.046   6.605  1.00  0.00     0.166 HD
BRANCH  24  27
HETATM   27  C   UNK N   1      20.936  17.693   6.861  0.00  0.00     0.229 C 
BRANCH  27  28
HETATM   28  O   UNK N   1      20.675  18.827   7.622  0.00  0.00    -0.394 OA
HETATM   29  H   UNK N   1      19.940  19.246   8.096  0.00  0.00     0.209 HD
ENDBRANCH  27  28
ENDBRANCH  24  27
ENDBRANCH  17  21
ENDBRANCH  13  15
ENDBRANCH   1  13
BRANCH   7  30
HETATM   30  O   UNK N   1      33.200  17.416   4.431  0.00  0.00    -0.349 OA
BRANCH  30  31
HETATM   31  C   UNK N   1      32.668  16.981   3.232  0.00  0.00     0.171 C 
HETATM   32  C   UNK N   1      32.902  15.496   3.062  0.00  0.00     0.034 C 
ENDBRANCH  30  31
ENDBRANCH   7  30
BRANCH  12  33
HETATM   33  O   UNK N   1      34.520  16.621   6.707  0.00  0.00    -0.349 OA
BRANCH  33  34
HETATM   34  C   UNK N   1      35.017  15.353   6.898  0.00  0.00     0.171 C 
HETATM   35  C   UNK N   1      35.585  14.847   5.588  0.00  0.00     0.034 C 
ENDBRANCH  33  34
ENDBRANCH  12  33
TORSDOF 9
ENDMDL
MODEL 6
REMARK VINA RESULT:      -6.6     11.699     13.880
REMARK  9 active torsions:
REMARK  status: ('A' for Active; 'I' for Inactive)
REMARK    1  A    between atoms: O_1  and  C_2 
REMARK    2  A    between atoms: C_2  and  C_3 
REMARK    3  A    between atoms: C_8  and  C_9 
REMARK    4  A    between atoms: C_14  and  N_15 
REMARK    5  A    between atoms: N_15  and  C_16 
REMARK    6  A    between atoms: C_22  and  O_23 
REMARK    7  A    between atoms: O_23  and  C_24 
REMARK    8  A    between atoms: C_30  and  O_31 
REMARK    9  A    between atoms: O_31  and  C_32 
ROOT
HETATM    1  C   UNK N   1      26.359  23.406  -5.959  0.00  0.00     0.119 A 
HETATM    2  N   UNK N   1      25.251  23.007  -6.643  0.00  0.00    -0.338 N 
ATOM      3  HN  UNK N   1      24.334  23.379  -6.392  1.00  0.00     0.168 HD
HETATM    4  C   UNK N   1      25.367  22.110  -7.665  0.00  0.00     0.182 A 
HETATM    5  C   UNK N   1      27.598  22.885  -6.284  0.00  0.00     0.038 A 
HETATM    6  C   UNK N   1      28.721  23.260  -5.546  0.00  0.00     0.057 A 
HETATM    7  C   UNK N   1      29.972  22.722  -5.820  0.00  0.00     0.103 A 
HETATM    8  C   UNK N   1      27.706  21.959  -7.315  0.00  0.00     0.050 A 
HETATM    9  N   UNK N   1      26.586  21.588  -7.996  0.00  0.00    -0.351 N 
ATOM     10  HN  UNK N   1      26.658  20.915  -8.760  1.00  0.00     0.166 HD
HETATM   11  C   UNK N   1      28.959  21.414  -7.618  0.00  0.00     0.070 A 
HETATM   12  C   UNK N   1      30.104  21.795  -6.868  0.00  0.00     0.104 A 
ENDROOT
BRANCH   1  13
HETATM   13  N   UNK N   1      26.311  24.292  -4.870  0.00  0.00    -0.342 N 
HETATM   14  H   UNK N   1      26.486  23.871  -3.996  0.00  0.00     0.167 HD
BRANCH  13  15
HETATM   15  C   UNK N   1      26.059  25.666  -4.808  0.00  0.00     0.034 A 
HETATM   16  C   UNK N   1      26.891  26.382  -3.974  0.00  0.00     0.043 A 
HETATM   17  C   UNK N   1      26.754  27.744  -3.797  0.00  0.00    -0.007 A 
HETATM   18  C   UNK N   1      25.741  28.423  -4.493  0.00  0.00     0.014 A 
HETATM   19  C   UNK N   1      24.860  27.700  -5.322  0.00  0.00     0.003 A 
HETATM   20  C   UNK N   1      25.015  26.311  -5.480  0.00  0.00     0.029 A 
BRANCH  17  21
HETATM   21  C   UNK N   1      27.746  28.417  -2.945  0.00  0.00     0.049 A 
HETATM   22  C   UNK N   1      29.092  28.574  -3.352  0.00  0.00     0.082 A 
HETATM   23  S   UNK N   1      29.785  29.509  -2.181  0.00  0.00    -0.084 SA
HETATM   24  C   UNK N   1      28.456  29.713  -1.233  0.00  0.00     0.075 A 
HETATM   25  N   UNK N   1      27.404  29.048  -1.770  0.00  0.00    -0.351 N 
ATOM     26  HN  UNK N   1      26.473  29.019  -1.354  1.00  0.00     0.166 HD
BRANCH  24  27
HETATM   27  C   UNK N   1      28.380  30.596  -0.041  0.00  0.00     0.229 C 
BRANCH  27  28
HETATM   28  O   UNK N   1      28.849  29.924   1.083  0.00  0.00    -0.394 OA
HETATM   29  H   UNK N   1      28.582  29.733   1.996  0.00  0.00     0.209 HD
ENDBRANCH  27  28
ENDBRANCH  24  27
ENDBRANCH  17  21
ENDBRANCH  13  15
ENDBRANCH   1  13
BRANCH   7  30
HETATM   30  O   UNK N   1      31.052  23.082  -5.079  0.00  0.00    -0.349 OA
BRANCH  30  31
HETATM   31  C   UNK N   1      31.100  22.905  -3.709  0.00  0.00     0.171 C 
HETATM   32  C   UNK N   1      31.082  21.430  -3.370  0.00  0.00     0.034 C 
ENDBRANCH  30  31
ENDBRANCH   7  30
BRANCH  12  33
HETATM   33  O   UNK N   1      31.328  21.292  -7.146  0.00  0.00    -0.349 OA
BRANCH  33  34
HETATM   34  C   UNK N   1      31.647  19.966  -6.976  0.00  0.00     0.171 C 
HETATM   35  C   UNK N   1      33.109  19.857  -6.597  0.00  0.00     0.034 C 
ENDBRANCH  33  34
ENDBRANCH  12  33
TORSDOF 9
ENDMDL
MODEL 7
REMARK VINA RESULT:      -6.5      5.229     10.626
REMARK  9 active torsions:
REMARK  status: ('A' for Active; 'I' for Inactive)
REMARK    1  A    between atoms: O_1  and  C_2 
REMARK    2  A    between atoms: C_2  and  C_3 
REMARK    3  A    between atoms: C_8  and  C_9 
REMARK    4  A    between atoms: C_14  and  N_15 
REMARK    5  A    between atoms: N_15  and  C_16 
REMARK    6  A    between atoms: C_22  and  O_23 
REMARK    7  A    between atoms: O_23  and  C_24 
REMARK    8  A    between atoms: C_30  and  O_31 
REMARK    9  A    between atoms: O_31  and  C_32 
ROOT
HETATM    1  C   UNK N   1      32.436  15.489   6.594  0.00  0.00     0.119 A 
HETATM    2  N   UNK N   1      33.360  15.163   5.649  0.00  0.00    -0.338 N 
ATOM      3  HN  UNK N   1      34.193  14.635   5.910  1.00  0.00     0.168 HD
HETATM    4  C   UNK N   1      33.171  15.540   4.351  0.00  0.00     0.182 A 
HETATM    5  C   UNK N   1      31.317  16.223   6.244  0.00  0.00     0.038 A 
HETATM    6  C   UNK N   1      30.401  16.597   7.228  0.00  0.00     0.057 A 
HETATM    7  C   UNK N   1      29.290  17.372   6.916  0.00  0.00     0.103 A 
HETATM    8  C   UNK N   1      31.140  16.620   4.924  0.00  0.00     0.050 A 
HETATM    9  N   UNK N   1      32.069  16.267   3.993  0.00  0.00    -0.351 N 
ATOM     10  HN  UNK N   1      31.942  16.546   3.020  1.00  0.00     0.166 HD
HETATM   11  C   UNK N   1      30.020  17.389   4.584  0.00  0.00     0.070 A 
HETATM   12  C   UNK N   1      29.086  17.769   5.584  0.00  0.00     0.104 A 
ENDROOT
BRANCH   1  13
HETATM   13  N   UNK N   1      32.584  15.172   7.954  0.00  0.00    -0.342 N 
HETATM   14  H   UNK N   1      31.910  14.543   8.302  0.00  0.00     0.167 HD
BRANCH  13  15
HETATM   15  C   UNK N   1      33.523  15.593   8.902  0.00  0.00     0.034 A 
HETATM   16  C   UNK N   1      33.799  14.687   9.903  0.00  0.00     0.043 A 
HETATM   17  C   UNK N   1      34.691  14.966  10.919  0.00  0.00    -0.007 A 
HETATM   18  C   UNK N   1      35.343  16.209  10.930  0.00  0.00     0.014 A 
HETATM   19  C   UNK N   1      35.044  17.161   9.934  0.00  0.00     0.003 A 
HETATM   20  C   UNK N   1      34.126  16.856   8.914  0.00  0.00     0.029 A 
BRANCH  17  21
HETATM   21  C   UNK N   1      34.967  13.895  11.889  0.00  0.00     0.049 A 
HETATM   22  C   UNK N   1      35.726  14.130  13.060  0.00  0.00     0.082 A 
HETATM   23  S   UNK N   1      35.642  12.719  13.912  0.00  0.00    -0.084 SA
HETATM   24  C   UNK N   1      34.691  11.875  12.867  0.00  0.00     0.075 A 
HETATM   25  N   UNK N   1      34.401  12.644  11.789  0.00  0.00    -0.351 N 
ATOM     26  HN  UNK N   1      33.833  12.334  11.001  1.00  0.00     0.166 HD
BRANCH  24  27
HETATM   27  C   UNK N   1      34.125  10.526  13.121  0.00  0.00     0.229 C 
BRANCH  27  28
HETATM   28  O   UNK N   1      33.990  10.313  14.489  0.00  0.00    -0.394 OA
HETATM   29  H   UNK N   1      34.100   9.604  15.142  0.00  0.00     0.209 HD
ENDBRANCH  27  28
ENDBRANCH  24  27
ENDBRANCH  17  21
ENDBRANCH  13  15
ENDBRANCH   1  13
BRANCH   7  30
HETATM   30  O   UNK N   1      28.418  17.744   7.888  0.00  0.00    -0.349 OA
BRANCH  30  31
HETATM   31  C   UNK N   1      28.677  17.538   9.230  0.00  0.00     0.171 C 
HETATM   32  C   UNK N   1      29.527  18.663   9.779  0.00  0.00     0.034 C 
ENDBRANCH  30  31
ENDBRANCH   7  30
BRANCH  12  33
HETATM   33  O   UNK N   1      27.990  18.503   5.281  0.00  0.00    -0.349 OA
BRANCH  33  34
HETATM   34  C   UNK N   1      28.055  19.826   4.915  0.00  0.00     0.171 C 
HETATM   35  C   UNK N   1      26.946  20.116   3.925  0.00  0.00     0.034 C 
ENDBRANCH  33  34
ENDBRANCH  12  33
TORSDOF 9
ENDMDL
MODEL 8
REMARK VINA RESULT:      -6.4      6.684     10.178
REMARK  9 active torsions:
REMARK  status: ('A' for Active; 'I' for Inactive)
REMARK    1  A    between atoms: O_1  and  C_2 
REMARK    2  A    between atoms: C_2  and  C_3 
REMARK    3  A    between atoms: C_8  and  C_9 
REMARK    4  A    between atoms: C_14  and  N_15 
REMARK    5  A    between atoms: N_15  and  C_16 
REMARK    6  A    between atoms: C_22  and  O_23 
REMARK    7  A    between atoms: O_23  and  C_24 
REMARK    8  A    between atoms: C_30  and  O_31 
REMARK    9  A    between atoms: O_31  and  C_32 
ROOT
HETATM    1  C   UNK N   1      34.579  12.356  10.981  0.00  0.00     0.119 A 
HETATM    2  N   UNK N   1      33.967  11.459  10.159  0.00  0.00    -0.338 N 
ATOM      3  HN  UNK N   1      33.887  11.653   9.161  1.00  0.00     0.168 HD
HETATM    4  C   UNK N   1      33.462  10.299  10.671  0.00  0.00     0.182 A 
HETATM    5  C   UNK N   1      34.668  12.104  12.337  0.00  0.00     0.038 A 
HETATM    6  C   UNK N   1      35.250  13.051  13.180  0.00  0.00     0.057 A 
HETATM    7  C   UNK N   1      35.315  12.846  14.553  0.00  0.00     0.103 A 
HETATM    8  C   UNK N   1      34.135  10.929  12.855  0.00  0.00     0.050 A 
HETATM    9  N   UNK N   1      33.544  10.039  12.011  0.00  0.00    -0.351 N 
ATOM     10  HN  UNK N   1      33.158   9.169  12.381  1.00  0.00     0.166 HD
HETATM   11  C   UNK N   1      34.202  10.695  14.234  0.00  0.00     0.070 A 
HETATM   12  C   UNK N   1      34.796  11.658  15.093  0.00  0.00     0.104 A 
ENDROOT
BRANCH   1  13
HETATM   13  N   UNK N   1      35.083  13.588  10.532  0.00  0.00    -0.342 N 
HETATM   14  H   UNK N   1      35.635  14.067  11.193  0.00  0.00     0.167 HD
BRANCH  13  15
HETATM   15  C   UNK N   1      34.939  14.254   9.311  0.00  0.00     0.034 A 
HETATM   16  C   UNK N   1      33.753  14.936   9.147  0.00  0.00     0.043 A 
HETATM   17  C   UNK N   1      33.459  15.627   7.988  0.00  0.00    -0.007 A 
HETATM   18  C   UNK N   1      34.400  15.641   6.947  0.00  0.00     0.014 A 
HETATM   19  C   UNK N   1      35.603  14.918   7.085  0.00  0.00     0.003 A 
HETATM   20  C   UNK N   1      35.875  14.216   8.272  0.00  0.00     0.029 A 
BRANCH  17  21
HETATM   21  C   UNK N   1      32.198  16.384   7.954  0.00  0.00     0.049 A 
HETATM   22  C   UNK N   1      31.219  16.152   6.959  0.00  0.00     0.082 A 
HETATM   23  S   UNK N   1      29.934  17.090   7.401  0.00  0.00    -0.084 SA
HETATM   24  C   UNK N   1      30.577  17.731   8.773  0.00  0.00     0.075 A 
HETATM   25  N   UNK N   1      31.835  17.261   8.951  0.00  0.00    -0.351 N 
ATOM     26  HN  UNK N   1      32.440  17.525   9.729  1.00  0.00     0.166 HD
BRANCH  24  27
HETATM   27  C   UNK N   1      29.849  18.590   9.741  0.00  0.00     0.229 C 
BRANCH  27  28
HETATM   28  O   UNK N   1      28.490  18.600   9.445  0.00  0.00    -0.394 OA
HETATM   29  H   UNK N   1      27.901  18.690   8.679  0.00  0.00     0.209 HD
ENDBRANCH  27  28
ENDBRANCH  24  27
ENDBRANCH  17  21
ENDBRANCH  13  15
ENDBRANCH   1  13
BRANCH   7  30
HETATM   30  O   UNK N   1      35.868  13.787  15.362  0.00  0.00    -0.349 OA
BRANCH  30  31
HETATM   31  C   UNK N   1      36.855  14.650  14.924  0.00  0.00     0.171 C 
HETATM   32  C   UNK N   1      37.381  15.475  16.077  0.00  0.00     0.034 C 
ENDBRANCH  30  31
ENDBRANCH   7  30
BRANCH  12  33
HETATM   33  O   UNK N   1      34.883  11.452  16.427  0.00  0.00    -0.349 OA
BRANCH  33  34
HETATM   34  C   UNK N   1      35.219  10.238  16.976  0.00  0.00     0.171 C 
HETATM   35  C   UNK N   1      36.702  10.003  16.777  0.00  0.00     0.034 C 
ENDBRANCH  33  34
ENDBRANCH  12  33
TORSDOF 9
ENDMDL
MODEL 9
REMARK VINA RESULT:      -6.4      2.784      3.883
REMARK  9 active torsions:
REMARK  status: ('A' for Active; 'I' for Inactive)
REMARK    1  A    between atoms: O_1  and  C_2 
REMARK    2  A    between atoms: C_2  and  C_3 
REMARK    3  A    between atoms: C_8  and  C_9 
REMARK    4  A    between atoms: C_14  and  N_15 
REMARK    5  A    between atoms: N_15  and  C_16 
REMARK    6  A    between atoms: C_22  and  O_23 
REMARK    7  A    between atoms: O_23  and  C_24 
REMARK    8  A    between atoms: C_30  and  O_31 
REMARK    9  A    between atoms: O_31  and  C_32 
ROOT
HETATM    1  C   UNK N   1      29.334  17.640   4.447  0.00  0.00     0.119 A 
HETATM    2  N   UNK N   1      29.358  16.896   3.306  0.00  0.00    -0.338 N 
ATOM      3  HN  UNK N   1      28.870  17.224   2.472  1.00  0.00     0.168 HD
HETATM    4  C   UNK N   1      30.037  15.713   3.278  0.00  0.00     0.182 A 
HETATM    5  C   UNK N   1      29.978  17.185   5.583  0.00  0.00     0.038 A 
HETATM    6  C   UNK N   1      29.906  17.928   6.762  0.00  0.00     0.057 A 
HETATM    7  C   UNK N   1      30.505  17.477   7.932  0.00  0.00     0.103 A 
HETATM    8  C   UNK N   1      30.652  15.970   5.552  0.00  0.00     0.050 A 
HETATM    9  N   UNK N   1      30.676  15.252   4.395  0.00  0.00    -0.351 N 
ATOM     10  HN  UNK N   1      31.177  14.363   4.362  1.00  0.00     0.166 HD
HETATM   11  C   UNK N   1      31.275  15.503   6.716  0.00  0.00     0.070 A 
HETATM   12  C   UNK N   1      31.204  16.258   7.917  0.00  0.00     0.104 A 
ENDROOT
BRANCH   1  13
HETATM   13  N   UNK N   1      28.622  18.845   4.562  0.00  0.00    -0.342 N 
HETATM   14  H   UNK N   1      29.140  19.589   4.949  0.00  0.00     0.167 HD
BRANCH  13  15
HETATM   15  C   UNK N   1      27.305  19.174   4.225  0.00  0.00     0.034 A 
HETATM   16  C   UNK N   1      26.341  18.315   4.704  0.00  0.00     0.043 A 
HETATM   17  C   UNK N   1      24.998  18.499   4.438  0.00  0.00    -0.007 A 
HETATM   18  C   UNK N   1      24.603  19.601   3.662  0.00  0.00     0.014 A 
HETATM   19  C   UNK N   1      25.580  20.468   3.134  0.00  0.00     0.003 A 
HETATM   20  C   UNK N   1      26.942  20.254   3.412  0.00  0.00     0.029 A 
BRANCH  17  21
HETATM   21  C   UNK N   1      24.051  17.566   5.066  0.00  0.00     0.049 A 
HETATM   22  C   UNK N   1      24.408  16.228   5.358  0.00  0.00     0.082 A 
HETATM   23  S   UNK N   1      23.119  15.615   6.187  0.00  0.00    -0.084 SA
HETATM   24  C   UNK N   1      22.180  16.966   6.187  0.00  0.00     0.075 A 
HETATM   25  N   UNK N   1      22.815  17.964   5.526  0.00  0.00    -0.351 N 
ATOM     26  HN  UNK N   1      22.426  18.896   5.385  1.00  0.00     0.166 HD
BRANCH  24  27
HETATM   27  C   UNK N   1      20.893  17.117   6.912  0.00  0.00     0.229 C 
BRANCH  27  28
HETATM   28  O   UNK N   1      21.035  16.700   8.232  0.00  0.00    -0.394 OA
HETATM   29  H   UNK N   1      21.712  16.663   8.926  0.00  0.00     0.209 HD
ENDBRANCH  27  28
ENDBRANCH  24  27
ENDBRANCH  17  21
ENDBRANCH  13  15
ENDBRANCH   1  13
BRANCH   7  30
HETATM   30  O   UNK N   1      30.409  18.202   9.076  0.00  0.00    -0.349 OA
BRANCH  30  31
HETATM   31  C   UNK N   1      29.306  18.129   9.906  0.00  0.00     0.171 C 
HETATM   32  C   UNK N   1      28.118  17.573   9.153  0.00  0.00     0.034 C 
ENDBRANCH  30  31
ENDBRANCH   7  30
BRANCH  12  33
HETATM   33  O   UNK N   1      31.805  15.835   9.052  0.00  0.00    -0.349 OA
BRANCH  33  34
HETATM   34  C   UNK N   1      32.614  14.725   9.099  0.00  0.00     0.171 C 
HETATM   35  C   UNK N   1      33.796  15.018  10.000  0.00  0.00     0.034 C 
ENDBRANCH  33  34
ENDBRANCH  12  33
TORSDOF 9
ENDMDL
