REMARK  9 active torsions:
REMARK  status: ('A' for Active; 'I' for Inactive)
REMARK    1  A    between atoms: O_1  and  C_2 
REMARK    2  A    between atoms: C_2  and  C_3 
REMARK    3  A    between atoms: C_8  and  C_9 
REMARK    4  A    between atoms: C_14  and  N_15 
REMARK    5  A    between atoms: N_15  and  C_16 
REMARK    6  A    between atoms: C_22  and  O_23 
REMARK    7  A    between atoms: O_23  and  C_24 
REMARK    8  A    between atoms: C_30  and  O_31 
REMARK    9  A    between atoms: O_31  and  C_32 
ROOT
HETATM    1  C   UNK N   1      -0.973  -1.929  -0.465  0.00  0.00     0.119 A 
HETATM    2  N   UNK N   1      -2.001  -2.821  -0.416  0.00  0.00    -0.338 N 
ATOM      3  HN  UNK N   1      -2.964  -2.496  -0.503  1.00  0.00     0.168 HD
HETATM    4  C   UNK N   1      -1.742  -4.151  -0.252  0.00  0.00     0.182 A 
HETATM    5  C   UNK N   1       0.331  -2.367  -0.325  0.00  0.00     0.038 A 
HETATM    6  C   UNK N   1       1.375  -1.441  -0.325  0.00  0.00     0.057 A 
HETATM    7  C   UNK N   1       2.692  -1.845  -0.143  0.00  0.00     0.103 A 
HETATM    8  C   UNK N   1       0.586  -3.721  -0.140  0.00  0.00     0.050 A 
HETATM    9  N   UNK N   1      -0.457  -4.596  -0.112  0.00  0.00    -0.351 N 
ATOM     10  HN  UNK N   1      -0.278  -5.593   0.014  1.00  0.00     0.166 HD
HETATM   11  C   UNK N   1       1.907  -4.152   0.031  0.00  0.00     0.070 A 
HETATM   12  C   UNK N   1       2.971  -3.211   0.030  0.00  0.00     0.104 A 
ENDROOT
BRANCH   1  13
HETATM   13  N   UNK N   1      -1.165  -0.543  -0.588  0.00  0.00    -0.342 N 
HETATM   14  H   UNK N   1      -0.389  -0.055  -0.949  0.00  0.00     0.167 HD
BRANCH  13  15
HETATM   15  C   UNK N   1      -2.266   0.266  -0.288  0.00  0.00     0.034 A 
HETATM   16  C   UNK N   1      -1.989   1.607  -0.136  0.00  0.00     0.043 A 
HETATM   17  C   UNK N   1      -2.970   2.527   0.178  0.00  0.00    -0.007 A 
HETATM   18  C   UNK N   1      -4.292   2.083   0.341  0.00  0.00     0.014 A 
HETATM   19  C   UNK N   1      -4.585   0.709   0.225  0.00  0.00     0.003 A 
HETATM   20  C   UNK N   1      -3.567  -0.209  -0.088  0.00  0.00     0.029 A 
BRANCH  17  21
HETATM   21  C   UNK N   1      -2.575   3.942   0.238  0.00  0.00     0.049 A 
HETATM   22  C   UNK N   1      -1.216   4.333   0.297  0.00  0.00     0.082 A 
HETATM   23  S   UNK N   1      -1.242   5.980   0.187  0.00  0.00    -0.084 SA
HETATM   24  C   UNK N   1      -2.870   6.177   0.056  0.00  0.00     0.075 A 
HETATM   25  N   UNK N   1      -3.483   4.969   0.108  0.00  0.00    -0.351 N 
ATOM     26  HN  UNK N   1      -4.493   4.837   0.057  1.00  0.00     0.166 HD
BRANCH  24  27
HETATM   27  C   UNK N   1      -3.560   7.465  -0.211  0.00  0.00     0.229 C 
BRANCH  27  28
HETATM   28  O   UNK N   1      -4.482   7.731   0.796  0.00  0.00    -0.394 OA
HETATM   29  H   UNK N   1      -4.643   8.381   1.498  0.00  0.00     0.209 HD
ENDBRANCH  27  28
ENDBRANCH  24  27
ENDBRANCH  17  21
ENDBRANCH  13  15
ENDBRANCH   1  13
BRANCH   7  30
HETATM   30  O   UNK N   1       3.695  -0.929  -0.126  0.00  0.00    -0.349 OA
BRANCH  30  31
HETATM   31  C   UNK N   1       3.459   0.426  -0.261  0.00  0.00     0.171 C 
HETATM   32  C   UNK N   1       4.750   1.201  -0.113  0.00  0.00     0.034 C 
ENDBRANCH  30  31
ENDBRANCH   7  30
BRANCH  12  33
HETATM   33  O   UNK N   1       4.257  -3.602   0.183  0.00  0.00    -0.349 OA
BRANCH  33  34
HETATM   34  C   UNK N   1       4.630  -4.921   0.284  0.00  0.00     0.171 C 
HETATM   35  C   UNK N   1       5.327  -5.333  -0.996  0.00  0.00     0.034 C 
ENDBRANCH  33  34
ENDBRANCH  12  33
TORSDOF 9
