MODEL 1
REMARK VINA RESULT:      -5.6      0.000      0.000
REMARK  9 active torsions:
REMARK  status: ('A' for Active; 'I' for Inactive)
REMARK    1  A    between atoms: C_1  and  O_2 
REMARK    2  A    between atoms: C_1  and  C_3 
REMARK    3  A    between atoms: C_1  and  C_4 
REMARK    4  A    between atoms: C_1  and  C_5 
REMARK    5  A    between atoms: C_4  and  C_6 
REMARK    6  A    between atoms: C_5  and  N_11 
REMARK    7  A    between atoms: C_6  and  C_7 
REMARK    8  A    between atoms: C_7  and  C_8 
REMARK    9  A    between atoms: C_8  and  C_9 
ROOT
HETATM    1  C   UNK N   1      35.568  12.847  12.456  0.00  0.00     0.103 C 
ENDROOT
BRANCH   1   2
HETATM    2  O   UNK N   1      34.290  13.104  11.951  0.00  0.00    -0.383 OA
HETATM    3  H   UNK N   1      33.650  13.055  11.223  0.00  0.00     0.211 HD
ENDBRANCH   1   2
BRANCH   1   4
HETATM    4  C   UNK N   1      35.473  12.930  13.975  0.00  0.00    -0.001 A 
HETATM    5  C   UNK N   1      36.251  13.853  14.698  0.00  0.00     0.013 A 
HETATM    6  C   UNK N   1      36.188  13.903  16.094  0.00  0.00     0.024 A 
HETATM    7  C   UNK N   1      35.350  13.029  16.789  0.00  0.00     0.035 A 
HETATM    8  C   UNK N   1      34.572  12.109  16.091  0.00  0.00     0.048 A 
HETATM    9 Cl   UNK N   1      35.282  13.069  18.537  0.00  0.00    -0.084 Cl
HETATM   10  C   UNK N   1      34.621  12.050  14.699  0.00  0.00     0.045 A 
HETATM   11 Cl   UNK N   1      33.623  10.832  13.908  0.00  0.00    -0.084 Cl
ENDBRANCH   1   4
BRANCH   1  12
HETATM   12  C   UNK N   1      35.979  11.468  11.904  0.00  0.00     0.045 C 
BRANCH  12  13
HETATM   13  C   UNK N   1      37.465  11.142  11.986  0.00  0.00     0.003 C 
BRANCH  13  14
HETATM   14  C   UNK N   1      37.644  10.028  13.006  0.00  0.00     0.000 C 
BRANCH  14  15
HETATM   15  C   UNK N   1      38.209  10.546  14.319  0.00  0.00    -0.000 C 
BRANCH  15  16
HETATM   16  C   UNK N   1      37.493   9.924  15.506  0.00  0.00    -0.005 C 
HETATM   17  C   UNK N   1      36.503   8.882  15.025  0.00  0.00     0.005 C 
ENDBRANCH  15  16
ENDBRANCH  14  15
ENDBRANCH  13  14
ENDBRANCH  12  13
ENDBRANCH   1  12
BRANCH   1  18
HETATM   18  C   UNK N   1      36.560  13.917  11.963  0.00  0.00     0.172 C 
BRANCH  18  19
HETATM   19  N   UNK N   1      35.927  14.938  11.136  0.00  0.00    -0.348 N 
HETATM   20  C   UNK N   1      35.696  14.895   9.817  0.00  0.00     0.108 A 
HETATM   21  C   UNK N   1      35.052  16.070   9.474  0.00  0.00     0.106 A 
HETATM   22  N   UNK N   1      34.898  16.818  10.587  0.00  0.00    -0.361 N 
HETATM   23  C   UNK N   1      35.444  16.103  11.591  0.00  0.00     0.182 A 
ATOM     24  HN  UNK N   1      34.460  17.736  10.654  1.00  0.00     0.166 HD
ENDBRANCH  18  19
ENDBRANCH   1  18
TORSDOF 9
ENDMDL
MODEL 2
REMARK VINA RESULT:      -5.0      2.020      3.835
REMARK  9 active torsions:
REMARK  status: ('A' for Active; 'I' for Inactive)
REMARK    1  A    between atoms: C_1  and  O_2 
REMARK    2  A    between atoms: C_1  and  C_3 
REMARK    3  A    between atoms: C_1  and  C_4 
REMARK    4  A    between atoms: C_1  and  C_5 
REMARK    5  A    between atoms: C_4  and  C_6 
REMARK    6  A    between atoms: C_5  and  N_11 
REMARK    7  A    between atoms: C_6  and  C_7 
REMARK    8  A    between atoms: C_7  and  C_8 
REMARK    9  A    between atoms: C_8  and  C_9 
ROOT
HETATM    1  C   UNK N   1      35.897  12.820  14.375  0.00  0.00     0.103 C 
ENDROOT
BRANCH   1   2
HETATM    2  O   UNK N   1      37.001  13.669  14.504  0.00  0.00    -0.383 OA
HETATM    3  H   UNK N   1      37.584  14.207  15.063  0.00  0.00     0.211 HD
ENDBRANCH   1   2
BRANCH   1   4
HETATM    4  C   UNK N   1      36.437  11.398  14.275  0.00  0.00    -0.001 A 
HETATM    5  C   UNK N   1      37.821  11.146  14.322  0.00  0.00     0.013 A 
HETATM    6  C   UNK N   1      38.315   9.845  14.194  0.00  0.00     0.024 A 
HETATM    7  C   UNK N   1      37.436   8.776  14.013  0.00  0.00     0.035 A 
HETATM    8  C   UNK N   1      36.063   9.005  13.964  0.00  0.00     0.048 A 
HETATM    9 Cl   UNK N   1      38.048   7.146  13.829  0.00  0.00    -0.084 Cl
HETATM   10  C   UNK N   1      35.555  10.297  14.094  0.00  0.00     0.045 A 
HETATM   11 Cl   UNK N   1      33.807  10.489  13.989  0.00  0.00    -0.084 Cl
ENDBRANCH   1   4
BRANCH   1  12
HETATM   12  C   UNK N   1      34.999  13.091  15.597  0.00  0.00     0.045 C 
BRANCH  12  13
HETATM   13  C   UNK N   1      35.727  13.477  16.878  0.00  0.00     0.003 C 
BRANCH  13  14
HETATM   14  C   UNK N   1      35.164  12.632  18.010  0.00  0.00     0.000 C 
BRANCH  14  15
HETATM   15  C   UNK N   1      35.066  11.163  17.629  0.00  0.00    -0.000 C 
BRANCH  15  16
HETATM   16  C   UNK N   1      36.366  10.434  17.922  0.00  0.00    -0.005 C 
HETATM   17  C   UNK N   1      36.220   8.962  17.593  0.00  0.00     0.005 C 
ENDBRANCH  15  16
ENDBRANCH  14  15
ENDBRANCH  13  14
ENDBRANCH  12  13
ENDBRANCH   1  12
BRANCH   1  18
HETATM   18  C   UNK N   1      35.124  13.147  13.083  0.00  0.00     0.172 C 
BRANCH  18  19
HETATM   19  N   UNK N   1      35.956  13.794  12.074  0.00  0.00    -0.348 N 
HETATM   20  C   UNK N   1      36.802  13.212  11.214  0.00  0.00     0.108 A 
HETATM   21  C   UNK N   1      37.348  14.214  10.433  0.00  0.00     0.106 A 
HETATM   22  N   UNK N   1      36.831  15.397  10.826  0.00  0.00    -0.361 N 
HETATM   23  C   UNK N   1      35.982  15.113  11.833  0.00  0.00     0.182 A 
ATOM     24  HN  UNK N   1      37.040  16.317  10.440  1.00  0.00     0.166 HD
ENDBRANCH  18  19
ENDBRANCH   1  18
TORSDOF 9
ENDMDL
MODEL 3
REMARK VINA RESULT:      -5.0     20.305     23.456
REMARK  9 active torsions:
REMARK  status: ('A' for Active; 'I' for Inactive)
REMARK    1  A    between atoms: C_1  and  O_2 
REMARK    2  A    between atoms: C_1  and  C_3 
REMARK    3  A    between atoms: C_1  and  C_4 
REMARK    4  A    between atoms: C_1  and  C_5 
REMARK    5  A    between atoms: C_4  and  C_6 
REMARK    6  A    between atoms: C_5  and  N_11 
REMARK    7  A    between atoms: C_6  and  C_7 
REMARK    8  A    between atoms: C_7  and  C_8 
REMARK    9  A    between atoms: C_8  and  C_9 
ROOT
HETATM    1  C   UNK N   1      27.139  24.757  -4.322  0.00  0.00     0.103 C 
ENDROOT
BRANCH   1   2
HETATM    2  O   UNK N   1      26.413  25.003  -3.153  0.00  0.00    -0.383 OA
HETATM    3  H   UNK N   1      25.866  24.675  -2.421  0.00  0.00     0.211 HD
ENDBRANCH   1   2
BRANCH   1   4
HETATM    4  C   UNK N   1      28.372  23.956  -3.922  0.00  0.00    -0.001 A 
HETATM    5  C   UNK N   1      28.575  23.561  -2.587  0.00  0.00     0.013 A 
HETATM    6  C   UNK N   1      29.724  22.857  -2.216  0.00  0.00     0.024 A 
HETATM    7  C   UNK N   1      30.691  22.540  -3.173  0.00  0.00     0.035 A 
HETATM    8  C   UNK N   1      30.508  22.922  -4.499  0.00  0.00     0.048 A 
HETATM    9 Cl   UNK N   1      32.143  21.679  -2.713  0.00  0.00    -0.084 Cl
HETATM   10  C   UNK N   1      29.365  23.622  -4.885  0.00  0.00     0.045 A 
HETATM   11 Cl   UNK N   1      29.238  24.087  -6.579  0.00  0.00    -0.084 Cl
ENDBRANCH   1   4
BRANCH   1  12
HETATM   12  C   UNK N   1      26.176  24.035  -5.284  0.00  0.00     0.045 C 
BRANCH  12  13
HETATM   13  C   UNK N   1      25.713  24.846  -6.486  0.00  0.00     0.003 C 
BRANCH  13  14
HETATM   14  C   UNK N   1      25.775  23.947  -7.712  0.00  0.00     0.000 C 
BRANCH  14  15
HETATM   15  C   UNK N   1      26.106  22.509  -7.344  0.00  0.00    -0.000 C 
BRANCH  15  16
HETATM   16  C   UNK N   1      25.014  21.560  -7.810  0.00  0.00    -0.005 C 
HETATM   17  C   UNK N   1      24.204  21.081  -6.622  0.00  0.00     0.005 C 
ENDBRANCH  15  16
ENDBRANCH  14  15
ENDBRANCH  13  14
ENDBRANCH  12  13
ENDBRANCH   1  12
BRANCH   1  18
HETATM   18  C   UNK N   1      27.597  26.087  -4.952  0.00  0.00     0.172 C 
BRANCH  18  19
HETATM   19  N   UNK N   1      27.156  27.253  -4.195  0.00  0.00    -0.348 N 
HETATM   20  C   UNK N   1      27.904  28.073  -3.445  0.00  0.00     0.108 A 
HETATM   21  C   UNK N   1      27.065  29.050  -2.941  0.00  0.00     0.106 A 
HETATM   22  N   UNK N   1      25.813  28.814  -3.387  0.00  0.00    -0.361 N 
HETATM   23  C   UNK N   1      25.895  27.708  -4.152  0.00  0.00     0.182 A 
ATOM     24  HN  UNK N   1      24.977  29.362  -3.186  1.00  0.00     0.166 HD
ENDBRANCH  18  19
ENDBRANCH   1  18
TORSDOF 9
ENDMDL
MODEL 4
REMARK VINA RESULT:      -5.0      5.411      8.946
REMARK  9 active torsions:
REMARK  status: ('A' for Active; 'I' for Inactive)
REMARK    1  A    between atoms: C_1  and  O_2 
REMARK    2  A    between atoms: C_1  and  C_3 
REMARK    3  A    between atoms: C_1  and  C_4 
REMARK    4  A    between atoms: C_1  and  C_5 
REMARK    5  A    between atoms: C_4  and  C_6 
REMARK    6  A    between atoms: C_5  and  N_11 
REMARK    7  A    between atoms: C_6  and  C_7 
REMARK    8  A    between atoms: C_7  and  C_8 
REMARK    9  A    between atoms: C_8  and  C_9 
ROOT
HETATM    1  C   UNK N   1      32.190  16.801   7.833  0.00  0.00     0.103 C 
ENDROOT
BRANCH   1   2
HETATM    2  O   UNK N   1      31.288  15.752   7.634  0.00  0.00    -0.383 OA
HETATM    3  H   UNK N   1      30.787  15.179   7.031  0.00  0.00     0.211 HD
ENDBRANCH   1   2
BRANCH   1   4
HETATM    4  C   UNK N   1      33.182  16.342   8.895  0.00  0.00    -0.001 A 
HETATM    5  C   UNK N   1      32.951  15.170   9.640  0.00  0.00     0.013 A 
HETATM    6  C   UNK N   1      33.846  14.771  10.637  0.00  0.00     0.024 A 
HETATM    7  C   UNK N   1      34.981  15.537  10.910  0.00  0.00     0.035 A 
HETATM    8  C   UNK N   1      35.226  16.699  10.183  0.00  0.00     0.048 A 
HETATM    9 Cl   UNK N   1      36.092  15.057  12.173  0.00  0.00    -0.084 Cl
HETATM   10  C   UNK N   1      34.345  17.109   9.181  0.00  0.00     0.045 A 
HETATM   11 Cl   UNK N   1      34.725  18.608   8.338  0.00  0.00    -0.084 Cl
ENDBRANCH   1   4
BRANCH   1  12
HETATM   12  C   UNK N   1      32.806  17.107   6.454  0.00  0.00     0.045 C 
BRANCH  12  13
HETATM   13  C   UNK N   1      31.823  17.173   5.292  0.00  0.00     0.003 C 
BRANCH  13  14
HETATM   14  C   UNK N   1      32.564  17.721   4.082  0.00  0.00     0.000 C 
BRANCH  14  15
HETATM   15  C   UNK N   1      32.450  16.797   2.880  0.00  0.00    -0.000 C 
BRANCH  15  16
HETATM   16  C   UNK N   1      33.428  15.639   2.986  0.00  0.00    -0.005 C 
HETATM   17  C   UNK N   1      32.683  14.322   2.904  0.00  0.00     0.005 C 
ENDBRANCH  15  16
ENDBRANCH  14  15
ENDBRANCH  13  14
ENDBRANCH  12  13
ENDBRANCH   1  12
BRANCH   1  18
HETATM   18  C   UNK N   1      31.448  18.047   8.354  0.00  0.00     0.172 C 
BRANCH  18  19
HETATM   19  N   UNK N   1      30.018  17.821   8.533  0.00  0.00    -0.348 N 
HETATM   20  C   UNK N   1      29.390  17.380   9.630  0.00  0.00     0.108 A 
HETATM   21  C   UNK N   1      28.037  17.347   9.345  0.00  0.00     0.106 A 
HETATM   22  N   UNK N   1      27.855  17.768   8.075  0.00  0.00    -0.361 N 
HETATM   23  C   UNK N   1      29.083  18.050   7.599  0.00  0.00     0.182 A 
ATOM     24  HN  UNK N   1      26.969  17.854   7.578  1.00  0.00     0.166 HD
ENDBRANCH  18  19
ENDBRANCH   1  18
TORSDOF 9
ENDMDL
MODEL 5
REMARK VINA RESULT:      -4.9     20.625     23.434
REMARK  9 active torsions:
REMARK  status: ('A' for Active; 'I' for Inactive)
REMARK    1  A    between atoms: C_1  and  O_2 
REMARK    2  A    between atoms: C_1  and  C_3 
REMARK    3  A    between atoms: C_1  and  C_4 
REMARK    4  A    between atoms: C_1  and  C_5 
REMARK    5  A    between atoms: C_4  and  C_6 
REMARK    6  A    between atoms: C_5  and  N_11 
REMARK    7  A    between atoms: C_6  and  C_7 
REMARK    8  A    between atoms: C_7  and  C_8 
REMARK    9  A    between atoms: C_8  and  C_9 
ROOT
HETATM    1  C   UNK N   1      27.643  25.023  -4.628  0.00  0.00     0.103 C 
ENDROOT
BRANCH   1   2
HETATM    2  O   UNK N   1      28.222  26.064  -5.359  0.00  0.00    -0.383 OA
HETATM    3  H   UNK N   1      28.143  26.769  -6.022  0.00  0.00     0.211 HD
ENDBRANCH   1   2
BRANCH   1   4
HETATM    4  C   UNK N   1      27.193  23.968  -5.632  0.00  0.00    -0.001 A 
HETATM    5  C   UNK N   1      25.833  23.630  -5.763  0.00  0.00     0.013 A 
HETATM    6  C   UNK N   1      25.428  22.637  -6.660  0.00  0.00     0.024 A 
HETATM    7  C   UNK N   1      26.374  21.963  -7.435  0.00  0.00     0.035 A 
HETATM    8  C   UNK N   1      27.723  22.285  -7.319  0.00  0.00     0.048 A 
HETATM    9 Cl   UNK N   1      25.876  20.703  -8.543  0.00  0.00    -0.084 Cl
HETATM   10  C   UNK N   1      28.143  23.276  -6.432  0.00  0.00     0.045 A 
HETATM   11 Cl   UNK N   1      29.874  23.589  -6.335  0.00  0.00    -0.084 Cl
ENDBRANCH   1   4
BRANCH   1  12
HETATM   12  C   UNK N   1      28.715  24.553  -3.625  0.00  0.00     0.045 C 
BRANCH  12  13
HETATM   13  C   UNK N   1      28.230  23.603  -2.538  0.00  0.00     0.003 C 
BRANCH  13  14
HETATM   14  C   UNK N   1      29.445  22.901  -1.952  0.00  0.00     0.000 C 
BRANCH  14  15
HETATM   15  C   UNK N   1      30.715  23.223  -2.725  0.00  0.00    -0.000 C 
BRANCH  15  16
HETATM   16  C   UNK N   1      31.494  21.960  -3.047  0.00  0.00    -0.005 C 
HETATM   17  C   UNK N   1      30.627  21.007  -3.845  0.00  0.00     0.005 C 
ENDBRANCH  15  16
ENDBRANCH  14  15
ENDBRANCH  13  14
ENDBRANCH  12  13
ENDBRANCH   1  12
BRANCH   1  18
HETATM   18  C   UNK N   1      26.408  25.534  -3.861  0.00  0.00     0.172 C 
BRANCH  18  19
HETATM   19  N   UNK N   1      26.362  26.989  -3.768  0.00  0.00    -0.348 N 
HETATM   20  C   UNK N   1      27.162  27.789  -3.051  0.00  0.00     0.108 A 
HETATM   21  C   UNK N   1      26.763  29.091  -3.292  0.00  0.00     0.106 A 
HETATM   22  N   UNK N   1      25.723  29.072  -4.151  0.00  0.00    -0.361 N 
HETATM   23  C   UNK N   1      25.496  27.772  -4.427  0.00  0.00     0.182 A 
ATOM     24  HN  UNK N   1      25.214  29.876  -4.517  1.00  0.00     0.166 HD
ENDBRANCH  18  19
ENDBRANCH   1  18
TORSDOF 9
ENDMDL
MODEL 6
REMARK VINA RESULT:      -4.8     20.535     23.531
REMARK  9 active torsions:
REMARK  status: ('A' for Active; 'I' for Inactive)
REMARK    1  A    between atoms: C_1  and  O_2 
REMARK    2  A    between atoms: C_1  and  C_3 
REMARK    3  A    between atoms: C_1  and  C_4 
REMARK    4  A    between atoms: C_1  and  C_5 
REMARK    5  A    between atoms: C_4  and  C_6 
REMARK    6  A    between atoms: C_5  and  N_11 
REMARK    7  A    between atoms: C_6  and  C_7 
REMARK    8  A    between atoms: C_7  and  C_8 
REMARK    9  A    between atoms: C_8  and  C_9 
ROOT
HETATM    1  C   UNK N   1      27.224  24.841  -4.164  0.00  0.00     0.103 C 
ENDROOT
BRANCH   1   2
HETATM    2  O   UNK N   1      25.953  24.270  -4.048  0.00  0.00    -0.383 OA
HETATM    3  H   UNK N   1      24.988  24.352  -4.104  0.00  0.00     0.211 HD
ENDBRANCH   1   2
BRANCH   1   4
HETATM    4  C   UNK N   1      27.048  26.350  -4.041  0.00  0.00    -0.001 A 
HETATM    5  C   UNK N   1      25.767  26.933  -4.069  0.00  0.00     0.013 A 
HETATM    6  C   UNK N   1      25.611  28.320  -3.991  0.00  0.00     0.024 A 
HETATM    7  C   UNK N   1      26.732  29.147  -3.888  0.00  0.00     0.035 A 
HETATM    8  C   UNK N   1      28.007  28.588  -3.858  0.00  0.00     0.048 A 
HETATM    9 Cl   UNK N   1      26.546  30.885  -3.813  0.00  0.00    -0.084 Cl
HETATM   10  C   UNK N   1      28.179  27.206  -3.931  0.00  0.00     0.045 A 
HETATM   11 Cl   UNK N   1      29.832  26.598  -3.916  0.00  0.00    -0.084 Cl
ENDBRANCH   1   4
BRANCH   1  12
HETATM   12  C   UNK N   1      28.089  24.194  -3.066  0.00  0.00     0.045 C 
BRANCH  12  13
HETATM   13  C   UNK N   1      29.104  23.165  -3.548  0.00  0.00     0.003 C 
BRANCH  13  14
HETATM   14  C   UNK N   1      30.201  23.062  -2.499  0.00  0.00     0.000 C 
BRANCH  14  15
HETATM   15  C   UNK N   1      31.254  22.033  -2.878  0.00  0.00    -0.000 C 
BRANCH  15  16
HETATM   16  C   UNK N   1      30.652  20.917  -3.714  0.00  0.00    -0.005 C 
HETATM   17  C   UNK N   1      31.714  20.306  -4.605  0.00  0.00     0.005 C 
ENDBRANCH  15  16
ENDBRANCH  14  15
ENDBRANCH  13  14
ENDBRANCH  12  13
ENDBRANCH   1  12
BRANCH   1  18
HETATM   18  C   UNK N   1      27.823  24.525  -5.548  0.00  0.00     0.172 C 
BRANCH  18  19
HETATM   19  N   UNK N   1      26.840  23.984  -6.480  0.00  0.00    -0.348 N 
HETATM   20  C   UNK N   1      26.617  22.698  -6.779  0.00  0.00     0.108 A 
HETATM   21  C   UNK N   1      25.576  22.662  -7.690  0.00  0.00     0.106 A 
HETATM   22  N   UNK N   1      25.177  23.927  -7.938  0.00  0.00    -0.361 N 
HETATM   23  C   UNK N   1      25.968  24.719  -7.187  0.00  0.00     0.182 A 
ATOM     24  HN  UNK N   1      24.431  24.223  -8.566  1.00  0.00     0.166 HD
ENDBRANCH  18  19
ENDBRANCH   1  18
TORSDOF 9
ENDMDL
MODEL 7
REMARK VINA RESULT:      -4.8     21.703     24.068
REMARK  9 active torsions:
REMARK  status: ('A' for Active; 'I' for Inactive)
REMARK    1  A    between atoms: C_1  and  O_2 
REMARK    2  A    between atoms: C_1  and  C_3 
REMARK    3  A    between atoms: C_1  and  C_4 
REMARK    4  A    between atoms: C_1  and  C_5 
REMARK    5  A    between atoms: C_4  and  C_6 
REMARK    6  A    between atoms: C_5  and  N_11 
REMARK    7  A    between atoms: C_6  and  C_7 
REMARK    8  A    between atoms: C_7  and  C_8 
REMARK    9  A    between atoms: C_8  and  C_9 
ROOT
HETATM    1  C   UNK N   1      26.181  25.502  -6.155  0.00  0.00     0.103 C 
ENDROOT
BRANCH   1   2
HETATM    2  O   UNK N   1      24.882  25.388  -5.650  0.00  0.00    -0.383 OA
HETATM    3  H   UNK N   1      24.096  24.847  -5.472  0.00  0.00     0.211 HD
ENDBRANCH   1   2
BRANCH   1   4
HETATM    4  C   UNK N   1      27.113  24.850  -5.140  0.00  0.00    -0.001 A 
HETATM    5  C   UNK N   1      26.620  24.369  -3.912  0.00  0.00     0.013 A 
HETATM    6  C   UNK N   1      27.484  23.804  -2.969  0.00  0.00     0.024 A 
HETATM    7  C   UNK N   1      28.851  23.714  -3.235  0.00  0.00     0.035 A 
HETATM    8  C   UNK N   1      29.357  24.183  -4.445  0.00  0.00     0.048 A 
HETATM    9 Cl   UNK N   1      29.941  23.028  -2.050  0.00  0.00    -0.084 Cl
HETATM   10  C   UNK N   1      28.508  24.746  -5.397  0.00  0.00     0.045 A 
HETATM   11 Cl   UNK N   1      29.246  25.339  -6.883  0.00  0.00    -0.084 Cl
ENDBRANCH   1   4
BRANCH   1  12
HETATM   12  C   UNK N   1      26.163  24.837  -7.545  0.00  0.00     0.045 C 
BRANCH  12  13
HETATM   13  C   UNK N   1      25.841  23.349  -7.560  0.00  0.00     0.003 C 
BRANCH  13  14
HETATM   14  C   UNK N   1      27.003  22.624  -8.221  0.00  0.00     0.000 C 
BRANCH  14  15
HETATM   15  C   UNK N   1      27.697  21.671  -7.262  0.00  0.00    -0.000 C 
BRANCH  15  16
HETATM   16  C   UNK N   1      29.207  21.751  -7.410  0.00  0.00    -0.005 C 
HETATM   17  C   UNK N   1      29.879  20.980  -6.291  0.00  0.00     0.005 C 
ENDBRANCH  15  16
ENDBRANCH  14  15
ENDBRANCH  13  14
ENDBRANCH  12  13
ENDBRANCH   1  12
BRANCH   1  18
HETATM   18  C   UNK N   1      26.567  26.987  -6.297  0.00  0.00     0.172 C 
BRANCH  18  19
HETATM   19  N   UNK N   1      26.584  27.692  -5.021  0.00  0.00    -0.348 N 
HETATM   20  C   UNK N   1      27.652  28.099  -4.324  0.00  0.00     0.108 A 
HETATM   21  C   UNK N   1      27.185  28.745  -3.194  0.00  0.00     0.106 A 
HETATM   22  N   UNK N   1      25.836  28.723  -3.211  0.00  0.00    -0.361 N 
HETATM   23  C   UNK N   1      25.492  28.071  -4.340  0.00  0.00     0.182 A 
ATOM     24  HN  UNK N   1      25.206  29.118  -2.514  1.00  0.00     0.166 HD
ENDBRANCH  18  19
ENDBRANCH   1  18
TORSDOF 9
ENDMDL
MODEL 8
REMARK VINA RESULT:      -4.7      9.187     12.366
REMARK  9 active torsions:
REMARK  status: ('A' for Active; 'I' for Inactive)
REMARK    1  A    between atoms: C_1  and  O_2 
REMARK    2  A    between atoms: C_1  and  C_3 
REMARK    3  A    between atoms: C_1  and  C_4 
REMARK    4  A    between atoms: C_1  and  C_5 
REMARK    5  A    between atoms: C_4  and  C_6 
REMARK    6  A    between atoms: C_5  and  N_11 
REMARK    7  A    between atoms: C_6  and  C_7 
REMARK    8  A    between atoms: C_7  and  C_8 
REMARK    9  A    between atoms: C_8  and  C_9 
ROOT
HETATM    1  C   UNK N   1      29.697  16.807   5.430  0.00  0.00     0.103 C 
ENDROOT
BRANCH   1   2
HETATM    2  O   UNK N   1      29.667  17.578   4.264  0.00  0.00    -0.383 OA
HETATM    3  H   UNK N   1      29.784  18.434   3.821  0.00  0.00     0.211 HD
ENDBRANCH   1   2
BRANCH   1   4
HETATM    4  C   UNK N   1      30.982  17.163   6.168  0.00  0.00    -0.001 A 
HETATM    5  C   UNK N   1      30.971  17.427   7.551  0.00  0.00     0.013 A 
HETATM    6  C   UNK N   1      32.145  17.788   8.218  0.00  0.00     0.024 A 
HETATM    7  C   UNK N   1      33.347  17.895   7.515  0.00  0.00     0.035 A 
HETATM    8  C   UNK N   1      33.377  17.637   6.147  0.00  0.00     0.048 A 
HETATM    9 Cl   UNK N   1      34.816  18.370   8.339  0.00  0.00    -0.084 Cl
HETATM   10  C   UNK N   1      32.215  17.272   5.468  0.00  0.00     0.045 A 
HETATM   11 Cl   UNK N   1      32.349  16.996   3.733  0.00  0.00    -0.084 Cl
ENDBRANCH   1   4
BRANCH   1  12
HETATM   12  C   UNK N   1      28.397  17.127   6.193  0.00  0.00     0.045 C 
BRANCH  12  13
HETATM   13  C   UNK N   1      27.432  18.068   5.484  0.00  0.00     0.003 C 
BRANCH  13  14
HETATM   14  C   UNK N   1      27.527  19.430   6.154  0.00  0.00     0.000 C 
BRANCH  14  15
HETATM   15  C   UNK N   1      27.216  20.562   5.187  0.00  0.00    -0.000 C 
BRANCH  15  16
HETATM   16  C   UNK N   1      27.186  20.063   3.752  0.00  0.00    -0.005 C 
HETATM   17  C   UNK N   1      25.897  20.494   3.081  0.00  0.00     0.005 C 
ENDBRANCH  15  16
ENDBRANCH  14  15
ENDBRANCH  13  14
ENDBRANCH  12  13
ENDBRANCH   1  12
BRANCH   1  18
HETATM   18  C   UNK N   1      29.731  15.308   5.074  0.00  0.00     0.172 C 
BRANCH  18  19
HETATM   19  N   UNK N   1      28.994  14.999   3.854  0.00  0.00    -0.348 N 
HETATM   20  C   UNK N   1      27.679  14.779   3.724  0.00  0.00     0.108 A 
HETATM   21  C   UNK N   1      27.430  14.553   2.383  0.00  0.00     0.106 A 
HETATM   22  N   UNK N   1      28.596  14.636   1.708  0.00  0.00    -0.361 N 
HETATM   23  C   UNK N   1      29.539  14.909   2.631  0.00  0.00     0.182 A 
ATOM     24  HN  UNK N   1      28.735  14.516   0.705  1.00  0.00     0.166 HD
ENDBRANCH  18  19
ENDBRANCH   1  18
TORSDOF 9
ENDMDL
MODEL 9
REMARK VINA RESULT:      -4.7      9.623     12.668
REMARK  9 active torsions:
REMARK  status: ('A' for Active; 'I' for Inactive)
REMARK    1  A    between atoms: C_1  and  O_2 
REMARK    2  A    between atoms: C_1  and  C_3 
REMARK    3  A    between atoms: C_1  and  C_4 
REMARK    4  A    between atoms: C_1  and  C_5 
REMARK    5  A    between atoms: C_4  and  C_6 
REMARK    6  A    between atoms: C_5  and  N_11 
REMARK    7  A    between atoms: C_6  and  C_7 
REMARK    8  A    between atoms: C_7  and  C_8 
REMARK    9  A    between atoms: C_8  and  C_9 
ROOT
HETATM    1  C   UNK N   1      28.045  17.311   6.315  0.00  0.00     0.103 C 
ENDROOT
BRANCH   1   2
HETATM    2  O   UNK N   1      27.199  16.988   7.380  0.00  0.00    -0.383 OA
HETATM    3  H   UNK N   1      26.494  17.239   7.997  0.00  0.00     0.211 HD
ENDBRANCH   1   2
BRANCH   1   4
HETATM    4  C   UNK N   1      27.227  18.142   5.332  0.00  0.00    -0.001 A 
HETATM    5  C   UNK N   1      27.683  19.400   4.896  0.00  0.00     0.013 A 
HETATM    6  C   UNK N   1      26.914  20.175   4.023  0.00  0.00     0.024 A 
HETATM    7  C   UNK N   1      25.677  19.707   3.575  0.00  0.00     0.035 A 
HETATM    8  C   UNK N   1      25.210  18.465   3.995  0.00  0.00     0.048 A 
HETATM    9 Cl   UNK N   1      24.698  20.682   2.500  0.00  0.00    -0.084 Cl
HETATM   10  C   UNK N   1      25.967  17.678   4.863  0.00  0.00     0.045 A 
HETATM   11 Cl   UNK N   1      25.277  16.136   5.361  0.00  0.00    -0.084 Cl
ENDBRANCH   1   4
BRANCH   1  12
HETATM   12  C   UNK N   1      29.256  18.037   6.931  0.00  0.00     0.045 C 
BRANCH  12  13
HETATM   13  C   UNK N   1      29.118  18.420   8.398  0.00  0.00     0.003 C 
BRANCH  13  14
HETATM   14  C   UNK N   1      30.503  18.377   9.026  0.00  0.00     0.000 C 
BRANCH  14  15
HETATM   15  C   UNK N   1      31.458  17.497   8.235  0.00  0.00    -0.000 C 
BRANCH  15  16
HETATM   16  C   UNK N   1      32.848  18.108   8.183  0.00  0.00    -0.005 C 
HETATM   17  C   UNK N   1      33.555  17.679   6.913  0.00  0.00     0.005 C 
ENDBRANCH  15  16
ENDBRANCH  14  15
ENDBRANCH  13  14
ENDBRANCH  12  13
ENDBRANCH   1  12
BRANCH   1  18
HETATM   18  C   UNK N   1      28.518  16.029   5.604  0.00  0.00     0.172 C 
BRANCH  18  19
HETATM   19  N   UNK N   1      29.512  16.290   4.568  0.00  0.00    -0.348 N 
HETATM   20  C   UNK N   1      30.845  16.303   4.697  0.00  0.00     0.108 A 
HETATM   21  C   UNK N   1      31.376  16.569   3.448  0.00  0.00     0.106 A 
HETATM   22  N   UNK N   1      30.361  16.717   2.571  0.00  0.00    -0.361 N 
HETATM   23  C   UNK N   1      29.230  16.543   3.282  0.00  0.00     0.182 A 
ATOM     24  HN  UNK N   1      30.436  16.920   1.575  1.00  0.00     0.166 HD
ENDBRANCH  18  19
ENDBRANCH   1  18
TORSDOF 9
ENDMDL
