MODEL 1
REMARK VINA RESULT:      -4.0      0.000      0.000
REMARK  9 active torsions:
REMARK  status: ('A' for Active; 'I' for Inactive)
REMARK    1  A    between atoms: O_2  and  C_3 
REMARK    2  A    between atoms: C_3  and  C_4 
REMARK    3  A    between atoms: C_4  and  O_5 
REMARK    4  A    between atoms: O_5  and  C_6 
REMARK    5  A    between atoms: C_6  and  C_7 
REMARK    6  A    between atoms: C_7  and  O_8 
REMARK    7  A    between atoms: O_8  and  C_9 
REMARK    8  A    between atoms: C_9  and  C_10 
REMARK    9  A    between atoms: C_10  and  O_11 
ROOT
HETATM    1  C   UNK N   1      21.125  18.451   4.632  0.00  0.00     0.193 C 
ENDROOT
BRANCH   1   2
HETATM    2  O   UNK N   1      20.904  19.814   4.475  0.00  0.00    -0.387 OA
BRANCH   2   3
HETATM    3  C   UNK N   1      20.353  19.944   3.203  0.00  0.00     0.193 C 
BRANCH   3   4
HETATM    4  C   UNK N   1      21.376  20.599   2.302  0.00  0.00     0.193 C 
BRANCH   4   5
HETATM    5  O   UNK N   1      22.334  21.257   3.067  0.00  0.00    -0.394 OA
HETATM    6  C   UNK N   1      23.528  20.611   2.746  0.00  0.00     0.201 C 
ENDBRANCH   4   5
ENDBRANCH   3   4
ENDBRANCH   2   3
ENDBRANCH   1   2
BRANCH   1   7
HETATM    7  C   UNK N   1      21.747  18.205   5.990  0.00  0.00     0.193 C 
BRANCH   7   8
HETATM    8  O   UNK N   1      20.881  18.668   6.974  0.00  0.00    -0.387 OA
BRANCH   8   9
HETATM    9  C   UNK N   1      20.573  17.547   7.740  0.00  0.00     0.193 C 
BRANCH   9  10
HETATM   10  C   UNK N   1      19.566  17.949   8.793  0.00  0.00     0.193 C 
BRANCH  10  11
HETATM   11  O   UNK N   1      20.036  19.047   9.508  0.00  0.00    -0.394 OA
HETATM   12  C   UNK N   1      19.051  19.274  10.468  0.00  0.00     0.201 C 
ENDBRANCH  10  11
ENDBRANCH   9  10
ENDBRANCH   8   9
ENDBRANCH   7   8
ENDBRANCH   1   7
TORSDOF 9
ENDMDL
MODEL 2
REMARK VINA RESULT:      -3.9     14.791     16.403
REMARK  9 active torsions:
REMARK  status: ('A' for Active; 'I' for Inactive)
REMARK    1  A    between atoms: O_2  and  C_3 
REMARK    2  A    between atoms: C_3  and  C_4 
REMARK    3  A    between atoms: C_4  and  O_5 
REMARK    4  A    between atoms: O_5  and  C_6 
REMARK    5  A    between atoms: C_6  and  C_7 
REMARK    6  A    between atoms: C_7  and  O_8 
REMARK    7  A    between atoms: O_8  and  C_9 
REMARK    8  A    between atoms: C_9  and  C_10 
REMARK    9  A    between atoms: C_10  and  O_11 
ROOT
HETATM    1  C   UNK N   1      34.378  15.535  10.631  0.00  0.00     0.193 C 
ENDROOT
BRANCH   1   2
HETATM    2  O   UNK N   1      34.270  14.591  11.644  0.00  0.00    -0.387 OA
BRANCH   2   3
HETATM    3  C   UNK N   1      35.553  14.485  12.176  0.00  0.00     0.193 C 
BRANCH   3   4
HETATM    4  C   UNK N   1      35.516  13.506  13.327  0.00  0.00     0.193 C 
BRANCH   4   5
HETATM    5  O   UNK N   1      36.592  12.627  13.240  0.00  0.00    -0.394 OA
HETATM    6  C   UNK N   1      37.146  12.891  11.988  0.00  0.00     0.201 C 
ENDBRANCH   4   5
ENDBRANCH   3   4
ENDBRANCH   2   3
ENDBRANCH   1   2
BRANCH   1   7
HETATM    7  C   UNK N   1      35.481  16.510  10.979  0.00  0.00     0.193 C 
BRANCH   7   8
HETATM    8  O   UNK N   1      35.464  17.557  10.065  0.00  0.00    -0.387 OA
BRANCH   8   9
HETATM    9  C   UNK N   1      34.550  17.168   9.088  0.00  0.00     0.193 C 
BRANCH   9  10
HETATM   10  C   UNK N   1      34.337  18.329   8.144  0.00  0.00     0.193 C 
BRANCH  10  11
HETATM   11  O   UNK N   1      34.524  17.915   6.828  0.00  0.00    -0.394 OA
HETATM   12  C   UNK N   1      34.270  16.545   6.864  0.00  0.00     0.201 C 
ENDBRANCH  10  11
ENDBRANCH   9  10
ENDBRANCH   8   9
ENDBRANCH   7   8
ENDBRANCH   1   7
TORSDOF 9
ENDMDL
MODEL 3
REMARK VINA RESULT:      -3.9     13.088     14.863
REMARK  9 active torsions:
REMARK  status: ('A' for Active; 'I' for Inactive)
REMARK    1  A    between atoms: O_2  and  C_3 
REMARK    2  A    between atoms: C_3  and  C_4 
REMARK    3  A    between atoms: C_4  and  O_5 
REMARK    4  A    between atoms: O_5  and  C_6 
REMARK    5  A    between atoms: C_6  and  C_7 
REMARK    6  A    between atoms: C_7  and  O_8 
REMARK    7  A    between atoms: O_8  and  C_9 
REMARK    8  A    between atoms: C_9  and  C_10 
REMARK    9  A    between atoms: C_10  and  O_11 
ROOT
HETATM    1  C   UNK N   1      34.683  17.181   9.094  0.00  0.00     0.193 C 
ENDROOT
BRANCH   1   2
HETATM    2  O   UNK N   1      35.508  17.524  10.158  0.00  0.00    -0.387 OA
BRANCH   2   3
HETATM    3  C   UNK N   1      35.665  16.348  10.886  0.00  0.00     0.193 C 
BRANCH   3   4
HETATM    4  C   UNK N   1      34.535  15.409  10.531  0.00  0.00     0.193 C 
BRANCH   4   5
HETATM    5  O   UNK N   1      34.196  14.632  11.636  0.00  0.00    -0.394 OA
HETATM    6  C   UNK N   1      35.418  14.358  12.247  0.00  0.00     0.201 C 
ENDBRANCH   4   5
ENDBRANCH   3   4
ENDBRANCH   2   3
ENDBRANCH   1   2
BRANCH   1   7
HETATM    7  C   UNK N   1      34.478  18.396   8.216  0.00  0.00     0.193 C 
BRANCH   7   8
HETATM    8  O   UNK N   1      34.549  18.007   6.883  0.00  0.00    -0.387 OA
BRANCH   8   9
HETATM    9  C   UNK N   1      33.269  17.558   6.569  0.00  0.00     0.193 C 
BRANCH   9  10
HETATM   10  C   UNK N   1      33.177  17.387   5.070  0.00  0.00     0.193 C 
BRANCH  10  11
HETATM   11  O   UNK N   1      32.479  16.221   4.765  0.00  0.00    -0.394 OA
HETATM   12  C   UNK N   1      31.639  16.032   5.860  0.00  0.00     0.201 C 
ENDBRANCH  10  11
ENDBRANCH   9  10
ENDBRANCH   8   9
ENDBRANCH   7   8
ENDBRANCH   1   7
TORSDOF 9
ENDMDL
MODEL 4
REMARK VINA RESULT:      -3.8     12.728     14.020
REMARK  9 active torsions:
REMARK  status: ('A' for Active; 'I' for Inactive)
REMARK    1  A    between atoms: O_2  and  C_3 
REMARK    2  A    between atoms: C_3  and  C_4 
REMARK    3  A    between atoms: C_4  and  O_5 
REMARK    4  A    between atoms: O_5  and  C_6 
REMARK    5  A    between atoms: C_6  and  C_7 
REMARK    6  A    between atoms: C_7  and  O_8 
REMARK    7  A    between atoms: O_8  and  C_9 
REMARK    8  A    between atoms: C_9  and  C_10 
REMARK    9  A    between atoms: C_10  and  O_11 
ROOT
HETATM    1  C   UNK N   1      34.650  17.035   9.095  0.00  0.00     0.193 C 
ENDROOT
BRANCH   1   2
HETATM    2  O   UNK N   1      35.443  17.518  10.129  0.00  0.00    -0.387 OA
BRANCH   2   3
HETATM    3  C   UNK N   1      35.556  16.456  11.022  0.00  0.00     0.193 C 
BRANCH   3   4
HETATM    4  C   UNK N   1      34.636  15.346  10.566  0.00  0.00     0.193 C 
BRANCH   4   5
HETATM    5  O   UNK N   1      34.138  14.658  11.668  0.00  0.00    -0.394 OA
HETATM    6  C   UNK N   1      35.174  13.797  12.030  0.00  0.00     0.201 C 
ENDBRANCH   4   5
ENDBRANCH   3   4
ENDBRANCH   2   3
ENDBRANCH   1   2
BRANCH   1   7
HETATM    7  C   UNK N   1      34.406  18.148   8.099  0.00  0.00     0.193 C 
BRANCH   7   8
HETATM    8  O   UNK N   1      33.066  18.517   8.153  0.00  0.00    -0.387 OA
BRANCH   8   9
HETATM    9  C   UNK N   1      32.378  17.338   8.429  0.00  0.00     0.193 C 
BRANCH   9  10
HETATM   10  C   UNK N   1      30.920  17.545   8.090  0.00  0.00     0.193 C 
BRANCH  10  11
HETATM   11  O   UNK N   1      30.130  17.306   9.211  0.00  0.00    -0.394 OA
HETATM   12  C   UNK N   1      29.717  18.575   9.612  0.00  0.00     0.201 C 
ENDBRANCH  10  11
ENDBRANCH   9  10
ENDBRANCH   8   9
ENDBRANCH   7   8
ENDBRANCH   1   7
TORSDOF 9
ENDMDL
MODEL 5
REMARK VINA RESULT:      -3.7     13.874     14.742
REMARK  9 active torsions:
REMARK  status: ('A' for Active; 'I' for Inactive)
REMARK    1  A    between atoms: O_2  and  C_3 
REMARK    2  A    between atoms: C_3  and  C_4 
REMARK    3  A    between atoms: C_4  and  O_5 
REMARK    4  A    between atoms: O_5  and  C_6 
REMARK    5  A    between atoms: C_6  and  C_7 
REMARK    6  A    between atoms: C_7  and  O_8 
REMARK    7  A    between atoms: O_8  and  C_9 
REMARK    8  A    between atoms: C_9  and  C_10 
REMARK    9  A    between atoms: C_10  and  O_11 
ROOT
HETATM    1  C   UNK N   1      34.771  16.822   9.369  0.00  0.00     0.193 C 
ENDROOT
BRANCH   1   2
HETATM    2  O   UNK N   1      34.805  18.132   8.907  0.00  0.00    -0.387 OA
BRANCH   2   3
HETATM    3  C   UNK N   1      33.840  18.186   7.905  0.00  0.00     0.193 C 
BRANCH   3   4
HETATM    4  C   UNK N   1      32.661  17.341   8.329  0.00  0.00     0.193 C 
BRANCH   4   5
HETATM    5  O   UNK N   1      31.570  18.156   8.620  0.00  0.00    -0.394 OA
HETATM    6  C   UNK N   1      30.477  17.458   8.109  0.00  0.00     0.201 C 
ENDBRANCH   4   5
ENDBRANCH   3   4
ENDBRANCH   2   3
ENDBRANCH   1   2
BRANCH   1   7
HETATM    7  C   UNK N   1      35.368  16.772  10.758  0.00  0.00     0.193 C 
BRANCH   7   8
HETATM    8  O   UNK N   1      36.612  16.154  10.692  0.00  0.00    -0.387 OA
BRANCH   8   9
HETATM    9  C   UNK N   1      36.381  14.835  11.072  0.00  0.00     0.193 C 
BRANCH   9  10
HETATM   10  C   UNK N   1      35.898  14.827  12.504  0.00  0.00     0.193 C 
BRANCH  10  11
HETATM   11  O   UNK N   1      34.888  13.883  12.663  0.00  0.00    -0.394 OA
HETATM   12  C   UNK N   1      34.978  13.094  11.517  0.00  0.00     0.201 C 
ENDBRANCH  10  11
ENDBRANCH   9  10
ENDBRANCH   8   9
ENDBRANCH   7   8
ENDBRANCH   1   7
TORSDOF 9
ENDMDL
MODEL 6
REMARK VINA RESULT:      -3.7     16.053     16.777
REMARK  9 active torsions:
REMARK  status: ('A' for Active; 'I' for Inactive)
REMARK    1  A    between atoms: O_2  and  C_3 
REMARK    2  A    between atoms: C_3  and  C_4 
REMARK    3  A    between atoms: C_4  and  O_5 
REMARK    4  A    between atoms: O_5  and  C_6 
REMARK    5  A    between atoms: C_6  and  C_7 
REMARK    6  A    between atoms: C_7  and  O_8 
REMARK    7  A    between atoms: O_8  and  C_9 
REMARK    8  A    between atoms: C_9  and  C_10 
REMARK    9  A    between atoms: C_10  and  O_11 
ROOT
HETATM    1  C   UNK N   1      35.077  13.587  11.760  0.00  0.00     0.193 C 
ENDROOT
BRANCH   1   2
HETATM    2  O   UNK N   1      34.206  14.669  11.703  0.00  0.00    -0.387 OA
BRANCH   2   3
HETATM    3  C   UNK N   1      34.598  15.388  10.577  0.00  0.00     0.193 C 
BRANCH   3   4
HETATM    4  C   UNK N   1      35.594  16.442  11.003  0.00  0.00     0.193 C 
BRANCH   4   5
HETATM    5  O   UNK N   1      35.508  17.548  10.162  0.00  0.00    -0.394 OA
HETATM    6  C   UNK N   1      34.627  17.145   9.159  0.00  0.00     0.201 C 
ENDBRANCH   4   5
ENDBRANCH   3   4
ENDBRANCH   2   3
ENDBRANCH   1   2
BRANCH   1   7
HETATM    7  C   UNK N   1      35.317  13.223  13.208  0.00  0.00     0.193 C 
BRANCH   7   8
HETATM    8  O   UNK N   1      36.240  14.111  13.750  0.00  0.00    -0.387 OA
BRANCH   8   9
HETATM    9  C   UNK N   1      36.398  13.705  15.073  0.00  0.00     0.193 C 
BRANCH   9  10
HETATM   10  C   UNK N   1      35.120  13.034  15.522  0.00  0.00     0.193 C 
BRANCH  10  11
HETATM   11  O   UNK N   1      35.282  12.506  16.800  0.00  0.00    -0.394 OA
HETATM   12  C   UNK N   1      35.167  13.611  17.641  0.00  0.00     0.201 C 
ENDBRANCH  10  11
ENDBRANCH   9  10
ENDBRANCH   8   9
ENDBRANCH   7   8
ENDBRANCH   1   7
TORSDOF 9
ENDMDL
MODEL 7
REMARK VINA RESULT:      -3.6     16.122     17.689
REMARK  9 active torsions:
REMARK  status: ('A' for Active; 'I' for Inactive)
REMARK    1  A    between atoms: O_2  and  C_3 
REMARK    2  A    between atoms: C_3  and  C_4 
REMARK    3  A    between atoms: C_4  and  O_5 
REMARK    4  A    between atoms: O_5  and  C_6 
REMARK    5  A    between atoms: C_6  and  C_7 
REMARK    6  A    between atoms: C_7  and  O_8 
REMARK    7  A    between atoms: O_8  and  C_9 
REMARK    8  A    between atoms: C_9  and  C_10 
REMARK    9  A    between atoms: C_10  and  O_11 
ROOT
HETATM    1  C   UNK N   1      35.038  12.705  12.777  0.00  0.00     0.193 C 
ENDROOT
BRANCH   1   2
HETATM    2  O   UNK N   1      34.945  13.631  13.809  0.00  0.00    -0.387 OA
BRANCH   2   3
HETATM    3  C   UNK N   1      36.263  13.947  14.129  0.00  0.00     0.193 C 
BRANCH   3   4
HETATM    4  C   UNK N   1      36.923  12.718  14.712  0.00  0.00     0.193 C 
BRANCH   4   5
HETATM    5  O   UNK N   1      36.438  12.480  15.995  0.00  0.00    -0.394 OA
HETATM    6  C   UNK N   1      36.279  11.096  16.047  0.00  0.00     0.201 C 
ENDBRANCH   4   5
ENDBRANCH   3   4
ENDBRANCH   2   3
ENDBRANCH   1   2
BRANCH   1   7
HETATM    7  C   UNK N   1      34.989  13.435  11.452  0.00  0.00     0.193 C 
BRANCH   7   8
HETATM    8  O   UNK N   1      34.160  14.544  11.578  0.00  0.00    -0.387 OA
BRANCH   8   9
HETATM    9  C   UNK N   1      34.526  15.389  10.533  0.00  0.00     0.193 C 
BRANCH   9  10
HETATM   10  C   UNK N   1      35.438  16.461  11.084  0.00  0.00     0.193 C 
BRANCH  10  11
HETATM   11  O   UNK N   1      35.543  17.511  10.175  0.00  0.00    -0.394 OA
HETATM   12  C   UNK N   1      34.605  17.203   9.192  0.00  0.00     0.201 C 
ENDBRANCH  10  11
ENDBRANCH   9  10
ENDBRANCH   8   9
ENDBRANCH   7   8
ENDBRANCH   1   7
TORSDOF 9
ENDMDL
MODEL 8
REMARK VINA RESULT:      -3.6     11.677     12.853
REMARK  9 active torsions:
REMARK  status: ('A' for Active; 'I' for Inactive)
REMARK    1  A    between atoms: O_2  and  C_3 
REMARK    2  A    between atoms: C_3  and  C_4 
REMARK    3  A    between atoms: C_4  and  O_5 
REMARK    4  A    between atoms: O_5  and  C_6 
REMARK    5  A    between atoms: C_6  and  C_7 
REMARK    6  A    between atoms: C_7  and  O_8 
REMARK    7  A    between atoms: O_8  and  C_9 
REMARK    8  A    between atoms: C_9  and  C_10 
REMARK    9  A    between atoms: C_10  and  O_11 
ROOT
HETATM    1  C   UNK N   1      33.158  16.222   5.988  0.00  0.00     0.193 C 
ENDROOT
BRANCH   1   2
HETATM    2  O   UNK N   1      32.160  17.189   5.998  0.00  0.00    -0.387 OA
BRANCH   2   3
HETATM    3  C   UNK N   1      31.254  16.763   6.965  0.00  0.00     0.193 C 
BRANCH   3   4
HETATM    4  C   UNK N   1      30.025  16.226   6.267  0.00  0.00     0.193 C 
BRANCH   4   5
HETATM    5  O   UNK N   1      28.881  16.822   6.791  0.00  0.00    -0.394 OA
HETATM    6  C   UNK N   1      29.305  17.365   8.003  0.00  0.00     0.201 C 
ENDBRANCH   4   5
ENDBRANCH   3   4
ENDBRANCH   2   3
ENDBRANCH   1   2
BRANCH   1   7
HETATM    7  C   UNK N   1      34.205  16.582   7.018  0.00  0.00     0.193 C 
BRANCH   7   8
HETATM    8  O   UNK N   1      34.544  17.922   6.868  0.00  0.00    -0.387 OA
BRANCH   8   9
HETATM    9  C   UNK N   1      34.567  18.436   8.162  0.00  0.00     0.193 C 
BRANCH   9  10
HETATM   10  C   UNK N   1      34.601  17.279   9.135  0.00  0.00     0.193 C 
BRANCH  10  11
HETATM   11  O   UNK N   1      35.493  17.551  10.168  0.00  0.00    -0.394 OA
HETATM   12  C   UNK N   1      35.610  16.337  10.843  0.00  0.00     0.201 C 
ENDBRANCH  10  11
ENDBRANCH   9  10
ENDBRANCH   8   9
ENDBRANCH   7   8
ENDBRANCH   1   7
TORSDOF 9
ENDMDL
MODEL 9
REMARK VINA RESULT:      -3.5      4.063      5.701
REMARK  9 active torsions:
REMARK  status: ('A' for Active; 'I' for Inactive)
REMARK    1  A    between atoms: O_2  and  C_3 
REMARK    2  A    between atoms: C_3  and  C_4 
REMARK    3  A    between atoms: C_4  and  O_5 
REMARK    4  A    between atoms: O_5  and  C_6 
REMARK    5  A    between atoms: C_6  and  C_7 
REMARK    6  A    between atoms: C_7  and  O_8 
REMARK    7  A    between atoms: O_8  and  C_9 
REMARK    8  A    between atoms: C_9  and  C_10 
REMARK    9  A    between atoms: C_10  and  O_11 
ROOT
HETATM    1  C   UNK N   1      24.469  19.744   3.731  0.00  0.00     0.193 C 
ENDROOT
BRANCH   1   2
HETATM    2  O   UNK N   1      25.242  20.041   2.615  0.00  0.00    -0.387 OA
BRANCH   2   3
HETATM    3  C   UNK N   1      26.409  20.604   3.124  0.00  0.00     0.193 C 
BRANCH   3   4
HETATM    4  C   UNK N   1      27.053  19.608   4.062  0.00  0.00     0.193 C 
BRANCH   4   5
HETATM    5  O   UNK N   1      28.109  20.207   4.743  0.00  0.00    -0.394 OA
HETATM    6  C   UNK N   1      27.500  20.836   5.828  0.00  0.00     0.201 C 
ENDBRANCH   4   5
ENDBRANCH   3   4
ENDBRANCH   2   3
ENDBRANCH   1   2
BRANCH   1   7
HETATM    7  C   UNK N   1      23.010  19.727   3.331  0.00  0.00     0.193 C 
BRANCH   7   8
HETATM    8  O   UNK N   1      22.653  20.989   2.870  0.00  0.00    -0.387 OA
BRANCH   8   9
HETATM    9  C   UNK N   1      21.342  20.851   2.421  0.00  0.00     0.193 C 
BRANCH   9  10
HETATM   10  C   UNK N   1      20.577  20.021   3.427  0.00  0.00     0.193 C 
BRANCH  10  11
HETATM   11  O   UNK N   1      19.422  19.510   2.843  0.00  0.00    -0.394 OA
HETATM   12  C   UNK N   1      19.707  18.159   2.652  0.00  0.00     0.201 C 
ENDBRANCH  10  11
ENDBRANCH   9  10
ENDBRANCH   8   9
ENDBRANCH   7   8
ENDBRANCH   1   7
TORSDOF 9
ENDMDL
