MODEL 1
REMARK VINA RESULT:      -4.1      0.000      0.000
REMARK  15 active torsions:
REMARK  status: ('A' for Active; 'I' for Inactive)
REMARK    1  A    between atoms: O_2  and  C_3 
REMARK    2  A    between atoms: C_3  and  C_4 
REMARK    3  A    between atoms: C_4  and  O_5 
REMARK    4  A    between atoms: O_5  and  C_6 
REMARK    5  A    between atoms: C_6  and  C_7 
REMARK    6  A    between atoms: C_7  and  O_8 
REMARK    7  A    between atoms: O_8  and  C_9 
REMARK    8  A    between atoms: C_9  and  C_10 
REMARK    9  A    between atoms: C_10  and  O_11 
REMARK   10  A    between atoms: O_11  and  C_12 
REMARK   11  A    between atoms: C_12  and  C_13 
REMARK   12  A    between atoms: C_13  and  O_14 
REMARK   13  A    between atoms: O_14  and  C_15 
REMARK   14  A    between atoms: C_15  and  C_16 
REMARK   15  A    between atoms: C_16  and  O_17 
ROOT
HETATM    1  C   UNK N   1      35.184  13.650  11.693  0.00  0.00     0.193 C 
ENDROOT
BRANCH   1   2
HETATM    2  O   UNK N   1      34.412  14.792  11.606  0.00  0.00    -0.387 OA
BRANCH   2   3
HETATM    3  C   UNK N   1      35.335  15.819  11.699  0.00  0.00     0.193 C 
BRANCH   3   4
HETATM    4  C   UNK N   1      35.656  16.280  10.311  0.00  0.00     0.193 C 
BRANCH   4   5
HETATM    5  O   UNK N   1      34.785  17.299   9.962  0.00  0.00    -0.387 OA
BRANCH   5   6
HETATM    6  C   UNK N   1      34.433  16.986   8.657  0.00  0.00     0.193 C 
BRANCH   6   7
HETATM    7  C   UNK N   1      34.165  18.259   7.901  0.00  0.00     0.193 C 
BRANCH   7   8
HETATM    8  O   UNK N   1      34.430  18.045   6.553  0.00  0.00    -0.394 OA
HETATM    9  C   UNK N   1      33.272  17.443   6.070  0.00  0.00     0.201 C 
ENDBRANCH   7   8
ENDBRANCH   6   7
ENDBRANCH   5   6
ENDBRANCH   4   5
ENDBRANCH   3   4
ENDBRANCH   2   3
ENDBRANCH   1   2
BRANCH   1  10
HETATM   10  C   UNK N   1      35.822  13.615  13.046  0.00  0.00     0.193 C 
BRANCH  10  11
HETATM   11  O   UNK N   1      34.827  13.427  13.984  0.00  0.00    -0.387 OA
BRANCH  11  12
HETATM   12  C   UNK N   1      34.800  12.056  14.165  0.00  0.00     0.193 C 
BRANCH  12  13
HETATM   13  C   UNK N   1      34.438  11.785  15.594  0.00  0.00     0.193 C 
BRANCH  13  14
HETATM   14  O   UNK N   1      34.343  12.991  16.269  0.00  0.00    -0.387 OA
BRANCH  14  15
HETATM   15  C   UNK N   1      35.222  12.836  17.330  0.00  0.00     0.193 C 
BRANCH  15  16
HETATM   16  C   UNK N   1      35.248  11.387  17.736  0.00  0.00     0.193 C 
BRANCH  16  17
HETATM   17  O   UNK N   1      35.787  11.286  19.012  0.00  0.00    -0.394 OA
HETATM   18  C   UNK N   1      35.304  12.412  19.675  0.00  0.00     0.201 C 
ENDBRANCH  16  17
ENDBRANCH  15  16
ENDBRANCH  14  15
ENDBRANCH  13  14
ENDBRANCH  12  13
ENDBRANCH  11  12
ENDBRANCH  10  11
ENDBRANCH   1  10
TORSDOF 15
ENDMDL
MODEL 2
REMARK VINA RESULT:      -4.1      2.357      9.313
REMARK  15 active torsions:
REMARK  status: ('A' for Active; 'I' for Inactive)
REMARK    1  A    between atoms: O_2  and  C_3 
REMARK    2  A    between atoms: C_3  and  C_4 
REMARK    3  A    between atoms: C_4  and  O_5 
REMARK    4  A    between atoms: O_5  and  C_6 
REMARK    5  A    between atoms: C_6  and  C_7 
REMARK    6  A    between atoms: C_7  and  O_8 
REMARK    7  A    between atoms: O_8  and  C_9 
REMARK    8  A    between atoms: C_9  and  C_10 
REMARK    9  A    between atoms: C_10  and  O_11 
REMARK   10  A    between atoms: O_11  and  C_12 
REMARK   11  A    between atoms: C_12  and  C_13 
REMARK   12  A    between atoms: C_13  and  O_14 
REMARK   13  A    between atoms: O_14  and  C_15 
REMARK   14  A    between atoms: C_15  and  C_16 
REMARK   15  A    between atoms: C_16  and  O_17 
ROOT
HETATM    1  C   UNK N   1      36.424  15.482  10.566  0.00  0.00     0.193 C 
ENDROOT
BRANCH   1   2
HETATM    2  O   UNK N   1      35.870  14.219  10.660  0.00  0.00    -0.387 OA
BRANCH   2   3
HETATM    3  C   UNK N   1      36.377  13.728  11.850  0.00  0.00     0.193 C 
BRANCH   3   4
HETATM    4  C   UNK N   1      35.356  12.808  12.444  0.00  0.00     0.193 C 
BRANCH   4   5
HETATM    5  O   UNK N   1      35.603  12.677  13.801  0.00  0.00    -0.387 OA
BRANCH   5   6
HETATM    6  C   UNK N   1      36.008  13.949  14.176  0.00  0.00     0.193 C 
BRANCH   6   7
HETATM    7  C   UNK N   1      36.692  13.872  15.515  0.00  0.00     0.193 C 
BRANCH   7   8
HETATM    8  O   UNK N   1      37.570  14.943  15.633  0.00  0.00    -0.394 OA
HETATM    9  C   UNK N   1      37.167  15.588  16.799  0.00  0.00     0.201 C 
ENDBRANCH   7   8
ENDBRANCH   6   7
ENDBRANCH   5   6
ENDBRANCH   4   5
ENDBRANCH   3   4
ENDBRANCH   2   3
ENDBRANCH   1   2
BRANCH   1  10
HETATM   10  C   UNK N   1      35.389  16.481  10.977  0.00  0.00     0.193 C 
BRANCH  10  11
HETATM   11  O   UNK N   1      35.421  17.527  10.077  0.00  0.00    -0.387 OA
BRANCH  11  12
HETATM   12  C   UNK N   1      34.801  17.014   8.953  0.00  0.00     0.193 C 
BRANCH  12  13
HETATM   13  C   UNK N   1      34.141  18.150   8.230  0.00  0.00     0.193 C 
BRANCH  13  14
HETATM   14  O   UNK N   1      34.550  18.137   6.907  0.00  0.00    -0.387 OA
BRANCH  14  15
HETATM   15  C   UNK N   1      33.862  17.060   6.369  0.00  0.00     0.193 C 
BRANCH  15  16
HETATM   16  C   UNK N   1      32.395  17.393   6.317  0.00  0.00     0.193 C 
BRANCH  16  17
HETATM   17  O   UNK N   1      31.819  16.731   5.240  0.00  0.00    -0.394 OA
HETATM   18  C   UNK N   1      32.293  17.419   4.126  0.00  0.00     0.201 C 
ENDBRANCH  16  17
ENDBRANCH  15  16
ENDBRANCH  14  15
ENDBRANCH  13  14
ENDBRANCH  12  13
ENDBRANCH  11  12
ENDBRANCH  10  11
ENDBRANCH   1  10
TORSDOF 15
ENDMDL
MODEL 3
REMARK VINA RESULT:      -4.0      2.265      9.238
REMARK  15 active torsions:
REMARK  status: ('A' for Active; 'I' for Inactive)
REMARK    1  A    between atoms: O_2  and  C_3 
REMARK    2  A    between atoms: C_3  and  C_4 
REMARK    3  A    between atoms: C_4  and  O_5 
REMARK    4  A    between atoms: O_5  and  C_6 
REMARK    5  A    between atoms: C_6  and  C_7 
REMARK    6  A    between atoms: C_7  and  O_8 
REMARK    7  A    between atoms: O_8  and  C_9 
REMARK    8  A    between atoms: C_9  and  C_10 
REMARK    9  A    between atoms: C_10  and  O_11 
REMARK   10  A    between atoms: O_11  and  C_12 
REMARK   11  A    between atoms: C_12  and  C_13 
REMARK   12  A    between atoms: C_13  and  O_14 
REMARK   13  A    between atoms: O_14  and  C_15 
REMARK   14  A    between atoms: C_15  and  C_16 
REMARK   15  A    between atoms: C_16  and  O_17 
ROOT
HETATM    1  C   UNK N   1      35.132  16.503  10.834  0.00  0.00     0.193 C 
ENDROOT
BRANCH   1   2
HETATM    2  O   UNK N   1      36.503  16.368  10.725  0.00  0.00    -0.387 OA
BRANCH   2   3
HETATM    3  C   UNK N   1      36.679  15.020  10.469  0.00  0.00     0.193 C 
BRANCH   3   4
HETATM    4  C   UNK N   1      35.923  14.248  11.506  0.00  0.00     0.193 C 
BRANCH   4   5
HETATM    5  O   UNK N   1      36.806  13.823  12.485  0.00  0.00    -0.387 OA
BRANCH   5   6
HETATM    6  C   UNK N   1      36.170  14.176  13.665  0.00  0.00     0.193 C 
BRANCH   6   7
HETATM    7  C   UNK N   1      35.853  12.929  14.446  0.00  0.00     0.193 C 
BRANCH   7   8
HETATM    8  O   UNK N   1      34.489  12.901  14.712  0.00  0.00    -0.394 OA
HETATM    9  C   UNK N   1      34.129  11.572  14.507  0.00  0.00     0.201 C 
ENDBRANCH   7   8
ENDBRANCH   6   7
ENDBRANCH   5   6
ENDBRANCH   4   5
ENDBRANCH   3   4
ENDBRANCH   2   3
ENDBRANCH   1   2
BRANCH   1  10
HETATM   10  C   UNK N   1      34.584  16.841   9.483  0.00  0.00     0.193 C 
BRANCH  10  11
HETATM   11  O   UNK N   1      35.239  17.967   9.024  0.00  0.00    -0.387 OA
BRANCH  11  12
HETATM   12  C   UNK N   1      34.296  18.596   8.232  0.00  0.00     0.193 C 
BRANCH  12  13
HETATM   13  C   UNK N   1      33.694  17.567   7.324  0.00  0.00     0.193 C 
BRANCH  13  14
HETATM   14  O   UNK N   1      34.393  17.561   6.128  0.00  0.00    -0.387 OA
BRANCH  14  15
HETATM   15  C   UNK N   1      34.005  16.369   5.536  0.00  0.00     0.193 C 
BRANCH  15  16
HETATM   16  C   UNK N   1      32.513  16.384   5.336  0.00  0.00     0.193 C 
BRANCH  16  17
HETATM   17  O   UNK N   1      32.165  15.367   4.456  0.00  0.00    -0.394 OA
HETATM   18  C   UNK N   1      32.519  14.200   5.129  0.00  0.00     0.201 C 
ENDBRANCH  16  17
ENDBRANCH  15  16
ENDBRANCH  14  15
ENDBRANCH  13  14
ENDBRANCH  12  13
ENDBRANCH  11  12
ENDBRANCH  10  11
ENDBRANCH   1  10
TORSDOF 15
ENDMDL
MODEL 4
REMARK VINA RESULT:      -4.0     13.139     17.672
REMARK  15 active torsions:
REMARK  status: ('A' for Active; 'I' for Inactive)
REMARK    1  A    between atoms: O_2  and  C_3 
REMARK    2  A    between atoms: C_3  and  C_4 
REMARK    3  A    between atoms: C_4  and  O_5 
REMARK    4  A    between atoms: O_5  and  C_6 
REMARK    5  A    between atoms: C_6  and  C_7 
REMARK    6  A    between atoms: C_7  and  O_8 
REMARK    7  A    between atoms: O_8  and  C_9 
REMARK    8  A    between atoms: C_9  and  C_10 
REMARK    9  A    between atoms: C_10  and  O_11 
REMARK   10  A    between atoms: O_11  and  C_12 
REMARK   11  A    between atoms: C_12  and  C_13 
REMARK   12  A    between atoms: C_13  and  O_14 
REMARK   13  A    between atoms: O_14  and  C_15 
REMARK   14  A    between atoms: C_15  and  C_16 
REMARK   15  A    between atoms: C_16  and  O_17 
ROOT
HETATM    1  C   UNK N   1      21.086  18.003   6.651  0.00  0.00     0.193 C 
ENDROOT
BRANCH   1   2
HETATM    2  O   UNK N   1      20.752  17.543   7.909  0.00  0.00    -0.387 OA
BRANCH   2   3
HETATM    3  C   UNK N   1      20.829  16.167   7.785  0.00  0.00     0.193 C 
BRANCH   3   4
HETATM    4  C   UNK N   1      19.929  15.558   8.816  0.00  0.00     0.193 C 
BRANCH   4   5
HETATM    5  O   UNK N   1      20.014  14.178   8.729  0.00  0.00    -0.387 OA
BRANCH   5   6
HETATM    6  C   UNK N   1      20.710  13.827   9.876  0.00  0.00     0.193 C 
BRANCH   6   7
HETATM    7  C   UNK N   1      21.742  12.789   9.527  0.00  0.00     0.193 C 
BRANCH   7   8
HETATM    8  O   UNK N   1      22.857  12.974  10.337  0.00  0.00    -0.394 OA
HETATM    9  C   UNK N   1      22.647  12.112  11.409  0.00  0.00     0.201 C 
ENDBRANCH   7   8
ENDBRANCH   6   7
ENDBRANCH   5   6
ENDBRANCH   4   5
ENDBRANCH   3   4
ENDBRANCH   2   3
ENDBRANCH   1   2
BRANCH   1  10
HETATM   10  C   UNK N   1      21.819  16.915   5.930  0.00  0.00     0.193 C 
BRANCH  10  11
HETATM   11  O   UNK N   1      21.964  17.297   4.611  0.00  0.00    -0.387 OA
BRANCH  11  12
HETATM   12  C   UNK N   1      20.694  17.152   4.085  0.00  0.00     0.193 C 
BRANCH  12  13
HETATM   13  C   UNK N   1      20.752  17.517   2.632  0.00  0.00     0.193 C 
BRANCH  13  14
HETATM   14  O   UNK N   1      19.685  18.349   2.336  0.00  0.00    -0.387 OA
BRANCH  14  15
HETATM   15  C   UNK N   1      20.010  19.531   2.983  0.00  0.00     0.193 C 
BRANCH  15  16
HETATM   16  C   UNK N   1      20.962  20.316   2.120  0.00  0.00     0.193 C 
BRANCH  16  17
HETATM   17  O   UNK N   1      21.801  21.063   2.938  0.00  0.00    -0.394 OA
HETATM   18  C   UNK N   1      23.022  20.397   2.871  0.00  0.00     0.201 C 
ENDBRANCH  16  17
ENDBRANCH  15  16
ENDBRANCH  14  15
ENDBRANCH  13  14
ENDBRANCH  12  13
ENDBRANCH  11  12
ENDBRANCH  10  11
ENDBRANCH   1  10
TORSDOF 15
ENDMDL
MODEL 5
REMARK VINA RESULT:      -4.0      2.209      5.263
REMARK  15 active torsions:
REMARK  status: ('A' for Active; 'I' for Inactive)
REMARK    1  A    between atoms: O_2  and  C_3 
REMARK    2  A    between atoms: C_3  and  C_4 
REMARK    3  A    between atoms: C_4  and  O_5 
REMARK    4  A    between atoms: O_5  and  C_6 
REMARK    5  A    between atoms: C_6  and  C_7 
REMARK    6  A    between atoms: C_7  and  O_8 
REMARK    7  A    between atoms: O_8  and  C_9 
REMARK    8  A    between atoms: C_9  and  C_10 
REMARK    9  A    between atoms: C_10  and  O_11 
REMARK   10  A    between atoms: O_11  and  C_12 
REMARK   11  A    between atoms: C_12  and  C_13 
REMARK   12  A    between atoms: C_13  and  O_14 
REMARK   13  A    between atoms: O_14  and  C_15 
REMARK   14  A    between atoms: C_15  and  C_16 
REMARK   15  A    between atoms: C_16  and  O_17 
ROOT
HETATM    1  C   UNK N   1      34.391  18.261   8.155  0.00  0.00     0.193 C 
ENDROOT
BRANCH   1   2
HETATM    2  O   UNK N   1      34.624  17.785   6.880  0.00  0.00    -0.387 OA
BRANCH   2   3
HETATM    3  C   UNK N   1      33.988  16.557   6.868  0.00  0.00     0.193 C 
BRANCH   3   4
HETATM    4  C   UNK N   1      34.570  15.743   5.753  0.00  0.00     0.193 C 
BRANCH   4   5
HETATM    5  O   UNK N   1      33.573  14.954   5.203  0.00  0.00    -0.387 OA
BRANCH   5   6
HETATM    6  C   UNK N   1      33.640  15.252   3.851  0.00  0.00     0.193 C 
BRANCH   6   7
HETATM    7  C   UNK N   1      32.279  15.684   3.374  0.00  0.00     0.193 C 
BRANCH   7   8
HETATM    8  O   UNK N   1      32.353  17.002   2.940  0.00  0.00    -0.394 OA
HETATM    9  C   UNK N   1      31.916  17.746   4.032  0.00  0.00     0.201 C 
ENDBRANCH   7   8
ENDBRANCH   6   7
ENDBRANCH   5   6
ENDBRANCH   4   5
ENDBRANCH   3   4
ENDBRANCH   2   3
ENDBRANCH   1   2
BRANCH   1  10
HETATM   10  C   UNK N   1      34.587  17.135   9.121  0.00  0.00     0.193 C 
BRANCH  10  11
HETATM   11  O   UNK N   1      35.472  17.554  10.094  0.00  0.00    -0.387 OA
BRANCH  11  12
HETATM   12  C   UNK N   1      35.355  16.594  11.083  0.00  0.00     0.193 C 
BRANCH  12  13
HETATM   13  C   UNK N   1      36.272  15.460  10.737  0.00  0.00     0.193 C 
BRANCH  13  14
HETATM   14  O   UNK N   1      36.323  14.583  11.807  0.00  0.00    -0.387 OA
BRANCH  14  15
HETATM   15  C   UNK N   1      35.218  13.769  11.610  0.00  0.00     0.193 C 
BRANCH  15  16
HETATM   16  C   UNK N   1      35.073  12.847  12.790  0.00  0.00     0.193 C 
BRANCH  16  17
HETATM   17  O   UNK N   1      35.081  13.602  13.956  0.00  0.00    -0.394 OA
HETATM   18  C   UNK N   1      34.813  12.677  14.962  0.00  0.00     0.201 C 
ENDBRANCH  16  17
ENDBRANCH  15  16
ENDBRANCH  14  15
ENDBRANCH  13  14
ENDBRANCH  12  13
ENDBRANCH  11  12
ENDBRANCH  10  11
ENDBRANCH   1  10
TORSDOF 15
ENDMDL
MODEL 6
REMARK VINA RESULT:      -4.0      3.723     10.023
REMARK  15 active torsions:
REMARK  status: ('A' for Active; 'I' for Inactive)
REMARK    1  A    between atoms: O_2  and  C_3 
REMARK    2  A    between atoms: C_3  and  C_4 
REMARK    3  A    between atoms: C_4  and  O_5 
REMARK    4  A    between atoms: O_5  and  C_6 
REMARK    5  A    between atoms: C_6  and  C_7 
REMARK    6  A    between atoms: C_7  and  O_8 
REMARK    7  A    between atoms: O_8  and  C_9 
REMARK    8  A    between atoms: C_9  and  C_10 
REMARK    9  A    between atoms: C_10  and  O_11 
REMARK   10  A    between atoms: O_11  and  C_12 
REMARK   11  A    between atoms: C_12  and  C_13 
REMARK   12  A    between atoms: C_13  and  O_14 
REMARK   13  A    between atoms: O_14  and  C_15 
REMARK   14  A    between atoms: C_15  and  C_16 
REMARK   15  A    between atoms: C_16  and  O_17 
ROOT
HETATM    1  C   UNK N   1      34.129  16.749   6.815  0.00  0.00     0.193 C 
ENDROOT
BRANCH   1   2
HETATM    2  O   UNK N   1      34.536  18.068   6.848  0.00  0.00    -0.387 OA
BRANCH   2   3
HETATM    3  C   UNK N   1      34.548  18.373   8.197  0.00  0.00     0.193 C 
BRANCH   3   4
HETATM    4  C   UNK N   1      34.579  17.087   8.963  0.00  0.00     0.193 C 
BRANCH   4   5
HETATM    5  O   UNK N   1      35.046  17.336  10.243  0.00  0.00    -0.387 OA
BRANCH   5   6
HETATM    6  C   UNK N   1      35.688  16.155  10.584  0.00  0.00     0.193 C 
BRANCH   6   7
HETATM    7  C   UNK N   1      34.726  15.009  10.427  0.00  0.00     0.193 C 
BRANCH   7   8
HETATM    8  O   UNK N   1      34.251  14.646  11.683  0.00  0.00    -0.394 OA
HETATM    9  C   UNK N   1      35.395  14.285  12.389  0.00  0.00     0.201 C 
ENDBRANCH   7   8
ENDBRANCH   6   7
ENDBRANCH   5   6
ENDBRANCH   4   5
ENDBRANCH   3   4
ENDBRANCH   2   3
ENDBRANCH   1   2
BRANCH   1  10
HETATM   10  C   UNK N   1      33.131  16.591   5.711  0.00  0.00     0.193 C 
BRANCH  10  11
HETATM   11  O   UNK N   1      32.131  15.748   6.153  0.00  0.00    -0.387 OA
BRANCH  11  12
HETATM   12  C   UNK N   1      31.258  16.591   6.815  0.00  0.00     0.193 C 
BRANCH  12  13
HETATM   13  C   UNK N   1      30.412  17.280   5.787  0.00  0.00     0.193 C 
BRANCH  13  14
HETATM   14  O   UNK N   1      29.264  17.757   6.398  0.00  0.00    -0.387 OA
BRANCH  14  15
HETATM   15  C   UNK N   1      28.383  17.924   5.340  0.00  0.00     0.193 C 
BRANCH  15  16
HETATM   16  C   UNK N   1      27.298  18.882   5.753  0.00  0.00     0.193 C 
BRANCH  16  17
HETATM   17  O   UNK N   1      27.852  19.870   6.558  0.00  0.00    -0.394 OA
HETATM   18  C   UNK N   1      26.833  20.809   6.694  0.00  0.00     0.201 C 
ENDBRANCH  16  17
ENDBRANCH  15  16
ENDBRANCH  14  15
ENDBRANCH  13  14
ENDBRANCH  12  13
ENDBRANCH  11  12
ENDBRANCH  10  11
ENDBRANCH   1  10
TORSDOF 15
ENDMDL
MODEL 7
REMARK VINA RESULT:      -4.0      1.900      2.932
REMARK  15 active torsions:
REMARK  status: ('A' for Active; 'I' for Inactive)
REMARK    1  A    between atoms: O_2  and  C_3 
REMARK    2  A    between atoms: C_3  and  C_4 
REMARK    3  A    between atoms: C_4  and  O_5 
REMARK    4  A    between atoms: O_5  and  C_6 
REMARK    5  A    between atoms: C_6  and  C_7 
REMARK    6  A    between atoms: C_7  and  O_8 
REMARK    7  A    between atoms: O_8  and  C_9 
REMARK    8  A    between atoms: C_9  and  C_10 
REMARK    9  A    between atoms: C_10  and  O_11 
REMARK   10  A    between atoms: O_11  and  C_12 
REMARK   11  A    between atoms: C_12  and  C_13 
REMARK   12  A    between atoms: C_13  and  O_14 
REMARK   13  A    between atoms: O_14  and  C_15 
REMARK   14  A    between atoms: C_15  and  C_16 
REMARK   15  A    between atoms: C_16  and  O_17 
ROOT
HETATM    1  C   UNK N   1      35.456  14.241  11.706  0.00  0.00     0.193 C 
ENDROOT
BRANCH   1   2
HETATM    2  O   UNK N   1      34.529  15.227  11.427  0.00  0.00    -0.387 OA
BRANCH   2   3
HETATM    3  C   UNK N   1      35.303  16.297  11.017  0.00  0.00     0.193 C 
BRANCH   3   4
HETATM    4  C   UNK N   1      34.872  16.679   9.635  0.00  0.00     0.193 C 
BRANCH   4   5
HETATM    5  O   UNK N   1      35.218  18.000   9.403  0.00  0.00    -0.387 OA
BRANCH   5   6
HETATM    6  C   UNK N   1      34.497  18.325   8.264  0.00  0.00     0.193 C 
BRANCH   6   7
HETATM    7  C   UNK N   1      34.303  17.084   7.434  0.00  0.00     0.193 C 
BRANCH   7   8
HETATM    8  O   UNK N   1      34.498  17.405   6.096  0.00  0.00    -0.394 OA
HETATM    9  C   UNK N   1      33.210  17.502   5.577  0.00  0.00     0.201 C 
ENDBRANCH   7   8
ENDBRANCH   6   7
ENDBRANCH   5   6
ENDBRANCH   4   5
ENDBRANCH   3   4
ENDBRANCH   2   3
ENDBRANCH   1   2
BRANCH   1  10
HETATM   10  C   UNK N   1      36.128  14.580  12.999  0.00  0.00     0.193 C 
BRANCH  10  11
HETATM   11  O   UNK N   1      36.702  13.428  13.499  0.00  0.00    -0.387 OA
BRANCH  11  12
HETATM   12  C   UNK N   1      36.583  13.568  14.869  0.00  0.00     0.193 C 
BRANCH  12  13
HETATM   13  C   UNK N   1      35.229  13.066  15.269  0.00  0.00     0.193 C 
BRANCH  13  14
HETATM   14  O   UNK N   1      35.207  11.686  15.146  0.00  0.00    -0.387 OA
BRANCH  14  15
HETATM   15  C   UNK N   1      33.942  11.428  14.641  0.00  0.00     0.193 C 
BRANCH  15  16
HETATM   16  C   UNK N   1      34.056  10.416  13.533  0.00  0.00     0.193 C 
BRANCH  16  17
HETATM   17  O   UNK N   1      35.399  10.214  13.242  0.00  0.00    -0.394 OA
HETATM   18  C   UNK N   1      35.498  10.494  11.882  0.00  0.00     0.201 C 
ENDBRANCH  16  17
ENDBRANCH  15  16
ENDBRANCH  14  15
ENDBRANCH  13  14
ENDBRANCH  12  13
ENDBRANCH  11  12
ENDBRANCH  10  11
ENDBRANCH   1  10
TORSDOF 15
ENDMDL
MODEL 8
REMARK VINA RESULT:      -3.9     12.748     14.764
REMARK  15 active torsions:
REMARK  status: ('A' for Active; 'I' for Inactive)
REMARK    1  A    between atoms: O_2  and  C_3 
REMARK    2  A    between atoms: C_3  and  C_4 
REMARK    3  A    between atoms: C_4  and  O_5 
REMARK    4  A    between atoms: O_5  and  C_6 
REMARK    5  A    between atoms: C_6  and  C_7 
REMARK    6  A    between atoms: C_7  and  O_8 
REMARK    7  A    between atoms: O_8  and  C_9 
REMARK    8  A    between atoms: C_9  and  C_10 
REMARK    9  A    between atoms: C_10  and  O_11 
REMARK   10  A    between atoms: O_11  and  C_12 
REMARK   11  A    between atoms: C_12  and  C_13 
REMARK   12  A    between atoms: C_13  and  O_14 
REMARK   13  A    between atoms: O_14  and  C_15 
REMARK   14  A    between atoms: C_15  and  C_16 
REMARK   15  A    between atoms: C_16  and  O_17 
ROOT
HETATM    1  C   UNK N   1      21.811  18.102   5.937  0.00  0.00     0.193 C 
ENDROOT
BRANCH   1   2
HETATM    2  O   UNK N   1      21.124  19.245   5.574  0.00  0.00    -0.387 OA
BRANCH   2   3
HETATM    3  C   UNK N   1      21.107  19.191   4.192  0.00  0.00     0.193 C 
BRANCH   3   4
HETATM    4  C   UNK N   1      22.507  18.946   3.720  0.00  0.00     0.193 C 
BRANCH   4   5
HETATM    5  O   UNK N   1      23.108  20.161   3.438  0.00  0.00    -0.387 OA
BRANCH   5   6
HETATM    6  C   UNK N   1      24.447  19.927   3.710  0.00  0.00     0.193 C 
BRANCH   6   7
HETATM    7  C   UNK N   1      25.274  20.384   2.538  0.00  0.00     0.193 C 
BRANCH   7   8
HETATM    8  O   UNK N   1      26.500  20.843   3.006  0.00  0.00    -0.394 OA
HETATM    9  C   UNK N   1      26.999  19.780   3.754  0.00  0.00     0.201 C 
ENDBRANCH   7   8
ENDBRANCH   6   7
ENDBRANCH   5   6
ENDBRANCH   4   5
ENDBRANCH   3   4
ENDBRANCH   2   3
ENDBRANCH   1   2
BRANCH   1  10
HETATM   10  C   UNK N   1      20.828  17.119   6.492  0.00  0.00     0.193 C 
BRANCH  10  11
HETATM   11  O   UNK N   1      20.713  17.349   7.849  0.00  0.00    -0.387 OA
BRANCH  11  12
HETATM   12  C   UNK N   1      19.948  16.289   8.298  0.00  0.00     0.193 C 
BRANCH  12  13
HETATM   13  C   UNK N   1      20.506  15.031   7.705  0.00  0.00     0.193 C 
BRANCH  13  14
HETATM   14  O   UNK N   1      20.107  13.954   8.479  0.00  0.00    -0.387 OA
BRANCH  14  15
HETATM   15  C   UNK N   1      20.622  14.249   9.731  0.00  0.00     0.193 C 
BRANCH  15  16
HETATM   16  C   UNK N   1      21.953  13.564   9.887  0.00  0.00     0.193 C 
BRANCH  16  17
HETATM   17  O   UNK N   1      21.801  12.213   9.602  0.00  0.00    -0.394 OA
HETATM   18  C   UNK N   1      23.044  11.828   9.105  0.00  0.00     0.201 C 
ENDBRANCH  16  17
ENDBRANCH  15  16
ENDBRANCH  14  15
ENDBRANCH  13  14
ENDBRANCH  12  13
ENDBRANCH  11  12
ENDBRANCH  10  11
ENDBRANCH   1  10
TORSDOF 15
ENDMDL
MODEL 9
REMARK VINA RESULT:      -3.9      1.561      3.038
REMARK  15 active torsions:
REMARK  status: ('A' for Active; 'I' for Inactive)
REMARK    1  A    between atoms: O_2  and  C_3 
REMARK    2  A    between atoms: C_3  and  C_4 
REMARK    3  A    between atoms: C_4  and  O_5 
REMARK    4  A    between atoms: O_5  and  C_6 
REMARK    5  A    between atoms: C_6  and  C_7 
REMARK    6  A    between atoms: C_7  and  O_8 
REMARK    7  A    between atoms: O_8  and  C_9 
REMARK    8  A    between atoms: C_9  and  C_10 
REMARK    9  A    between atoms: C_10  and  O_11 
REMARK   10  A    between atoms: O_11  and  C_12 
REMARK   11  A    between atoms: C_12  and  C_13 
REMARK   12  A    between atoms: C_13  and  O_14 
REMARK   13  A    between atoms: O_14  and  C_15 
REMARK   14  A    between atoms: C_15  and  C_16 
REMARK   15  A    between atoms: C_16  and  O_17 
ROOT
HETATM    1  C   UNK N   1      35.187  16.075   9.969  0.00  0.00     0.193 C 
ENDROOT
BRANCH   1   2
HETATM    2  O   UNK N   1      34.670  17.336   9.744  0.00  0.00    -0.387 OA
BRANCH   2   3
HETATM    3  C   UNK N   1      33.662  17.116   8.823  0.00  0.00     0.193 C 
BRANCH   3   4
HETATM    4  C   UNK N   1      33.681  18.244   7.837  0.00  0.00     0.193 C 
BRANCH   4   5
HETATM    5  O   UNK N   1      34.544  17.924   6.802  0.00  0.00    -0.387 OA
BRANCH   5   6
HETATM    6  C   UNK N   1      33.891  16.891   6.148  0.00  0.00     0.193 C 
BRANCH   6   7
HETATM    7  C   UNK N   1      33.111  17.456   4.991  0.00  0.00     0.193 C 
BRANCH   7   8
HETATM    8  O   UNK N   1      33.278  16.627   3.889  0.00  0.00    -0.394 OA
HETATM    9  C   UNK N   1      32.248  16.992   3.027  0.00  0.00     0.201 C 
ENDBRANCH   7   8
ENDBRANCH   6   7
ENDBRANCH   5   6
ENDBRANCH   4   5
ENDBRANCH   3   4
ENDBRANCH   2   3
ENDBRANCH   1   2
BRANCH   1  10
HETATM   10  C   UNK N   1      35.390  15.906  11.442  0.00  0.00     0.193 C 
BRANCH  10  11
HETATM   11  O   UNK N   1      36.113  14.747  11.644  0.00  0.00    -0.387 OA
BRANCH  11  12
HETATM   12  C   UNK N   1      36.174  14.633  13.021  0.00  0.00     0.193 C 
BRANCH  12  13
HETATM   13  C   UNK N   1      35.641  13.284  13.398  0.00  0.00     0.193 C 
BRANCH  13  14
HETATM   14  O   UNK N   1      34.705  13.439  14.408  0.00  0.00    -0.387 OA
BRANCH  14  15
HETATM   15  C   UNK N   1      34.714  12.207  15.045  0.00  0.00     0.193 C 
BRANCH  15  16
HETATM   16  C   UNK N   1      36.072  11.984  15.656  0.00  0.00     0.193 C 
BRANCH  16  17
HETATM   17  O   UNK N   1      35.982  10.959  16.591  0.00  0.00    -0.394 OA
HETATM   18  C   UNK N   1      34.787  10.317  16.278  0.00  0.00     0.201 C 
ENDBRANCH  16  17
ENDBRANCH  15  16
ENDBRANCH  14  15
ENDBRANCH  13  14
ENDBRANCH  12  13
ENDBRANCH  11  12
ENDBRANCH  10  11
ENDBRANCH   1  10
TORSDOF 15
ENDMDL
