REMARK  15 active torsions:
REMARK  status: ('A' for Active; 'I' for Inactive)
REMARK    1  A    between atoms: O_2  and  C_3 
REMARK    2  A    between atoms: C_3  and  C_4 
REMARK    3  A    between atoms: C_4  and  O_5 
REMARK    4  A    between atoms: O_5  and  C_6 
REMARK    5  A    between atoms: C_6  and  C_7 
REMARK    6  A    between atoms: C_7  and  O_8 
REMARK    7  A    between atoms: O_8  and  C_9 
REMARK    8  A    between atoms: C_9  and  C_10 
REMARK    9  A    between atoms: C_10  and  O_11 
REMARK   10  A    between atoms: O_11  and  C_12 
REMARK   11  A    between atoms: C_12  and  C_13 
REMARK   12  A    between atoms: C_13  and  O_14 
REMARK   13  A    between atoms: O_14  and  C_15 
REMARK   14  A    between atoms: C_15  and  C_16 
REMARK   15  A    between atoms: C_16  and  O_17 
ROOT
HETATM    1  C   UNK N   1      -0.595  -0.366   0.000  0.00  0.00     0.193 C 
ENDROOT
BRANCH   1   2
HETATM    2  O   UNK N   1      -1.700   0.463  -0.000  0.00  0.00    -0.387 OA
BRANCH   2   3
HETATM    3  C   UNK N   1      -2.768  -0.416  -0.000  0.00  0.00     0.193 C 
BRANCH   3   4
HETATM    4  C   UNK N   1      -4.031   0.389   0.000  0.00  0.00     0.193 C 
BRANCH   4   5
HETATM    5  O   UNK N   1      -5.115  -0.473   0.000  0.00  0.00    -0.387 OA
BRANCH   5   6
HETATM    6  C   UNK N   1      -6.205   0.384  -0.000  0.00  0.00     0.193 C 
BRANCH   6   7
HETATM    7  C   UNK N   1      -7.471  -0.430   0.000  0.00  0.00     0.193 C 
BRANCH   7   8
HETATM    8  O   UNK N   1      -8.560   0.434  -0.000  0.00  0.00    -0.394 OA
HETATM    9  C   UNK N   1      -9.666  -0.411  -0.000  0.00  0.00     0.201 C 
ENDBRANCH   7   8
ENDBRANCH   6   7
ENDBRANCH   5   6
ENDBRANCH   4   5
ENDBRANCH   3   4
ENDBRANCH   2   3
ENDBRANCH   1   2
BRANCH   1  10
HETATM   10  C   UNK N   1       0.634   0.488   0.000  0.00  0.00     0.193 C 
BRANCH  10  11
HETATM   11  O   UNK N   1       1.735  -0.345  -0.000  0.00  0.00    -0.387 OA
BRANCH  11  12
HETATM   12  C   UNK N   1       2.808   0.527  -0.000  0.00  0.00     0.193 C 
BRANCH  12  13
HETATM   13  C   UNK N   1       4.066  -0.288   0.000  0.00  0.00     0.193 C 
BRANCH  13  14
HETATM   14  O   UNK N   1       5.155   0.568   0.000  0.00  0.00    -0.387 OA
BRANCH  14  15
HETATM   15  C   UNK N   1       6.241  -0.294  -0.000  0.00  0.00     0.193 C 
BRANCH  15  16
HETATM   16  C   UNK N   1       7.509   0.517   0.000  0.00  0.00     0.193 C 
BRANCH  16  17
HETATM   17  O   UNK N   1       8.597  -0.347  -0.000  0.00  0.00    -0.394 OA
HETATM   18  C   UNK N   1       9.703   0.499  -0.000  0.00  0.00     0.201 C 
ENDBRANCH  16  17
ENDBRANCH  15  16
ENDBRANCH  14  15
ENDBRANCH  13  14
ENDBRANCH  12  13
ENDBRANCH  11  12
ENDBRANCH  10  11
ENDBRANCH   1  10
TORSDOF 15
