MODEL 1
REMARK VINA RESULT:      -5.8      0.000      0.000
REMARK  0 active torsions:
REMARK  status: ('A' for Active; 'I' for Inactive)
ROOT
HETATM    1  N   UNK N   1      30.152  17.370   9.653  0.00  0.00    -0.363 N 
ATOM      2  HN  UNK N   1      30.876  17.408  10.369  1.00  0.00     0.165 HD
HETATM    3  C   UNK N   1      28.845  17.368  10.028  0.00  0.00     0.088 A 
HETATM    4  C   UNK N   1      27.835  17.316   9.063  0.00  0.00     0.018 A 
HETATM    5  C   UNK N   1      28.177  17.266   7.710  0.00  0.00     0.015 A 
HETATM    6  C   UNK N   1      29.522  17.269   7.338  0.00  0.00    -0.007 A 
HETATM    7  C   UNK N   1      29.883  17.219   5.989  0.00  0.00     0.014 A 
HETATM    8  C   UNK N   1      31.234  17.222   5.625  0.00  0.00     0.014 A 
HETATM    9  C   UNK N   1      32.225  17.275   6.610  0.00  0.00    -0.007 A 
HETATM   10  C   UNK N   1      33.574  17.278   6.257  0.00  0.00     0.015 A 
HETATM   11  C   UNK N   1      34.550  17.331   7.255  0.00  0.00     0.018 A 
HETATM   12  C   UNK N   1      34.161  17.380   8.597  0.00  0.00     0.088 A 
HETATM   13  N   UNK N   1      32.841  17.376   8.928  0.00  0.00    -0.363 N 
ATOM     14  HN  UNK N   1      32.575  17.412   9.912  1.00  0.00     0.165 HD
HETATM   15  C   UNK N   1      31.869  17.325   7.976  0.00  0.00     0.070 A 
HETATM   16  C   UNK N   1      30.515  17.322   8.341  0.00  0.00     0.070 A 
ENDROOT
TORSDOF 0
ENDMDL
MODEL 2
REMARK VINA RESULT:      -5.8      0.100      4.301
REMARK  0 active torsions:
REMARK  status: ('A' for Active; 'I' for Inactive)
ROOT
HETATM    1  N   UNK N   1      32.871  17.291   9.016  0.00  0.00    -0.363 N 
ATOM      2  HN  UNK N   1      32.590  17.315   9.996  1.00  0.00     0.165 HD
HETATM    3  C   UNK N   1      34.195  17.271   8.704  0.00  0.00     0.088 A 
HETATM    4  C   UNK N   1      34.603  17.238   7.367  0.00  0.00     0.018 A 
HETATM    5  C   UNK N   1      33.642  17.226   6.354  0.00  0.00     0.015 A 
HETATM    6  C   UNK N   1      32.288  17.247   6.687  0.00  0.00    -0.007 A 
HETATM    7  C   UNK N   1      31.312  17.236   5.686  0.00  0.00     0.014 A 
HETATM    8  C   UNK N   1      29.956  17.257   6.030  0.00  0.00     0.014 A 
HETATM    9  C   UNK N   1      29.574  17.289   7.374  0.00  0.00    -0.007 A 
HETATM   10  C   UNK N   1      28.225  17.311   7.726  0.00  0.00     0.015 A 
HETATM   11  C   UNK N   1      27.862  17.343   9.074  0.00  0.00     0.018 A 
HETATM   12  C   UNK N   1      28.858  17.354  10.056  0.00  0.00     0.088 A 
HETATM   13  N   UNK N   1      30.171  17.333   9.699  0.00  0.00    -0.363 N 
ATOM     14  HN  UNK N   1      30.885  17.341  10.427  1.00  0.00     0.165 HD
HETATM   15  C   UNK N   1      30.553  17.301   8.393  0.00  0.00     0.070 A 
HETATM   16  C   UNK N   1      31.913  17.280   8.049  0.00  0.00     0.070 A 
ENDROOT
TORSDOF 0
ENDMDL
MODEL 3
REMARK VINA RESULT:      -5.7      2.805      4.869
REMARK  0 active torsions:
REMARK  status: ('A' for Active; 'I' for Inactive)
ROOT
HETATM    1  N   UNK N   1      28.270  18.742   8.802  0.00  0.00    -0.363 N 
ATOM      2  HN  UNK N   1      27.534  19.404   9.046  1.00  0.00     0.165 HD
HETATM    3  C   UNK N   1      28.939  18.097   9.795  0.00  0.00     0.088 A 
HETATM    4  C   UNK N   1      29.952  17.184   9.484  0.00  0.00     0.018 A 
HETATM    5  C   UNK N   1      30.272  16.940   8.148  0.00  0.00     0.015 A 
HETATM    6  C   UNK N   1      29.578  17.608   7.139  0.00  0.00    -0.007 A 
HETATM    7  C   UNK N   1      29.884  17.375   5.795  0.00  0.00     0.014 A 
HETATM    8  C   UNK N   1      29.183  18.050   4.789  0.00  0.00     0.014 A 
HETATM    9  C   UNK N   1      28.174  18.958   5.127  0.00  0.00    -0.007 A 
HETATM   10  C   UNK N   1      27.470  19.635   4.132  0.00  0.00     0.015 A 
HETATM   11  C   UNK N   1      26.466  20.538   4.488  0.00  0.00     0.018 A 
HETATM   12  C   UNK N   1      26.179  20.752   5.840  0.00  0.00     0.088 A 
HETATM   13  N   UNK N   1      26.874  20.085   6.802  0.00  0.00    -0.363 N 
ATOM     14  HN  UNK N   1      26.653  20.252   7.783  1.00  0.00     0.165 HD
HETATM   15  C   UNK N   1      27.858  19.199   6.483  0.00  0.00     0.070 A 
HETATM   16  C   UNK N   1      28.561  18.522   7.491  0.00  0.00     0.070 A 
ENDROOT
TORSDOF 0
ENDMDL
MODEL 4
REMARK VINA RESULT:      -5.7      5.924      8.532
REMARK  0 active torsions:
REMARK  status: ('A' for Active; 'I' for Inactive)
ROOT
HETATM    1  N   UNK N   1      26.115  18.146   5.718  0.00  0.00    -0.363 N 
ATOM      2  HN  UNK N   1      25.537  17.564   6.323  1.00  0.00     0.165 HD
HETATM    3  C   UNK N   1      27.463  18.156   5.895  0.00  0.00     0.088 A 
HETATM    4  C   UNK N   1      28.275  18.946   5.076  0.00  0.00     0.018 A 
HETATM    5  C   UNK N   1      27.692  19.726   4.076  0.00  0.00     0.015 A 
HETATM    6  C   UNK N   1      26.308  19.708   3.904  0.00  0.00    -0.007 A 
HETATM    7  C   UNK N   1      25.707  20.483   2.908  0.00  0.00     0.014 A 
HETATM    8  C   UNK N   1      24.318  20.458   2.744  0.00  0.00     0.014 A 
HETATM    9  C   UNK N   1      23.528  19.658   3.575  0.00  0.00    -0.007 A 
HETATM   10  C   UNK N   1      22.143  19.627   3.419  0.00  0.00     0.015 A 
HETATM   11  C   UNK N   1      21.370  18.822   4.260  0.00  0.00     0.018 A 
HETATM   12  C   UNK N   1      21.996  18.057   5.248  0.00  0.00     0.088 A 
HETATM   13  N   UNK N   1      23.349  18.097   5.391  0.00  0.00    -0.363 N 
ATOM     14  HN  UNK N   1      23.790  17.533   6.117  1.00  0.00     0.165 HD
HETATM   15  C   UNK N   1      24.127  18.872   4.585  0.00  0.00     0.070 A 
HETATM   16  C   UNK N   1      25.520  18.897   4.750  0.00  0.00     0.070 A 
ENDROOT
TORSDOF 0
ENDMDL
MODEL 5
REMARK VINA RESULT:      -5.6      9.016     10.224
REMARK  0 active torsions:
REMARK  status: ('A' for Active; 'I' for Inactive)
ROOT
HETATM    1  N   UNK N   1      37.298  14.981  15.389  0.00  0.00    -0.363 N 
ATOM      2  HN  UNK N   1      37.867  15.217  14.577  1.00  0.00     0.165 HD
HETATM    3  C   UNK N   1      37.363  15.767  16.497  0.00  0.00     0.088 A 
HETATM    4  C   UNK N   1      36.591  15.462  17.623  0.00  0.00     0.018 A 
HETATM    5  C   UNK N   1      35.754  14.345  17.601  0.00  0.00     0.015 A 
HETATM    6  C   UNK N   1      35.696  13.547  16.459  0.00  0.00    -0.007 A 
HETATM    7  C   UNK N   1      34.863  12.425  16.419  0.00  0.00     0.014 A 
HETATM    8  C   UNK N   1      34.812  11.631  15.269  0.00  0.00     0.014 A 
HETATM    9  C   UNK N   1      35.593  11.957  14.156  0.00  0.00    -0.007 A 
HETATM   10  C   UNK N   1      35.549  11.172  13.005  0.00  0.00     0.015 A 
HETATM   11  C   UNK N   1      36.337  11.513  11.904  0.00  0.00     0.018 A 
HETATM   12  C   UNK N   1      37.161  12.640  11.969  0.00  0.00     0.088 A 
HETATM   13  N   UNK N   1      37.196  13.399  13.099  0.00  0.00    -0.363 N 
ATOM     14  HN  UNK N   1      37.802  14.218  13.130  1.00  0.00     0.165 HD
HETATM   15  C   UNK N   1      36.438  13.089  14.187  0.00  0.00     0.070 A 
HETATM   16  C   UNK N   1      36.490  13.886  15.341  0.00  0.00     0.070 A 
ENDROOT
TORSDOF 0
ENDMDL
MODEL 6
REMARK VINA RESULT:      -5.6      1.890      4.840
REMARK  0 active torsions:
REMARK  status: ('A' for Active; 'I' for Inactive)
ROOT
HETATM    1  N   UNK N   1      30.643  16.807   4.713  0.00  0.00    -0.363 N 
ATOM      2  HN  UNK N   1      29.642  16.654   4.596  1.00  0.00     0.165 HD
HETATM    3  C   UNK N   1      31.469  16.646   3.644  0.00  0.00     0.088 A 
HETATM    4  C   UNK N   1      32.845  16.850   3.781  0.00  0.00     0.018 A 
HETATM    5  C   UNK N   1      33.367  17.220   5.022  0.00  0.00     0.015 A 
HETATM    6  C   UNK N   1      32.509  17.382   6.110  0.00  0.00    -0.007 A 
HETATM    7  C   UNK N   1      33.013  17.752   7.360  0.00  0.00     0.014 A 
HETATM    8  C   UNK N   1      32.145  17.912   8.446  0.00  0.00     0.014 A 
HETATM    9  C   UNK N   1      30.773  17.702   8.283  0.00  0.00    -0.007 A 
HETATM   10  C   UNK N   1      29.900  17.859   9.359  0.00  0.00     0.015 A 
HETATM   11  C   UNK N   1      28.532  17.645   9.177  0.00  0.00     0.018 A 
HETATM   12  C   UNK N   1      28.054  17.276   7.917  0.00  0.00     0.088 A 
HETATM   13  N   UNK N   1      28.916  17.126   6.874  0.00  0.00    -0.363 N 
ATOM     14  HN  UNK N   1      28.551  16.856   5.961  1.00  0.00     0.165 HD
HETATM   15  C   UNK N   1      30.254  17.328   7.023  0.00  0.00     0.070 A 
HETATM   16  C   UNK N   1      31.124  17.167   5.934  0.00  0.00     0.070 A 
ENDROOT
TORSDOF 0
ENDMDL
MODEL 7
REMARK VINA RESULT:      -5.5     12.819     13.860
REMARK  0 active torsions:
REMARK  status: ('A' for Active; 'I' for Inactive)
ROOT
HETATM    1  N   UNK N   1      42.809  23.534   2.910  0.00  0.00    -0.363 N 
ATOM      2  HN  UNK N   1      42.839  24.547   2.796  1.00  0.00     0.165 HD
HETATM    3  C   UNK N   1      43.573  22.950   3.872  0.00  0.00     0.088 A 
HETATM    4  C   UNK N   1      43.548  21.563   4.046  0.00  0.00     0.018 A 
HETATM    5  C   UNK N   1      42.733  20.781   3.225  0.00  0.00     0.015 A 
HETATM    6  C   UNK N   1      41.954  21.392   2.242  0.00  0.00    -0.007 A 
HETATM    7  C   UNK N   1      41.132  20.625   1.411  0.00  0.00     0.014 A 
HETATM    8  C   UNK N   1      40.354  21.247   0.428  0.00  0.00     0.014 A 
HETATM    9  C   UNK N   1      40.398  22.636   0.275  0.00  0.00    -0.007 A 
HETATM   10  C   UNK N   1      39.626  23.264  -0.702  0.00  0.00     0.015 A 
HETATM   11  C   UNK N   1      39.683  24.652  -0.841  0.00  0.00     0.018 A 
HETATM   12  C   UNK N   1      40.513  25.396   0.003  0.00  0.00     0.088 A 
HETATM   13  N   UNK N   1      41.261  24.771   0.953  0.00  0.00    -0.363 N 
ATOM     14  HN  UNK N   1      41.861  25.328   1.560  1.00  0.00     0.165 HD
HETATM   15  C   UNK N   1      41.226  23.419   1.110  0.00  0.00     0.070 A 
HETATM   16  C   UNK N   1      42.005  22.796   2.096  0.00  0.00     0.070 A 
ENDROOT
TORSDOF 0
ENDMDL
MODEL 8
REMARK VINA RESULT:      -5.5     12.773     13.588
REMARK  0 active torsions:
REMARK  status: ('A' for Active; 'I' for Inactive)
ROOT
HETATM    1  N   UNK N   1      41.234  24.756   0.933  0.00  0.00    -0.363 N 
ATOM      2  HN  UNK N   1      41.842  25.303   1.542  1.00  0.00     0.165 HD
HETATM    3  C   UNK N   1      40.495  25.395  -0.014  0.00  0.00     0.088 A 
HETATM    4  C   UNK N   1      39.655  24.666  -0.861  0.00  0.00     0.018 A 
HETATM    5  C   UNK N   1      39.579  23.278  -0.729  0.00  0.00     0.015 A 
HETATM    6  C   UNK N   1      40.342  22.635   0.246  0.00  0.00    -0.007 A 
HETATM    7  C   UNK N   1      40.280  21.247   0.394  0.00  0.00     0.014 A 
HETATM    8  C   UNK N   1      41.049  20.611   1.374  0.00  0.00     0.014 A 
HETATM    9  C   UNK N   1      41.882  21.363   2.209  0.00  0.00    -0.007 A 
HETATM   10  C   UNK N   1      42.652  20.738   3.188  0.00  0.00     0.015 A 
HETATM   11  C   UNK N   1      43.478  21.505   4.013  0.00  0.00     0.018 A 
HETATM   12  C   UNK N   1      43.522  22.892   3.845  0.00  0.00     0.088 A 
HETATM   13  N   UNK N   1      42.765  23.491   2.884  0.00  0.00    -0.363 N 
ATOM     14  HN  UNK N   1      42.809  24.503   2.775  1.00  0.00     0.165 HD
HETATM   15  C   UNK N   1      41.952  22.767   2.067  0.00  0.00     0.070 A 
HETATM   16  C   UNK N   1      41.180  23.405   1.084  0.00  0.00     0.070 A 
ENDROOT
TORSDOF 0
ENDMDL
MODEL 9
REMARK VINA RESULT:      -5.4      3.383      5.799
REMARK  0 active torsions:
REMARK  status: ('A' for Active; 'I' for Inactive)
ROOT
HETATM    1  N   UNK N   1      29.778  17.383   3.911  0.00  0.00    -0.363 N 
ATOM      2  HN  UNK N   1      29.419  17.747   3.029  1.00  0.00     0.165 HD
HETATM    3  C   UNK N   1      30.731  16.413   3.891  0.00  0.00     0.088 A 
HETATM    4  C   UNK N   1      31.237  15.899   5.089  0.00  0.00     0.018 A 
HETATM    5  C   UNK N   1      30.757  16.387   6.305  0.00  0.00     0.015 A 
HETATM    6  C   UNK N   1      29.778  17.381   6.312  0.00  0.00    -0.007 A 
HETATM    7  C   UNK N   1      29.285  17.882   7.520  0.00  0.00     0.014 A 
HETATM    8  C   UNK N   1      28.304  18.880   7.517  0.00  0.00     0.014 A 
HETATM    9  C   UNK N   1      27.815  19.377   6.305  0.00  0.00    -0.007 A 
HETATM   10  C   UNK N   1      26.837  20.371   6.292  0.00  0.00     0.015 A 
HETATM   11  C   UNK N   1      26.360  20.856   5.072  0.00  0.00     0.018 A 
HETATM   12  C   UNK N   1      26.870  20.338   3.878  0.00  0.00     0.088 A 
HETATM   13  N   UNK N   1      27.824  19.368   3.904  0.00  0.00    -0.363 N 
ATOM     14  HN  UNK N   1      28.186  19.001   3.025  1.00  0.00     0.165 HD
HETATM   15  C   UNK N   1      28.307  18.877   5.079  0.00  0.00     0.070 A 
HETATM   16  C   UNK N   1      29.291  17.877   5.082  0.00  0.00     0.070 A 
ENDROOT
TORSDOF 0
ENDMDL
