REMARK  0 active torsions:
REMARK  status: ('A' for Active; 'I' for Inactive)
ROOT
HETATM    1  N   UNK N   1      -1.291  -1.677  -0.000  0.00  0.00    -0.363 N 
ATOM      2  HN  UNK N   1      -0.778  -2.558  -0.000  1.00  0.00     0.165 HD
HETATM    3  C   UNK N   1      -2.651  -1.700  -0.000  0.00  0.00     0.088 A 
HETATM    4  C   UNK N   1      -3.375  -0.504  -0.000  0.00  0.00     0.018 A 
HETATM    5  C   UNK N   1      -2.693   0.714  -0.000  0.00  0.00     0.015 A 
HETATM    6  C   UNK N   1      -1.298   0.724  -0.000  0.00  0.00    -0.007 A 
HETATM    7  C   UNK N   1      -0.598   1.934  -0.000  0.00  0.00     0.014 A 
HETATM    8  C   UNK N   1       0.801   1.934   0.000  0.00  0.00     0.014 A 
HETATM    9  C   UNK N   1       1.502   0.724   0.000  0.00  0.00    -0.007 A 
HETATM   10  C   UNK N   1       2.896   0.714   0.000  0.00  0.00     0.015 A 
HETATM   11  C   UNK N   1       3.579  -0.504   0.000  0.00  0.00     0.018 A 
HETATM   12  C   UNK N   1       2.855  -1.700   0.000  0.00  0.00     0.088 A 
HETATM   13  N   UNK N   1       1.494  -1.677   0.000  0.00  0.00    -0.363 N 
ATOM     14  HN  UNK N   1       0.981  -2.558   0.000  1.00  0.00     0.165 HD
HETATM   15  C   UNK N   1       0.803  -0.504   0.000  0.00  0.00     0.070 A 
HETATM   16  C   UNK N   1      -0.600  -0.504  -0.000  0.00  0.00     0.070 A 
ENDROOT
TORSDOF 0
