MODEL 1
REMARK VINA RESULT:      -6.7      0.000      0.000
REMARK  5 active torsions:
REMARK  status: ('A' for Active; 'I' for Inactive)
REMARK    1  A    between atoms: C_9  and  N_10 
REMARK       I    between atoms: N_10  and  C_11 
REMARK    2  A    between atoms: C_11  and  C_13 
REMARK    3  A    between atoms: C_16  and  O_17 
REMARK    4  A    between atoms: C_19  and  O_21 
REMARK    5  A    between atoms: O_21  and  C_22 
ROOT
HETATM    1  C   UNK N   1      35.319  11.249  18.279  0.00  0.00     0.035 A 
HETATM    2  C   UNK N   1      35.212  12.204  19.297  0.00  0.00     0.020 A 
HETATM    3  C   UNK N   1      34.881  11.782  20.601  0.00  0.00     0.040 A 
HETATM    4  C   UNK N   1      34.589  10.429  20.877  0.00  0.00     0.101 A 
HETATM    5  C   UNK N   1      34.613   9.495  19.807  0.00  0.00     0.103 A 
HETATM    6  C   UNK N   1      35.012   9.937  18.554  0.00  0.00     0.056 A 
ENDROOT
BRANCH   1   7
HETATM    7  C   UNK N   1      35.703  11.531  16.893  0.00  0.00     0.256 C 
HETATM    8  N   UNK N   1      35.197  12.579  16.201  0.00  0.00    -0.320 N 
HETATM    9  H   UNK N   1      34.683  13.266  16.684  0.00  0.00     0.169 HD
HETATM   10  O   UNK N   1      36.467  10.746  16.341  0.00  0.00    -0.267 OA
BRANCH   8  11
HETATM   11  C   UNK N   1      35.388  12.719  14.790  0.00  0.00     0.081 A 
HETATM   12  C   UNK N   1      34.709  11.898  13.838  0.00  0.00     0.077 A 
HETATM   13 Cl   UNK N   1      33.456  10.725  14.253  0.00  0.00    -0.080 Cl
HETATM   14  C   UNK N   1      34.989  12.060  12.481  0.00  0.00     0.113 A 
HETATM   15  N   UNK N   1      35.885  12.992  12.067  0.00  0.00    -0.372 N 
HETATM   16  C   UNK N   1      36.505  13.819  12.949  0.00  0.00     0.113 A 
ATOM     17  HN  UNK N   1      36.097  13.073  11.074  1.00  0.00     0.164 HD
HETATM   18  C   UNK N   1      36.265  13.703  14.318  0.00  0.00     0.077 A 
HETATM   19 Cl   UNK N   1      37.082  14.791  15.426  0.00  0.00    -0.080 Cl
ENDBRANCH   8  11
ENDBRANCH   1   7
BRANCH   5  20
HETATM   20  O   UNK N   1      34.210   8.202  19.943  0.00  0.00    -0.343 OA
BRANCH  20  21
HETATM   21  C   UNK N   1      32.954   7.800  19.499  0.00  0.00     0.129 C 
HETATM   22  C   UNK N   1      31.805   8.513  20.147  0.00  0.00     0.032 C 
HETATM   23  C   UNK N   1      30.611   7.655  19.747  0.00  0.00     0.002 C 
HETATM   24  C   UNK N   1      31.158   6.260  19.452  0.00  0.00     0.002 C 
HETATM   25  C   UNK N   1      32.644   6.336  19.727  0.00  0.00     0.032 C 
ENDBRANCH  20  21
ENDBRANCH   5  20
BRANCH   4  26
HETATM   26  O   UNK N   1      34.267  10.090  22.153  0.00  0.00    -0.353 OA
HETATM   27  C   UNK N   1      33.143  10.518  22.822  0.00  0.00     0.210 C 
ENDBRANCH   4  26
TORSDOF 5
ENDMDL
MODEL 2
REMARK VINA RESULT:      -6.7     16.201     18.107
REMARK  5 active torsions:
REMARK  status: ('A' for Active; 'I' for Inactive)
REMARK    1  A    between atoms: C_9  and  N_10 
REMARK       I    between atoms: N_10  and  C_11 
REMARK    2  A    between atoms: C_11  and  C_13 
REMARK    3  A    between atoms: C_16  and  O_17 
REMARK    4  A    between atoms: C_19  and  O_21 
REMARK    5  A    between atoms: O_21  and  C_22 
ROOT
HETATM    1  C   UNK N   1      22.863  15.697   6.266  0.00  0.00     0.035 A 
HETATM    2  C   UNK N   1      23.436  14.600   6.921  0.00  0.00     0.020 A 
HETATM    3  C   UNK N   1      22.629  13.804   7.759  0.00  0.00     0.040 A 
HETATM    4  C   UNK N   1      21.278  14.133   7.998  0.00  0.00     0.101 A 
HETATM    5  C   UNK N   1      20.746  15.305   7.395  0.00  0.00     0.103 A 
HETATM    6  C   UNK N   1      21.552  16.022   6.523  0.00  0.00     0.056 A 
ENDROOT
BRANCH   1   7
HETATM    7  C   UNK N   1      23.562  16.582   5.331  0.00  0.00     0.256 C 
HETATM    8  N   UNK N   1      23.710  17.908   5.561  0.00  0.00    -0.320 N 
HETATM    9  H   UNK N   1      23.488  18.264   6.452  0.00  0.00     0.169 HD
HETATM   10  O   UNK N   1      23.972  16.095   4.281  0.00  0.00    -0.267 OA
BRANCH   8  11
HETATM   11  C   UNK N   1      24.180  18.806   4.551  0.00  0.00     0.081 A 
HETATM   12  C   UNK N   1      25.570  19.043   4.321  0.00  0.00     0.077 A 
HETATM   13 Cl   UNK N   1      26.873  18.167   5.129  0.00  0.00    -0.080 Cl
HETATM   14  C   UNK N   1      25.947  19.973   3.353  0.00  0.00     0.113 A 
HETATM   15  N   UNK N   1      25.011  20.638   2.632  0.00  0.00    -0.372 N 
HETATM   16  C   UNK N   1      23.684  20.395   2.797  0.00  0.00     0.113 A 
ATOM     17  HN  UNK N   1      25.308  21.336   1.951  1.00  0.00     0.164 HD
HETATM   18  C   UNK N   1      23.247  19.475   3.750  0.00  0.00     0.077 A 
HETATM   19 Cl   UNK N   1      21.526  19.183   3.932  0.00  0.00    -0.080 Cl
ENDBRANCH   8  11
ENDBRANCH   1   7
BRANCH   5  20
HETATM   20  O   UNK N   1      19.503  15.783   7.676  0.00  0.00    -0.343 OA
BRANCH  20  21
HETATM   21  C   UNK N   1      19.292  16.602   8.782  0.00  0.00     0.129 C 
HETATM   22  C   UNK N   1      17.850  16.837   9.119  0.00  0.00     0.032 C 
HETATM   23  C   UNK N   1      17.921  18.000  10.100  0.00  0.00     0.002 C 
HETATM   24  C   UNK N   1      19.231  18.731   9.814  0.00  0.00     0.002 C 
HETATM   25  C   UNK N   1      19.862  17.997   8.650  0.00  0.00     0.032 C 
ENDBRANCH  20  21
ENDBRANCH   5  20
BRANCH   4  26
HETATM   26  O   UNK N   1      20.558  13.329   8.823  0.00  0.00    -0.353 OA
HETATM   27  C   UNK N   1      20.605  13.366  10.198  0.00  0.00     0.210 C 
ENDBRANCH   4  26
TORSDOF 5
ENDMDL
MODEL 3
REMARK VINA RESULT:      -6.7      1.311      2.306
REMARK  5 active torsions:
REMARK  status: ('A' for Active; 'I' for Inactive)
REMARK    1  A    between atoms: C_9  and  N_10 
REMARK       I    between atoms: N_10  and  C_11 
REMARK    2  A    between atoms: C_11  and  C_13 
REMARK    3  A    between atoms: C_16  and  O_17 
REMARK    4  A    between atoms: C_19  and  O_21 
REMARK    5  A    between atoms: O_21  and  C_22 
ROOT
HETATM    1  C   UNK N   1      35.085  11.968  17.749  0.00  0.00     0.035 A 
HETATM    2  C   UNK N   1      35.395  12.751  18.868  0.00  0.00     0.020 A 
HETATM    3  C   UNK N   1      35.603  12.119  20.110  0.00  0.00     0.040 A 
HETATM    4  C   UNK N   1      35.437  10.725  20.256  0.00  0.00     0.101 A 
HETATM    5  C   UNK N   1      35.030   9.966  19.126  0.00  0.00     0.103 A 
HETATM    6  C   UNK N   1      34.904  10.614  17.906  0.00  0.00     0.056 A 
ENDROOT
BRANCH   1   7
HETATM    7  C   UNK N   1      34.892  12.478  16.389  0.00  0.00     0.256 C 
HETATM    8  N   UNK N   1      35.743  12.184  15.378  0.00  0.00    -0.320 N 
HETATM    9  H   UNK N   1      36.419  11.481  15.513  0.00  0.00     0.169 HD
HETATM   10  O   UNK N   1      33.952  13.242  16.193  0.00  0.00    -0.267 OA
BRANCH   8  11
HETATM   11  C   UNK N   1      35.689  12.862  14.119  0.00  0.00     0.081 A 
HETATM   12  C   UNK N   1      36.232  14.169  13.927  0.00  0.00     0.077 A 
HETATM   13 Cl   UNK N   1      37.159  15.049  15.147  0.00  0.00    -0.080 Cl
HETATM   14  C   UNK N   1      36.093  14.786  12.683  0.00  0.00     0.113 A 
HETATM   15  N   UNK N   1      35.461  14.150  11.665  0.00  0.00    -0.372 N 
HETATM   16  C   UNK N   1      34.979  12.888  11.807  0.00  0.00     0.113 A 
ATOM     17  HN  UNK N   1      35.342  14.631  10.774  1.00  0.00     0.164 HD
HETATM   18  C   UNK N   1      35.090  12.221  13.028  0.00  0.00     0.077 A 
HETATM   19 Cl   UNK N   1      34.461  10.589  13.173  0.00  0.00    -0.080 Cl
ENDBRANCH   8  11
ENDBRANCH   1   7
BRANCH   5  20
HETATM   20  O   UNK N   1      34.707   8.645  19.198  0.00  0.00    -0.343 OA
BRANCH  20  21
HETATM   21  C   UNK N   1      33.376   8.238  19.162  0.00  0.00     0.129 C 
HETATM   22  C   UNK N   1      32.499   8.878  20.196  0.00  0.00     0.032 C 
HETATM   23  C   UNK N   1      31.245   8.015  20.150  0.00  0.00     0.002 C 
HETATM   24  C   UNK N   1      31.671   6.657  19.598  0.00  0.00     0.002 C 
HETATM   25  C   UNK N   1      33.165   6.756  19.378  0.00  0.00     0.032 C 
ENDBRANCH  20  21
ENDBRANCH   5  20
BRANCH   4  26
HETATM   26  O   UNK N   1      35.643  10.179  21.484  0.00  0.00    -0.353 OA
HETATM   27  C   UNK N   1      36.858   9.740  21.957  0.00  0.00     0.210 C 
ENDBRANCH   4  26
TORSDOF 5
ENDMDL
MODEL 4
REMARK VINA RESULT:      -6.6     14.509     16.465
REMARK  5 active torsions:
REMARK  status: ('A' for Active; 'I' for Inactive)
REMARK    1  A    between atoms: C_9  and  N_10 
REMARK       I    between atoms: N_10  and  C_11 
REMARK    2  A    between atoms: C_11  and  C_13 
REMARK    3  A    between atoms: C_16  and  O_17 
REMARK    4  A    between atoms: C_19  and  O_21 
REMARK    5  A    between atoms: O_21  and  C_22 
ROOT
HETATM    1  C   UNK N   1      22.299  16.038   6.517  0.00  0.00     0.035 A 
HETATM    2  C   UNK N   1      21.390  17.103   6.555  0.00  0.00     0.020 A 
HETATM    3  C   UNK N   1      20.291  17.035   7.434  0.00  0.00     0.040 A 
HETATM    4  C   UNK N   1      20.056  15.887   8.221  0.00  0.00     0.101 A 
HETATM    5  C   UNK N   1      20.940  14.782   8.094  0.00  0.00     0.103 A 
HETATM    6  C   UNK N   1      22.049  14.915   7.271  0.00  0.00     0.056 A 
ENDROOT
BRANCH   1   7
HETATM    7  C   UNK N   1      23.510  15.990   5.693  0.00  0.00     0.256 C 
HETATM    8  N   UNK N   1      24.719  16.381   6.160  0.00  0.00    -0.320 N 
HETATM    9  H   UNK N   1      24.826  16.550   7.124  0.00  0.00     0.169 HD
HETATM   10  O   UNK N   1      23.392  15.632   4.525  0.00  0.00    -0.267 OA
BRANCH   8  11
HETATM   11  C   UNK N   1      25.846  16.555   5.296  0.00  0.00     0.081 A 
HETATM   12  C   UNK N   1      26.769  15.502   5.017  0.00  0.00     0.077 A 
HETATM   13 Cl   UNK N   1      26.570  13.835   5.567  0.00  0.00    -0.080 Cl
HETATM   14  C   UNK N   1      27.873  15.765   4.206  0.00  0.00     0.113 A 
HETATM   15  N   UNK N   1      28.063  17.001   3.679  0.00  0.00    -0.372 N 
HETATM   16  C   UNK N   1      27.173  18.005   3.888  0.00  0.00     0.113 A 
ATOM     17  HN  UNK N   1      28.893  17.180   3.114  1.00  0.00     0.164 HD
HETATM   18  C   UNK N   1      26.051  17.801   4.690  0.00  0.00     0.077 A 
HETATM   19 Cl   UNK N   1      24.920  19.121   4.935  0.00  0.00    -0.080 Cl
ENDBRANCH   8  11
ENDBRANCH   1   7
BRANCH   5  20
HETATM   20  O   UNK N   1      20.719  13.583   8.700  0.00  0.00    -0.343 OA
BRANCH  20  21
HETATM   21  C   UNK N   1      21.523  13.164   9.757  0.00  0.00     0.129 C 
HETATM   22  C   UNK N   1      22.519  12.102   9.400  0.00  0.00     0.032 C 
HETATM   23  C   UNK N   1      22.985  11.610  10.765  0.00  0.00     0.002 C 
HETATM   24  C   UNK N   1      21.865  11.936  11.750  0.00  0.00     0.002 C 
HETATM   25  C   UNK N   1      20.766  12.570  10.925  0.00  0.00     0.032 C 
ENDBRANCH  20  21
ENDBRANCH   5  20
BRANCH   4  26
HETATM   26  O   UNK N   1      18.972  15.882   9.041  0.00  0.00    -0.353 OA
HETATM   27  C   UNK N   1      18.105  16.938   9.207  0.00  0.00     0.210 C 
ENDBRANCH   4  26
TORSDOF 5
ENDMDL
MODEL 5
REMARK VINA RESULT:      -6.6     16.764     20.341
REMARK  5 active torsions:
REMARK  status: ('A' for Active; 'I' for Inactive)
REMARK    1  A    between atoms: C_9  and  N_10 
REMARK       I    between atoms: N_10  and  C_11 
REMARK    2  A    between atoms: C_11  and  C_13 
REMARK    3  A    between atoms: C_16  and  O_17 
REMARK    4  A    between atoms: C_19  and  O_21 
REMARK    5  A    between atoms: O_21  and  C_22 
ROOT
HETATM    1  C   UNK N   1      20.934  17.737   4.337  0.00  0.00     0.035 A 
HETATM    2  C   UNK N   1      19.994  17.971   3.326  0.00  0.00     0.020 A 
HETATM    3  C   UNK N   1      20.277  18.937   2.339  0.00  0.00     0.040 A 
HETATM    4  C   UNK N   1      21.454  19.714   2.393  0.00  0.00     0.101 A 
HETATM    5  C   UNK N   1      22.346  19.522   3.482  0.00  0.00     0.103 A 
HETATM    6  C   UNK N   1      22.067  18.514   4.394  0.00  0.00     0.056 A 
ENDROOT
BRANCH   1   7
HETATM    7  C   UNK N   1      20.802  16.735   5.398  0.00  0.00     0.256 C 
HETATM    8  N   UNK N   1      21.513  16.799   6.548  0.00  0.00    -0.320 N 
HETATM    9  H   UNK N   1      22.012  17.623   6.754  0.00  0.00     0.169 HD
HETATM   10  O   UNK N   1      20.057  15.781   5.192  0.00  0.00    -0.267 OA
BRANCH   8  11
HETATM   11  C   UNK N   1      21.560  15.709   7.473  0.00  0.00     0.081 A 
HETATM   12  C   UNK N   1      22.462  14.612   7.323  0.00  0.00     0.077 A 
HETATM   13 Cl   UNK N   1      23.720  14.524   6.086  0.00  0.00    -0.080 Cl
HETATM   14  C   UNK N   1      22.409  13.560   8.238  0.00  0.00     0.113 A 
HETATM   15  N   UNK N   1      21.523  13.582   9.264  0.00  0.00    -0.372 N 
HETATM   16  C   UNK N   1      20.689  14.637   9.459  0.00  0.00     0.113 A 
ATOM     17  HN  UNK N   1      21.481  12.790   9.904  1.00  0.00     0.164 HD
HETATM   18  C   UNK N   1      20.696  15.717   8.576  0.00  0.00     0.077 A 
HETATM   19 Cl   UNK N   1      19.608  17.064   8.861  0.00  0.00    -0.080 Cl
ENDBRANCH   8  11
ENDBRANCH   1   7
BRANCH   5  20
HETATM   20  O   UNK N   1      23.430  20.316   3.699  0.00  0.00    -0.343 OA
BRANCH  20  21
HETATM   21  C   UNK N   1      24.710  19.770   3.755  0.00  0.00     0.129 C 
HETATM   22  C   UNK N   1      25.295  19.691   5.133  0.00  0.00     0.032 C 
HETATM   23  C   UNK N   1      26.765  19.402   4.855  0.00  0.00     0.002 C 
HETATM   24  C   UNK N   1      27.051  19.918   3.447  0.00  0.00     0.002 C 
HETATM   25  C   UNK N   1      25.752  20.527   2.963  0.00  0.00     0.032 C 
ENDBRANCH  20  21
ENDBRANCH   5  20
BRANCH   4  26
HETATM   26  O   UNK N   1      21.661  20.635   1.415  0.00  0.00    -0.353 OA
HETATM   27  C   UNK N   1      20.723  21.019   0.484  0.00  0.00     0.210 C 
ENDBRANCH   4  26
TORSDOF 5
ENDMDL
MODEL 6
REMARK VINA RESULT:      -6.5     14.610     16.618
REMARK  5 active torsions:
REMARK  status: ('A' for Active; 'I' for Inactive)
REMARK    1  A    between atoms: C_9  and  N_10 
REMARK       I    between atoms: N_10  and  C_11 
REMARK    2  A    between atoms: C_11  and  C_13 
REMARK    3  A    between atoms: C_16  and  O_17 
REMARK    4  A    between atoms: C_19  and  O_21 
REMARK    5  A    between atoms: O_21  and  C_22 
ROOT
HETATM    1  C   UNK N   1      22.162  16.123   6.461  0.00  0.00     0.035 A 
HETATM    2  C   UNK N   1      21.252  17.186   6.507  0.00  0.00     0.020 A 
HETATM    3  C   UNK N   1      20.162  17.117   7.397  0.00  0.00     0.040 A 
HETATM    4  C   UNK N   1      19.938  15.970   8.189  0.00  0.00     0.101 A 
HETATM    5  C   UNK N   1      20.823  14.867   8.054  0.00  0.00     0.103 A 
HETATM    6  C   UNK N   1      21.922  15.001   7.219  0.00  0.00     0.056 A 
ENDROOT
BRANCH   1   7
HETATM    7  C   UNK N   1      23.365  16.075   5.625  0.00  0.00     0.256 C 
HETATM    8  N   UNK N   1      24.599  16.338   6.116  0.00  0.00    -0.320 N 
HETATM    9  H   UNK N   1      24.720  16.404   7.091  0.00  0.00     0.169 HD
HETATM   10  O   UNK N   1      23.219  15.843   4.429  0.00  0.00    -0.267 OA
BRANCH   8  11
HETATM   11  C   UNK N   1      25.732  16.521   5.262  0.00  0.00     0.081 A 
HETATM   12  C   UNK N   1      26.041  17.776   4.654  0.00  0.00     0.077 A 
HETATM   13 Cl   UNK N   1      25.174  19.279   4.983  0.00  0.00    -0.080 Cl
HETATM   14  C   UNK N   1      27.133  17.861   3.791  0.00  0.00     0.113 A 
HETATM   15  N   UNK N   1      27.901  16.770   3.540  0.00  0.00    -0.372 N 
HETATM   16  C   UNK N   1      27.658  15.578   4.144  0.00  0.00     0.113 A 
ATOM     17  HN  UNK N   1      28.676  16.847   2.882  1.00  0.00     0.164 HD
HETATM   18  C   UNK N   1      26.580  15.434   5.017  0.00  0.00     0.077 A 
HETATM   19 Cl   UNK N   1      26.299  13.880   5.783  0.00  0.00    -0.080 Cl
ENDBRANCH   8  11
ENDBRANCH   1   7
BRANCH   5  20
HETATM   20  O   UNK N   1      20.610  13.669   8.664  0.00  0.00    -0.343 OA
BRANCH  20  21
HETATM   21  C   UNK N   1      21.488  13.204   9.640  0.00  0.00     0.129 C 
HETATM   22  C   UNK N   1      22.373  12.077   9.198  0.00  0.00     0.032 C 
HETATM   23  C   UNK N   1      22.942  11.564  10.515  0.00  0.00     0.002 C 
HETATM   24  C   UNK N   1      21.951  11.968  11.604  0.00  0.00     0.002 C 
HETATM   25  C   UNK N   1      20.818  12.669  10.886  0.00  0.00     0.032 C 
ENDBRANCH  20  21
ENDBRANCH   5  20
BRANCH   4  26
HETATM   26  O   UNK N   1      18.862  15.964   9.020  0.00  0.00    -0.353 OA
HETATM   27  C   UNK N   1      18.147  17.080   9.390  0.00  0.00     0.210 C 
ENDBRANCH   4  26
TORSDOF 5
ENDMDL
MODEL 7
REMARK VINA RESULT:      -6.4     16.479     19.795
REMARK  5 active torsions:
REMARK  status: ('A' for Active; 'I' for Inactive)
REMARK    1  A    between atoms: C_9  and  N_10 
REMARK       I    between atoms: N_10  and  C_11 
REMARK    2  A    between atoms: C_11  and  C_13 
REMARK    3  A    between atoms: C_16  and  O_17 
REMARK    4  A    between atoms: C_19  and  O_21 
REMARK    5  A    between atoms: O_21  and  C_22 
ROOT
HETATM    1  C   UNK N   1      22.009  17.459   4.757  0.00  0.00     0.035 A 
HETATM    2  C   UNK N   1      20.812  17.809   4.121  0.00  0.00     0.020 A 
HETATM    3  C   UNK N   1      20.810  18.882   3.207  0.00  0.00     0.040 A 
HETATM    4  C   UNK N   1      21.974  19.647   2.978  0.00  0.00     0.101 A 
HETATM    5  C   UNK N   1      23.151  19.330   3.707  0.00  0.00     0.103 A 
HETATM    6  C   UNK N   1      23.131  18.224   4.544  0.00  0.00     0.056 A 
ENDROOT
BRANCH   1   7
HETATM    7  C   UNK N   1      22.174  16.340   5.690  0.00  0.00     0.256 C 
HETATM    8  N   UNK N   1      21.162  15.491   5.988  0.00  0.00    -0.320 N 
HETATM    9  H   UNK N   1      20.340  15.521   5.448  0.00  0.00     0.169 HD
HETATM   10  O   UNK N   1      23.259  16.220   6.251  0.00  0.00    -0.267 OA
BRANCH   8  11
HETATM   11  C   UNK N   1      21.253  14.552   7.064  0.00  0.00     0.081 A 
HETATM   12  C   UNK N   1      20.969  14.905   8.418  0.00  0.00     0.077 A 
HETATM   13 Cl   UNK N   1      20.336  16.475   8.923  0.00  0.00    -0.080 Cl
HETATM   14  C   UNK N   1      21.133  13.946   9.418  0.00  0.00     0.113 A 
HETATM   15  N   UNK N   1      21.544  12.691   9.109  0.00  0.00    -0.372 N 
HETATM   16  C   UNK N   1      21.772  12.316   7.824  0.00  0.00     0.113 A 
ATOM     17  HN  UNK N   1      21.686  12.014   9.858  1.00  0.00     0.164 HD
HETATM   18  C   UNK N   1      21.625  13.231   6.782  0.00  0.00     0.077 A 
HETATM   19 Cl   UNK N   1      21.924  12.710   5.133  0.00  0.00    -0.080 Cl
ENDBRANCH   8  11
ENDBRANCH   1   7
BRANCH   5  20
HETATM   20  O   UNK N   1      24.277  20.093   3.662  0.00  0.00    -0.343 OA
BRANCH  20  21
HETATM   21  C   UNK N   1      25.426  19.703   4.347  0.00  0.00     0.129 C 
HETATM   22  C   UNK N   1      25.856  20.645   5.431  0.00  0.00     0.032 C 
HETATM   23  C   UNK N   1      27.268  20.168   5.745  0.00  0.00     0.002 C 
HETATM   24  C   UNK N   1      27.773  19.450   4.497  0.00  0.00     0.002 C 
HETATM   25  C   UNK N   1      26.658  19.564   3.480  0.00  0.00     0.032 C 
ENDBRANCH  20  21
ENDBRANCH   5  20
BRANCH   4  26
HETATM   26  O   UNK N   1      21.902  20.674   2.091  0.00  0.00    -0.353 OA
HETATM   27  C   UNK N   1      20.840  20.916   1.249  0.00  0.00     0.210 C 
ENDBRANCH   4  26
TORSDOF 5
ENDMDL
MODEL 8
REMARK VINA RESULT:      -6.4     14.252     17.502
REMARK  5 active torsions:
REMARK  status: ('A' for Active; 'I' for Inactive)
REMARK    1  A    between atoms: C_9  and  N_10 
REMARK       I    between atoms: N_10  and  C_11 
REMARK    2  A    between atoms: C_11  and  C_13 
REMARK    3  A    between atoms: C_16  and  O_17 
REMARK    4  A    between atoms: C_19  and  O_21 
REMARK    5  A    between atoms: O_21  and  C_22 
ROOT
HETATM    1  C   UNK N   1      26.157  19.110   4.325  0.00  0.00     0.035 A 
HETATM    2  C   UNK N   1      25.751  20.220   3.574  0.00  0.00     0.020 A 
HETATM    3  C   UNK N   1      24.385  20.375   3.264  0.00  0.00     0.040 A 
HETATM    4  C   UNK N   1      23.436  19.399   3.639  0.00  0.00     0.101 A 
HETATM    5  C   UNK N   1      23.888  18.237   4.319  0.00  0.00     0.103 A 
HETATM    6  C   UNK N   1      25.229  18.154   4.666  0.00  0.00     0.056 A 
ENDROOT
BRANCH   1   7
HETATM    7  C   UNK N   1      27.530  18.843   4.763  0.00  0.00     0.256 C 
HETATM    8  N   UNK N   1      27.878  17.696   5.393  0.00  0.00    -0.320 N 
HETATM    9  H   UNK N   1      27.236  16.950   5.415  0.00  0.00     0.169 HD
HETATM   10  O   UNK N   1      28.365  19.726   4.596  0.00  0.00    -0.267 OA
BRANCH   8  11
HETATM   11  C   UNK N   1      29.152  17.534   6.024  0.00  0.00     0.081 A 
HETATM   12  C   UNK N   1      30.295  17.031   5.331  0.00  0.00     0.077 A 
HETATM   13 Cl   UNK N   1      30.333  16.688   3.599  0.00  0.00    -0.080 Cl
HETATM   14  C   UNK N   1      31.488  16.852   6.031  0.00  0.00     0.113 A 
HETATM   15  N   UNK N   1      31.568  17.161   7.349  0.00  0.00    -0.372 N 
HETATM   16  C   UNK N   1      30.510  17.688   8.019  0.00  0.00     0.113 A 
ATOM     17  HN  UNK N   1      32.441  16.994   7.849  1.00  0.00     0.164 HD
HETATM   18  C   UNK N   1      29.291  17.890   7.372  0.00  0.00     0.077 A 
HETATM   19 Cl   UNK N   1      27.948  18.576   8.268  0.00  0.00    -0.080 Cl
ENDBRANCH   8  11
ENDBRANCH   1   7
BRANCH   5  20
HETATM   20  O   UNK N   1      23.078  17.178   4.595  0.00  0.00    -0.343 OA
BRANCH  20  21
HETATM   21  C   UNK N   1      22.545  17.007   5.870  0.00  0.00     0.129 C 
HETATM   22  C   UNK N   1      22.365  15.577   6.284  0.00  0.00     0.032 C 
HETATM   23  C   UNK N   1      21.475  15.695   7.515  0.00  0.00     0.002 C 
HETATM   24  C   UNK N   1      20.728  17.020   7.386  0.00  0.00     0.002 C 
HETATM   25  C   UNK N   1      21.174  17.614   6.067  0.00  0.00     0.032 C 
ENDBRANCH  20  21
ENDBRANCH   5  20
BRANCH   4  26
HETATM   26  O   UNK N   1      22.136  19.605   3.301  0.00  0.00    -0.353 OA
HETATM   27  C   UNK N   1      21.693  20.571   2.426  0.00  0.00     0.210 C 
ENDBRANCH   4  26
TORSDOF 5
ENDMDL
MODEL 9
REMARK VINA RESULT:      -6.4     15.591     19.335
REMARK  5 active torsions:
REMARK  status: ('A' for Active; 'I' for Inactive)
REMARK    1  A    between atoms: C_9  and  N_10 
REMARK       I    between atoms: N_10  and  C_11 
REMARK    2  A    between atoms: C_11  and  C_13 
REMARK    3  A    between atoms: C_16  and  O_17 
REMARK    4  A    between atoms: C_19  and  O_21 
REMARK    5  A    between atoms: O_21  and  C_22 
ROOT
HETATM    1  C   UNK N   1      22.343  17.305   4.377  0.00  0.00     0.035 A 
HETATM    2  C   UNK N   1      21.080  17.679   3.904  0.00  0.00     0.020 A 
HETATM    3  C   UNK N   1      20.939  18.901   3.216  0.00  0.00     0.040 A 
HETATM    4  C   UNK N   1      22.033  19.779   3.058  0.00  0.00     0.101 A 
HETATM    5  C   UNK N   1      23.282  19.419   3.629  0.00  0.00     0.103 A 
HETATM    6  C   UNK N   1      23.398  18.178   4.237  0.00  0.00     0.056 A 
ENDROOT
BRANCH   1   7
HETATM    7  C   UNK N   1      22.651  16.047   5.063  0.00  0.00     0.256 C 
HETATM    8  N   UNK N   1      22.820  15.977   6.405  0.00  0.00    -0.320 N 
HETATM    9  H   UNK N   1      22.571  16.753   6.958  0.00  0.00     0.169 HD
HETATM   10  O   UNK N   1      22.813  15.046   4.373  0.00  0.00    -0.267 OA
BRANCH   8  11
HETATM   11  C   UNK N   1      23.346  14.809   7.043  0.00  0.00     0.081 A 
HETATM   12  C   UNK N   1      24.746  14.541   7.119  0.00  0.00     0.077 A 
HETATM   13 Cl   UNK N   1      26.003  15.660   6.581  0.00  0.00    -0.080 Cl
HETATM   14  C   UNK N   1      25.178  13.354   7.711  0.00  0.00     0.113 A 
HETATM   15  N   UNK N   1      24.283  12.470   8.219  0.00  0.00    -0.372 N 
HETATM   16  C   UNK N   1      22.948  12.726   8.204  0.00  0.00     0.113 A 
ATOM     17  HN  UNK N   1      24.618  11.595   8.619  1.00  0.00     0.164 HD
HETATM   18  C   UNK N   1      22.458  13.896   7.625  0.00  0.00     0.077 A 
HETATM   19 Cl   UNK N   1      20.729  14.194   7.628  0.00  0.00    -0.080 Cl
ENDBRANCH   8  11
ENDBRANCH   1   7
BRANCH   5  20
HETATM   20  O   UNK N   1      24.354  20.258   3.654  0.00  0.00    -0.343 OA
BRANCH  20  21
HETATM   21  C   UNK N   1      25.523  19.896   4.317  0.00  0.00     0.129 C 
HETATM   22  C   UNK N   1      25.864  20.756   5.497  0.00  0.00     0.032 C 
HETATM   23  C   UNK N   1      27.307  20.366   5.789  0.00  0.00     0.002 C 
HETATM   24  C   UNK N   1      27.882  19.819   4.485  0.00  0.00     0.002 C 
HETATM   25  C   UNK N   1      26.772  19.944   3.464  0.00  0.00     0.032 C 
ENDBRANCH  20  21
ENDBRANCH   5  20
BRANCH   4  26
HETATM   26  O   UNK N   1      21.827  20.946   2.393  0.00  0.00    -0.353 OA
HETATM   27  C   UNK N   1      20.836  21.159   1.461  0.00  0.00     0.210 C 
ENDBRANCH   4  26
TORSDOF 5
ENDMDL
