REMARK  2 active torsions:
REMARK  status: ('A' for Active; 'I' for Inactive)
REMARK    1  A    between atoms: C_3  and  O_4 
REMARK    2  A    between atoms: C_18  and  C_21 
ROOT
HETATM    1  C   UNK N   1       2.896  -0.025   1.146  0.00  0.00     0.016 C 
HETATM    2  C   UNK N   1       4.437   0.073   1.092  0.00  0.00     0.033 C 
HETATM    3  C   UNK N   1       4.921   1.412   0.504  0.00  0.00     0.122 C 
HETATM    4  C   UNK N   1       4.252   1.717  -0.841  0.00  0.00     0.066 C 
HETATM    5  C   UNK N   1       2.772   1.524  -0.711  0.00  0.00    -0.072 C 
HETATM    6  C   UNK N   1       1.963   2.586  -0.832  0.00  0.00    -0.023 C 
HETATM    7  C   UNK N   1       0.482   2.541  -0.568  0.00  0.00     0.033 C 
HETATM    8  C   UNK N   1      -0.006   1.293   0.189  0.00  0.00    -0.001 C 
HETATM    9  C   UNK N   1       0.737   0.039  -0.305  0.00  0.00     0.003 C 
HETATM   10  C   UNK N   1       2.286   0.162  -0.257  0.00  0.00    -0.017 C 
HETATM   11  C   UNK N   1       0.264  -1.229   0.453  0.00  0.00     0.007 C 
HETATM   12  C   UNK N   1      -1.171  -1.151   1.005  0.00  0.00     0.011 C 
HETATM   13  C   UNK N   1      -2.095  -0.305   0.124  0.00  0.00    -0.030 C 
HETATM   14  C   UNK N   1      -1.515   1.113  -0.135  0.00  0.00    -0.001 C 
HETATM   15  C   UNK N   1      -2.455   2.088   0.552  0.00  0.00     0.006 C 
HETATM   16  C   UNK N   1      -3.798   1.384   0.425  0.00  0.00     0.013 C 
HETATM   17  C   UNK N   1      -3.448  -0.039   0.826  0.00  0.00     0.063 C 
HETATM   18  C   UNK N   1      -2.273  -1.026  -1.223  0.00  0.00     0.016 C 
HETATM   19  C   UNK N   1       2.843  -0.926  -1.181  0.00  0.00     0.020 C 
ENDROOT
BRANCH  17  20
HETATM   20  C   UNK N   1      -4.531  -1.062   0.552  0.00  0.00     0.128 C 
HETATM   21  C   UNK N   1      -4.338  -2.485   0.959  0.00  0.00     0.091 C 
HETATM   22  O   UNK N   1      -5.566  -0.736  -0.009  0.00  0.00    -0.298 OA
ENDBRANCH  17  20
BRANCH   3  23
HETATM   23  O   UNK N   1       4.652   2.443   1.404  0.00  0.00    -0.395 OA
HETATM   24  H   UNK N   1       5.180   2.964   2.030  0.00  0.00     0.210 HD
ENDBRANCH   3  23
TORSDOF 2
