MODEL 1
REMARK VINA RESULT:      -7.3      0.000      0.000
REMARK  2 active torsions:
REMARK  status: ('A' for Active; 'I' for Inactive)
REMARK    1  A    between atoms: C_3  and  O_4 
REMARK    2  A    between atoms: C_18  and  C_21 
ROOT
HETATM    1  C   UNK N   1      27.096  25.806  -3.827  0.00  0.00     0.016 C 
HETATM    2  C   UNK N   1      26.056  26.935  -4.005  0.00  0.00     0.033 C 
HETATM    3  C   UNK N   1      25.433  26.943  -5.414  0.00  0.00     0.122 C 
HETATM    4  C   UNK N   1      26.504  26.936  -6.510  0.00  0.00     0.066 C 
HETATM    5  C   UNK N   1      27.506  25.862  -6.213  0.00  0.00    -0.072 C 
HETATM    6  C   UNK N   1      27.606  24.816  -7.046  0.00  0.00    -0.023 C 
HETATM    7  C   UNK N   1      28.460  23.609  -6.770  0.00  0.00     0.033 C 
HETATM    8  C   UNK N   1      28.946  23.474  -5.316  0.00  0.00    -0.001 C 
HETATM    9  C   UNK N   1      29.335  24.851  -4.749  0.00  0.00     0.003 C 
HETATM   10  C   UNK N   1      28.218  25.926  -4.877  0.00  0.00    -0.017 C 
HETATM   11  C   UNK N   1      29.819  24.737  -3.280  0.00  0.00     0.007 C 
HETATM   12  C   UNK N   1      30.419  23.370  -2.904  0.00  0.00     0.011 C 
HETATM   13  C   UNK N   1      31.135  22.699  -4.080  0.00  0.00    -0.030 C 
HETATM   14  C   UNK N   1      30.221  22.587  -5.331  0.00  0.00    -0.001 C 
HETATM   15  C   UNK N   1      29.986  21.103  -5.553  0.00  0.00     0.006 C 
HETATM   16  C   UNK N   1      31.288  20.493  -5.056  0.00  0.00     0.013 C 
HETATM   17  C   UNK N   1      31.505  21.234  -3.747  0.00  0.00     0.063 C 
HETATM   18  C   UNK N   1      32.372  23.541  -4.438  0.00  0.00     0.016 C 
HETATM   19  C   UNK N   1      28.898  27.289  -4.713  0.00  0.00     0.020 C 
ENDROOT
BRANCH  17  20
HETATM   20  C   UNK N   1      32.871  21.037  -3.123  0.00  0.00     0.128 C 
HETATM   21  C   UNK N   1      33.996  20.493  -3.938  0.00  0.00     0.091 C 
HETATM   22  O   UNK N   1      33.062  21.312  -1.948  0.00  0.00    -0.298 OA
ENDBRANCH  17  20
BRANCH   3  23
HETATM   23  O   UNK N   1      24.602  25.833  -5.565  0.00  0.00    -0.395 OA
HETATM   24  H   UNK N   1      23.701  25.689  -5.895  0.00  0.00     0.210 HD
ENDBRANCH   3  23
TORSDOF 2
ENDMDL
MODEL 2
REMARK VINA RESULT:      -7.1      1.436      6.753
REMARK  2 active torsions:
REMARK  status: ('A' for Active; 'I' for Inactive)
REMARK    1  A    between atoms: C_3  and  O_4 
REMARK    2  A    between atoms: C_18  and  C_21 
ROOT
HETATM    1  C   UNK N   1      31.697  23.155  -4.690  0.00  0.00     0.016 C 
HETATM    2  C   UNK N   1      32.883  22.222  -4.360  0.00  0.00     0.033 C 
HETATM    3  C   UNK N   1      32.849  20.916  -5.176  0.00  0.00     0.122 C 
HETATM    4  C   UNK N   1      31.488  20.218  -5.075  0.00  0.00     0.066 C 
HETATM    5  C   UNK N   1      30.401  21.215  -5.337  0.00  0.00    -0.072 C 
HETATM    6  C   UNK N   1      29.637  21.074  -6.429  0.00  0.00    -0.023 C 
HETATM    7  C   UNK N   1      28.623  22.093  -6.875  0.00  0.00     0.033 C 
HETATM    8  C   UNK N   1      28.752  23.474  -6.207  0.00  0.00    -0.001 C 
HETATM    9  C   UNK N   1      29.100  23.320  -4.716  0.00  0.00     0.003 C 
HETATM   10  C   UNK N   1      30.353  22.441  -4.446  0.00  0.00    -0.017 C 
HETATM   11  C   UNK N   1      29.243  24.703  -4.027  0.00  0.00     0.007 C 
HETATM   12  C   UNK N   1      28.435  25.836  -4.685  0.00  0.00     0.011 C 
HETATM   13  C   UNK N   1      27.128  25.340  -5.312  0.00  0.00    -0.030 C 
HETATM   14  C   UNK N   1      27.366  24.169  -6.305  0.00  0.00    -0.001 C 
HETATM   15  C   UNK N   1      26.992  24.696  -7.679  0.00  0.00     0.006 C 
HETATM   16  C   UNK N   1      25.881  25.684  -7.354  0.00  0.00     0.013 C 
HETATM   17  C   UNK N   1      26.467  26.441  -6.174  0.00  0.00     0.063 C 
HETATM   18  C   UNK N   1      26.203  24.856  -4.182  0.00  0.00     0.016 C 
HETATM   19  C   UNK N   1      30.285  22.016  -2.976  0.00  0.00     0.020 C 
ENDROOT
BRANCH  17  20
HETATM   20  C   UNK N   1      25.489  27.336  -5.442  0.00  0.00     0.128 C 
HETATM   21  C   UNK N   1      25.988  28.386  -4.507  0.00  0.00     0.091 C 
HETATM   22  O   UNK N   1      24.285  27.204  -5.604  0.00  0.00    -0.298 OA
ENDBRANCH  17  20
BRANCH   3  23
HETATM   23  O   UNK N   1      33.134  21.193  -6.513  0.00  0.00    -0.395 OA
HETATM   24  H   UNK N   1      32.833  21.854  -7.157  0.00  0.00     0.210 HD
ENDBRANCH   3  23
TORSDOF 2
ENDMDL
MODEL 3
REMARK VINA RESULT:      -7.0      1.631      2.362
REMARK  2 active torsions:
REMARK  status: ('A' for Active; 'I' for Inactive)
REMARK    1  A    between atoms: C_3  and  O_4 
REMARK    2  A    between atoms: C_18  and  C_21 
ROOT
HETATM    1  C   UNK N   1      28.062  27.722  -4.829  0.00  0.00     0.016 C 
HETATM    2  C   UNK N   1      27.021  28.829  -5.109  0.00  0.00     0.033 C 
HETATM    3  C   UNK N   1      25.607  28.437  -4.641  0.00  0.00     0.122 C 
HETATM    4  C   UNK N   1      25.187  27.067  -5.184  0.00  0.00     0.066 C 
HETATM    5  C   UNK N   1      26.286  26.080  -4.934  0.00  0.00    -0.072 C 
HETATM    6  C   UNK N   1      26.069  25.062  -4.089  0.00  0.00    -0.023 C 
HETATM    7  C   UNK N   1      27.140  24.104  -3.644  0.00  0.00     0.033 C 
HETATM    8  C   UNK N   1      28.581  24.559  -3.933  0.00  0.00    -0.001 C 
HETATM    9  C   UNK N   1      28.665  25.237  -5.312  0.00  0.00     0.003 C 
HETATM   10  C   UNK N   1      27.652  26.400  -5.507  0.00  0.00    -0.017 C 
HETATM   11  C   UNK N   1      30.110  25.712  -5.618  0.00  0.00     0.007 C 
HETATM   12  C   UNK N   1      31.215  24.914  -4.901  0.00  0.00     0.011 C 
HETATM   13  C   UNK N   1      30.839  23.443  -4.695  0.00  0.00    -0.030 C 
HETATM   14  C   UNK N   1      29.473  23.287  -3.970  0.00  0.00    -0.001 C 
HETATM   15  C   UNK N   1      29.777  22.658  -2.622  0.00  0.00     0.006 C 
HETATM   16  C   UNK N   1      30.986  21.790  -2.937  0.00  0.00     0.013 C 
HETATM   17  C   UNK N   1      31.847  22.734  -3.760  0.00  0.00     0.063 C 
HETATM   18  C   UNK N   1      30.753  22.768  -6.074  0.00  0.00     0.016 C 
HETATM   19  C   UNK N   1      27.542  26.639  -7.017  0.00  0.00     0.020 C 
ENDROOT
BRANCH  17  20
HETATM   20  C   UNK N   1      33.023  22.079  -4.455  0.00  0.00     0.128 C 
HETATM   21  C   UNK N   1      33.114  20.592  -4.534  0.00  0.00     0.091 C 
HETATM   22  O   UNK N   1      33.910  22.759  -4.949  0.00  0.00    -0.298 OA
ENDBRANCH  17  20
BRANCH   3  23
HETATM   23  O   UNK N   1      25.562  28.421  -3.247  0.00  0.00    -0.395 OA
HETATM   24  H   UNK N   1      25.743  29.068  -2.546  0.00  0.00     0.210 HD
ENDBRANCH   3  23
TORSDOF 2
ENDMDL
MODEL 4
REMARK VINA RESULT:      -7.0     24.217     27.718
REMARK  2 active torsions:
REMARK  status: ('A' for Active; 'I' for Inactive)
REMARK    1  A    between atoms: C_3  and  O_4 
REMARK    2  A    between atoms: C_18  and  C_21 
ROOT
HETATM    1  C   UNK N   1      36.481  10.676  15.453  0.00  0.00     0.016 C 
HETATM    2  C   UNK N   1      36.713  11.458  14.141  0.00  0.00     0.033 C 
HETATM    3  C   UNK N   1      36.612  12.983  14.340  0.00  0.00     0.122 C 
HETATM    4  C   UNK N   1      35.315  13.378  15.054  0.00  0.00     0.066 C 
HETATM    5  C   UNK N   1      35.138  12.519  16.268  0.00  0.00    -0.072 C 
HETATM    6  C   UNK N   1      35.187  13.087  17.482  0.00  0.00    -0.023 C 
HETATM    7  C   UNK N   1      35.178  12.307  18.769  0.00  0.00     0.033 C 
HETATM    8  C   UNK N   1      35.463  10.802  18.619  0.00  0.00    -0.001 C 
HETATM    9  C   UNK N   1      34.768  10.244  17.364  0.00  0.00     0.003 C 
HETATM   10  C   UNK N   1      35.105  11.018  16.059  0.00  0.00    -0.017 C 
HETATM   11  C   UNK N   1      35.051   8.729  17.192  0.00  0.00     0.007 C 
HETATM   12  C   UNK N   1      35.357   7.978  18.501  0.00  0.00     0.011 C 
HETATM   13  C   UNK N   1      34.607   8.562  19.702  0.00  0.00    -0.030 C 
HETATM   14  C   UNK N   1      34.856  10.088  19.859  0.00  0.00    -0.001 C 
HETATM   15  C   UNK N   1      35.623  10.262  21.158  0.00  0.00     0.006 C 
HETATM   16  C   UNK N   1      35.082   9.120  22.006  0.00  0.00     0.013 C 
HETATM   17  C   UNK N   1      35.121   7.956  21.030  0.00  0.00     0.063 C 
HETATM   18  C   UNK N   1      33.102   8.319  19.498  0.00  0.00     0.016 C 
HETATM   19  C   UNK N   1      34.019  10.657  15.040  0.00  0.00     0.020 C 
ENDROOT
BRANCH  17  20
HETATM   20  C   UNK N   1      34.396   6.710  21.496  0.00  0.00     0.128 C 
HETATM   21  C   UNK N   1      33.404   6.793  22.609  0.00  0.00     0.091 C 
HETATM   22  O   UNK N   1      34.619   5.629  20.973  0.00  0.00    -0.298 OA
ENDBRANCH  17  20
BRANCH   3  23
HETATM   23  O   UNK N   1      37.707  13.432  15.078  0.00  0.00    -0.395 OA
HETATM   24  H   UNK N   1      38.633  13.644  14.875  0.00  0.00     0.210 HD
ENDBRANCH   3  23
TORSDOF 2
ENDMDL
MODEL 5
REMARK VINA RESULT:      -7.0     22.259     25.933
REMARK  2 active torsions:
REMARK  status: ('A' for Active; 'I' for Inactive)
REMARK    1  A    between atoms: C_3  and  O_4 
REMARK    2  A    between atoms: C_18  and  C_21 
ROOT
HETATM    1  C   UNK N   1      37.469  10.938  13.766  0.00  0.00     0.016 C 
HETATM    2  C   UNK N   1      37.704  11.051  12.243  0.00  0.00     0.033 C 
HETATM    3  C   UNK N   1      36.956  12.244  11.619  0.00  0.00     0.122 C 
HETATM    4  C   UNK N   1      35.471  12.245  11.998  0.00  0.00     0.066 C 
HETATM    5  C   UNK N   1      35.340  12.056  13.479  0.00  0.00    -0.072 C 
HETATM    6  C   UNK N   1      34.838  13.053  14.221  0.00  0.00    -0.023 C 
HETATM    7  C   UNK N   1      34.804  13.038  15.726  0.00  0.00     0.033 C 
HETATM    8  C   UNK N   1      35.695  11.969  16.385  0.00  0.00    -0.001 C 
HETATM    9  C   UNK N   1      35.635  10.653  15.590  0.00  0.00     0.003 C 
HETATM   10  C   UNK N   1      35.965  10.812  14.079  0.00  0.00    -0.017 C 
HETATM   11  C   UNK N   1      36.534   9.566  16.235  0.00  0.00     0.007 C 
HETATM   12  C   UNK N   1      36.759   9.732  17.749  0.00  0.00     0.011 C 
HETATM   13  C   UNK N   1      35.552  10.355  18.458  0.00  0.00    -0.030 C 
HETATM   14  C   UNK N   1      35.121  11.697  17.804  0.00  0.00    -0.001 C 
HETATM   15  C   UNK N   1      35.385  12.778  18.837  0.00  0.00     0.006 C 
HETATM   16  C   UNK N   1      35.143  12.038  20.145  0.00  0.00     0.013 C 
HETATM   17  C   UNK N   1      35.898  10.739  19.917  0.00  0.00     0.063 C 
HETATM   18  C   UNK N   1      34.380   9.362  18.382  0.00  0.00     0.016 C 
HETATM   19  C   UNK N   1      35.422   9.564  13.376  0.00  0.00     0.020 C 
ENDROOT
BRANCH  17  20
HETATM   20  C   UNK N   1      35.635   9.661  20.949  0.00  0.00     0.128 C 
HETATM   21  C   UNK N   1      34.434   9.745  21.831  0.00  0.00     0.091 C 
HETATM   22  O   UNK N   1      36.404   8.720  21.073  0.00  0.00    -0.298 OA
ENDBRANCH  17  20
BRANCH   3  23
HETATM   23  O   UNK N   1      37.545  13.437  12.036  0.00  0.00    -0.395 OA
HETATM   24  H   UNK N   1      38.404  13.866  11.893  0.00  0.00     0.210 HD
ENDBRANCH   3  23
TORSDOF 2
ENDMDL
MODEL 6
REMARK VINA RESULT:      -6.9      3.806      5.743
REMARK  2 active torsions:
REMARK  status: ('A' for Active; 'I' for Inactive)
REMARK    1  A    between atoms: C_3  and  O_4 
REMARK    2  A    between atoms: C_18  and  C_21 
ROOT
HETATM    1  C   UNK N   1      26.923  27.883  -5.830  0.00  0.00     0.016 C 
HETATM    2  C   UNK N   1      26.750  29.090  -4.881  0.00  0.00     0.033 C 
HETATM    3  C   UNK N   1      26.918  28.702  -3.400  0.00  0.00     0.122 C 
HETATM    4  C   UNK N   1      26.033  27.509  -3.021  0.00  0.00     0.066 C 
HETATM    5  C   UNK N   1      26.212  26.421  -4.036  0.00  0.00    -0.072 C 
HETATM    6  C   UNK N   1      26.773  25.263  -3.659  0.00  0.00    -0.023 C 
HETATM    7  C   UNK N   1      27.142  24.164  -4.618  0.00  0.00     0.033 C 
HETATM    8  C   UNK N   1      27.166  24.575  -6.101  0.00  0.00    -0.001 C 
HETATM    9  C   UNK N   1      25.995  25.524  -6.415  0.00  0.00     0.003 C 
HETATM   10  C   UNK N   1      25.920  26.766  -5.483  0.00  0.00    -0.017 C 
HETATM   11  C   UNK N   1      26.006  25.956  -7.905  0.00  0.00     0.007 C 
HETATM   12  C   UNK N   1      26.678  24.953  -8.861  0.00  0.00     0.011 C 
HETATM   13  C   UNK N   1      26.501  23.501  -8.409  0.00  0.00    -0.030 C 
HETATM   14  C   UNK N   1      26.974  23.285  -6.945  0.00  0.00    -0.001 C 
HETATM   15  C   UNK N   1      28.181  22.365  -7.020  0.00  0.00     0.006 C 
HETATM   16  C   UNK N   1      27.855  21.506  -8.233  0.00  0.00     0.013 C 
HETATM   17  C   UNK N   1      27.388  22.544  -9.240  0.00  0.00     0.063 C 
HETATM   18  C   UNK N   1      25.009  23.141  -8.510  0.00  0.00     0.016 C 
HETATM   19  C   UNK N   1      24.500  27.327  -5.610  0.00  0.00     0.020 C 
ENDROOT
BRANCH  17  20
HETATM   20  C   UNK N   1      26.739  21.977 -10.485  0.00  0.00     0.128 C 
HETATM   21  C   UNK N   1      26.741  22.760 -11.755  0.00  0.00     0.091 C 
HETATM   22  O   UNK N   1      26.201  20.880 -10.460  0.00  0.00    -0.298 OA
ENDBRANCH  17  20
BRANCH   3  23
HETATM   23  O   UNK N   1      28.253  28.393  -3.145  0.00  0.00    -0.395 OA
HETATM   24  H   UNK N   1      29.020  28.883  -2.807  0.00  0.00     0.210 HD
ENDBRANCH   3  23
TORSDOF 2
ENDMDL
MODEL 7
REMARK VINA RESULT:      -6.9     11.599     14.754
REMARK  2 active torsions:
REMARK  status: ('A' for Active; 'I' for Inactive)
REMARK    1  A    between atoms: C_3  and  O_4 
REMARK    2  A    between atoms: C_18  and  C_21 
ROOT
HETATM    1  C   UNK N   1      33.084  15.513   7.116  0.00  0.00     0.016 C 
HETATM    2  C   UNK N   1      34.507  15.689   7.691  0.00  0.00     0.033 C 
HETATM    3  C   UNK N   1      34.553  16.706   8.847  0.00  0.00     0.122 C 
HETATM    4  C   UNK N   1      33.891  18.034   8.462  0.00  0.00     0.066 C 
HETATM    5  C   UNK N   1      32.553  17.759   7.848  0.00  0.00    -0.072 C 
HETATM    6  C   UNK N   1      31.447  18.167   8.486  0.00  0.00    -0.023 C 
HETATM    7  C   UNK N   1      30.051  17.813   8.046  0.00  0.00     0.033 C 
HETATM    8  C   UNK N   1      29.963  16.666   7.024  0.00  0.00    -0.001 C 
HETATM    9  C   UNK N   1      31.103  16.773   5.994  0.00  0.00     0.003 C 
HETATM   10  C   UNK N   1      32.520  16.861   6.627  0.00  0.00    -0.017 C 
HETATM   11  C   UNK N   1      31.035  15.619   4.960  0.00  0.00     0.007 C 
HETATM   12  C   UNK N   1      29.628  15.036   4.738  0.00  0.00     0.011 C 
HETATM   13  C   UNK N   1      28.524  16.085   4.899  0.00  0.00    -0.030 C 
HETATM   14  C   UNK N   1      28.617  16.822   6.264  0.00  0.00    -0.001 C 
HETATM   15  C   UNK N   1      27.374  16.431   7.043  0.00  0.00     0.006 C 
HETATM   16  C   UNK N   1      26.346  16.242   5.937  0.00  0.00     0.013 C 
HETATM   17  C   UNK N   1      27.124  15.425   4.919  0.00  0.00     0.063 C 
HETATM   18  C   UNK N   1      28.664  17.113   3.765  0.00  0.00     0.016 C 
HETATM   19  C   UNK N   1      33.452  17.417   5.545  0.00  0.00     0.020 C 
ENDROOT
BRANCH  17  20
HETATM   20  C   UNK N   1      26.455  15.288   3.567  0.00  0.00     0.128 C 
HETATM   21  C   UNK N   1      25.332  16.196   3.192  0.00  0.00     0.091 C 
HETATM   22  O   UNK N   1      26.820  14.431   2.777  0.00  0.00    -0.298 OA
ENDBRANCH  17  20
BRANCH   3  23
HETATM   23  O   UNK N   1      33.912  16.172   9.966  0.00  0.00    -0.395 OA
HETATM   24  H   UNK N   1      33.006  15.892  10.170  0.00  0.00     0.210 HD
ENDBRANCH   3  23
TORSDOF 2
ENDMDL
MODEL 8
REMARK VINA RESULT:      -6.8      2.748      6.546
REMARK  2 active torsions:
REMARK  status: ('A' for Active; 'I' for Inactive)
REMARK    1  A    between atoms: C_3  and  O_4 
REMARK    2  A    between atoms: C_18  and  C_21 
ROOT
HETATM    1  C   UNK N   1      30.390  22.576  -7.571  0.00  0.00     0.016 C 
HETATM    2  C   UNK N   1      31.202  21.415  -8.187  0.00  0.00     0.033 C 
HETATM    3  C   UNK N   1      30.315  20.428  -8.969  0.00  0.00     0.122 C 
HETATM    4  C   UNK N   1      29.122  19.950  -8.133  0.00  0.00     0.066 C 
HETATM    5  C   UNK N   1      28.444  21.136  -7.518  0.00  0.00    -0.072 C 
HETATM    6  C   UNK N   1      27.195  21.442  -7.896  0.00  0.00    -0.023 C 
HETATM    7  C   UNK N   1      26.475  22.692  -7.465  0.00  0.00     0.033 C 
HETATM    8  C   UNK N   1      27.373  23.778  -6.846  0.00  0.00    -0.001 C 
HETATM    9  C   UNK N   1      28.443  23.142  -5.941  0.00  0.00     0.003 C 
HETATM   10  C   UNK N   1      29.287  22.039  -6.639  0.00  0.00    -0.017 C 
HETATM   11  C   UNK N   1      29.363  24.222  -5.314  0.00  0.00     0.007 C 
HETATM   12  C   UNK N   1      28.714  25.610  -5.159  0.00  0.00     0.011 C 
HETATM   13  C   UNK N   1      27.208  25.528  -4.888  0.00  0.00    -0.030 C 
HETATM   14  C   UNK N   1      26.469  24.678  -5.958  0.00  0.00    -0.001 C 
HETATM   15  C   UNK N   1      25.559  25.637  -6.707  0.00  0.00     0.006 C 
HETATM   16  C   UNK N   1      25.196  26.645  -5.627  0.00  0.00     0.013 C 
HETATM   17  C   UNK N   1      26.546  26.923  -4.987  0.00  0.00     0.063 C 
HETATM   18  C   UNK N   1      27.000  24.884  -3.507  0.00  0.00     0.016 C 
HETATM   19  C   UNK N   1      29.945  21.217  -5.525  0.00  0.00     0.020 C 
ENDROOT
BRANCH  17  20
HETATM   20  C   UNK N   1      26.487  27.704  -3.690  0.00  0.00     0.128 C 
HETATM   21  C   UNK N   1      27.681  28.464  -3.218  0.00  0.00     0.091 C 
HETATM   22  O   UNK N   1      25.467  27.714  -3.017  0.00  0.00    -0.298 OA
ENDBRANCH  17  20
BRANCH   3  23
HETATM   23  O   UNK N   1      29.853  21.037 -10.136  0.00  0.00    -0.395 OA
HETATM   24  H   UNK N   1      30.119  21.024 -11.070  0.00  0.00     0.210 HD
ENDBRANCH   3  23
TORSDOF 2
ENDMDL
MODEL 9
REMARK VINA RESULT:      -6.6     10.719     13.026
REMARK  2 active torsions:
REMARK  status: ('A' for Active; 'I' for Inactive)
REMARK    1  A    between atoms: C_3  and  O_4 
REMARK    2  A    between atoms: C_18  and  C_21 
ROOT
HETATM    1  C   UNK N   1      28.498  19.187   4.511  0.00  0.00     0.016 C 
HETATM    2  C   UNK N   1      27.203  19.751   3.885  0.00  0.00     0.033 C 
HETATM    3  C   UNK N   1      25.955  19.436   4.732  0.00  0.00     0.122 C 
HETATM    4  C   UNK N   1      25.859  17.943   5.069  0.00  0.00     0.066 C 
HETATM    5  C   UNK N   1      27.180  17.471   5.597  0.00  0.00    -0.072 C 
HETATM    6  C   UNK N   1      27.264  17.065   6.872  0.00  0.00    -0.023 C 
HETATM    7  C   UNK N   1      28.561  16.718   7.552  0.00  0.00     0.033 C 
HETATM    8  C   UNK N   1      29.828  17.190   6.816  0.00  0.00    -0.001 C 
HETATM    9  C   UNK N   1      29.670  17.001   5.297  0.00  0.00     0.003 C 
HETATM   10  C   UNK N   1      28.392  17.662   4.708  0.00  0.00    -0.017 C 
HETATM   11  C   UNK N   1      30.935  17.478   4.537  0.00  0.00     0.007 C 
HETATM   12  C   UNK N   1      32.238  17.418   5.354  0.00  0.00     0.011 C 
HETATM   13  C   UNK N   1      32.248  16.263   6.360  0.00  0.00    -0.030 C 
HETATM   14  C   UNK N   1      31.003  16.289   7.290  0.00  0.00    -0.001 C 
HETATM   15  C   UNK N   1      31.523  16.570   8.688  0.00  0.00     0.006 C 
HETATM   16  C   UNK N   1      32.891  15.904   8.663  0.00  0.00     0.013 C 
HETATM   17  C   UNK N   1      33.448  16.377   7.331  0.00  0.00     0.063 C 
HETATM   18  C   UNK N   1      32.260  14.939   5.578  0.00  0.00     0.016 C 
HETATM   19  C   UNK N   1      28.148  17.009   3.343  0.00  0.00     0.020 C 
ENDROOT
BRANCH  17  20
HETATM   20  C   UNK N   1      34.711  15.671   6.883  0.00  0.00     0.128 C 
HETATM   21  C   UNK N   1      35.221  14.493   7.643  0.00  0.00     0.091 C 
HETATM   22  O   UNK N   1      35.327  16.063   5.903  0.00  0.00    -0.298 OA
ENDBRANCH  17  20
BRANCH   3  23
HETATM   23  O   UNK N   1      25.989  20.180   5.911  0.00  0.00    -0.395 OA
HETATM   24  H   UNK N   1      25.444  20.885   6.295  0.00  0.00     0.210 HD
ENDBRANCH   3  23
TORSDOF 2
ENDMDL
