MODEL 1
REMARK VINA RESULT:      -6.1      0.000      0.000
REMARK  8 active torsions:
REMARK  status: ('A' for Active; 'I' for Inactive)
REMARK    1  A    between atoms: C_1  and  C_9 
REMARK    2  A    between atoms: C_2  and  C_10 
REMARK    3  A    between atoms: C_4  and  C_7 
REMARK    4  A    between atoms: C_5  and  C_8 
REMARK    5  A    between atoms: C_7  and  O_16 
REMARK    6  A    between atoms: C_8  and  O_18 
REMARK    7  A    between atoms: C_9  and  O_12 
REMARK    8  A    between atoms: C_10  and  O_14 
ROOT
HETATM    1  C   UNK N   1      30.168  17.716   8.378  0.00  0.00     0.055 A 
HETATM    2  C   UNK N   1      29.835  17.301   7.047  0.00  0.00     0.055 A 
HETATM    3  C   UNK N   1      31.519  17.899   8.688  0.00  0.00     0.038 A 
HETATM    4  C   UNK N   1      32.245  17.292   6.453  0.00  0.00     0.055 A 
HETATM    5  C   UNK N   1      32.571  17.706   7.787  0.00  0.00     0.055 A 
HETATM    6  C   UNK N   1      30.889  17.108   6.142  0.00  0.00     0.038 A 
ENDROOT
BRANCH   1   7
HETATM    7  C   UNK N   1      29.228  17.986   9.512  0.00  0.00     0.177 C 
HETATM    8  O   UNK N   1      28.073  17.612   9.510  0.00  0.00    -0.646 OA
BRANCH   7   9
HETATM    9  O   UNK N   1      29.673  18.673  10.585  0.00  0.00    -0.773 OA
HETATM   10  H   UNK N   1      30.422  18.368  11.059  0.00  0.00     0.167 HD
ENDBRANCH   7   9
ENDBRANCH   1   7
BRANCH   2  11
HETATM   11  C   UNK N   1      28.464  17.043   6.488  0.00  0.00     0.177 C 
HETATM   12  O   UNK N   1      28.249  15.993   5.902  0.00  0.00    -0.646 OA
BRANCH  11  13
HETATM   13  O   UNK N   1      27.454  17.917   6.601  0.00  0.00    -0.773 OA
HETATM   14  H   UNK N   1      27.298  18.545   5.922  0.00  0.00     0.167 HD
ENDBRANCH  11  13
ENDBRANCH   2  11
BRANCH   5  15
HETATM   15  C   UNK N   1      33.931  17.965   8.356  0.00  0.00     0.177 C 
HETATM   16  O   UNK N   1      34.773  18.615   7.769  0.00  0.00    -0.646 OA
BRANCH  15  17
HETATM   17  O   UNK N   1      34.244  17.463   9.568  0.00  0.00    -0.773 OA
HETATM   18  H   UNK N   1      35.107  17.136   9.731  0.00  0.00     0.167 HD
ENDBRANCH  15  17
ENDBRANCH   5  15
BRANCH   4  19
HETATM   19  C   UNK N   1      33.198  17.024   5.324  0.00  0.00     0.177 C 
HETATM   20  O   UNK N   1      32.862  17.308   4.183  0.00  0.00    -0.646 OA
BRANCH  19  21
HETATM   21  O   UNK N   1      34.411  16.484   5.504  0.00  0.00    -0.773 OA
HETATM   22  H   UNK N   1      34.703  16.268   6.368  0.00  0.00     0.167 HD
ENDBRANCH  19  21
ENDBRANCH   4  19
TORSDOF 8
ENDMDL
MODEL 2
REMARK VINA RESULT:      -6.1      0.067      4.822
REMARK  8 active torsions:
REMARK  status: ('A' for Active; 'I' for Inactive)
REMARK    1  A    between atoms: C_1  and  C_9 
REMARK    2  A    between atoms: C_2  and  C_10 
REMARK    3  A    between atoms: C_4  and  C_7 
REMARK    4  A    between atoms: C_5  and  C_8 
REMARK    5  A    between atoms: C_7  and  O_16 
REMARK    6  A    between atoms: C_8  and  O_18 
REMARK    7  A    between atoms: C_9  and  O_12 
REMARK    8  A    between atoms: C_10  and  O_14 
ROOT
HETATM    1  C   UNK N   1      32.529  17.704   7.759  0.00  0.00     0.055 A 
HETATM    2  C   UNK N   1      32.191  17.290   6.429  0.00  0.00     0.055 A 
HETATM    3  C   UNK N   1      31.484  17.909   8.666  0.00  0.00     0.038 A 
HETATM    4  C   UNK N   1      29.785  17.320   7.036  0.00  0.00     0.055 A 
HETATM    5  C   UNK N   1      30.129  17.735   8.364  0.00  0.00     0.055 A 
HETATM    6  C   UNK N   1      30.832  17.115   6.125  0.00  0.00     0.038 A 
ENDROOT
BRANCH   1   7
HETATM    7  C   UNK N   1      33.895  17.953   8.318  0.00  0.00     0.177 C 
HETATM    8  O   UNK N   1      34.740  18.590   7.724  0.00  0.00    -0.646 OA
BRANCH   7   9
HETATM    9  O   UNK N   1      34.210  17.453   9.531  0.00  0.00    -0.773 OA
HETATM   10  H   UNK N   1      33.624  16.860   9.960  0.00  0.00     0.167 HD
ENDBRANCH   7   9
ENDBRANCH   1   7
BRANCH   2  11
HETATM   11  C   UNK N   1      33.134  17.012   5.292  0.00  0.00     0.177 C 
HETATM   12  O   UNK N   1      32.760  17.210   4.146  0.00  0.00    -0.646 OA
BRANCH  11  13
HETATM   13  O   UNK N   1      34.380  16.552   5.475  0.00  0.00    -0.773 OA
HETATM   14  H   UNK N   1      34.802  16.058   4.798  0.00  0.00     0.167 HD
ENDBRANCH  11  13
ENDBRANCH   2  11
BRANCH   5  15
HETATM   15  C   UNK N   1      29.199  18.016   9.504  0.00  0.00     0.177 C 
HETATM   16  O   UNK N   1      28.033  17.679   9.495  0.00  0.00    -0.646 OA
BRANCH  15  17
HETATM   17  O   UNK N   1      29.666  18.669  10.589  0.00  0.00    -0.773 OA
HETATM   18  H   UNK N   1      29.902  19.574  10.525  0.00  0.00     0.167 HD
ENDBRANCH  15  17
ENDBRANCH   5  15
BRANCH   4  19
HETATM   19  C   UNK N   1      28.408  17.073   6.487  0.00  0.00     0.177 C 
HETATM   20  O   UNK N   1      28.184  16.028   5.894  0.00  0.00    -0.646 OA
BRANCH  19  21
HETATM   21  O   UNK N   1      27.403  17.950   6.615  0.00  0.00    -0.773 OA
HETATM   22  H   UNK N   1      27.576  18.820   6.915  0.00  0.00     0.167 HD
ENDBRANCH  19  21
ENDBRANCH   4  19
TORSDOF 8
ENDMDL
MODEL 3
REMARK VINA RESULT:      -6.1      0.930      5.873
REMARK  8 active torsions:
REMARK  status: ('A' for Active; 'I' for Inactive)
REMARK    1  A    between atoms: C_1  and  C_9 
REMARK    2  A    between atoms: C_2  and  C_10 
REMARK    3  A    between atoms: C_4  and  C_7 
REMARK    4  A    between atoms: C_5  and  C_8 
REMARK    5  A    between atoms: C_7  and  O_16 
REMARK    6  A    between atoms: C_8  and  O_18 
REMARK    7  A    between atoms: C_9  and  O_12 
REMARK    8  A    between atoms: C_10  and  O_14 
ROOT
HETATM    1  C   UNK N   1      31.809  17.194   6.578  0.00  0.00     0.055 A 
HETATM    2  C   UNK N   1      32.007  17.430   7.978  0.00  0.00     0.055 A 
HETATM    3  C   UNK N   1      30.496  17.079   6.113  0.00  0.00     0.038 A 
HETATM    4  C   UNK N   1      29.549  17.416   8.322  0.00  0.00     0.055 A 
HETATM    5  C   UNK N   1      29.358  17.179   6.921  0.00  0.00     0.055 A 
HETATM    6  C   UNK N   1      30.868  17.531   8.789  0.00  0.00     0.038 A 
ENDROOT
BRANCH   1   7
HETATM    7  C   UNK N   1      32.858  17.051   5.519  0.00  0.00     0.177 C 
HETATM    8  O   UNK N   1      32.796  16.211   4.644  0.00  0.00    -0.646 OA
BRANCH   7   9
HETATM    9  O   UNK N   1      33.920  17.883   5.529  0.00  0.00    -0.773 OA
HETATM   10  H   UNK N   1      34.488  17.928   4.785  0.00  0.00     0.167 HD
ENDBRANCH   7   9
ENDBRANCH   1   7
BRANCH   2  11
HETATM   11  C   UNK N   1      33.315  17.586   8.701  0.00  0.00     0.177 C 
HETATM   12  O   UNK N   1      34.041  18.529   8.420  0.00  0.00    -0.646 OA
BRANCH  11  13
HETATM   13  O   UNK N   1      33.731  16.734   9.648  0.00  0.00    -0.773 OA
HETATM   14  H   UNK N   1      33.173  16.034   9.927  0.00  0.00     0.167 HD
ENDBRANCH  11  13
ENDBRANCH   2  11
BRANCH   5  15
HETATM   15  C   UNK N   1      28.061  17.021   6.189  0.00  0.00     0.177 C 
HETATM   16  O   UNK N   1      27.814  16.053   5.499  0.00  0.00    -0.646 OA
BRANCH  15  17
HETATM   17  O   UNK N   1      27.124  17.984   6.296  0.00  0.00    -0.773 OA
HETATM   18  H   UNK N   1      26.597  18.042   7.069  0.00  0.00     0.167 HD
ENDBRANCH  15  17
ENDBRANCH   5  15
BRANCH   4  19
HETATM   19  C   UNK N   1      28.488  17.558   9.375  0.00  0.00     0.177 C 
HETATM   20  O   UNK N   1      28.543  16.854  10.373  0.00  0.00    -0.646 OA
BRANCH  19  21
HETATM   21  O   UNK N   1      27.472  18.427   9.275  0.00  0.00    -0.773 OA
HETATM   22  H   UNK N   1      27.647  19.340   9.164  0.00  0.00     0.167 HD
ENDBRANCH  19  21
ENDBRANCH   4  19
TORSDOF 8
ENDMDL
MODEL 4
REMARK VINA RESULT:      -6.0      0.649      3.419
REMARK  8 active torsions:
REMARK  status: ('A' for Active; 'I' for Inactive)
REMARK    1  A    between atoms: C_1  and  C_9 
REMARK    2  A    between atoms: C_2  and  C_10 
REMARK    3  A    between atoms: C_4  and  C_7 
REMARK    4  A    between atoms: C_5  and  C_8 
REMARK    5  A    between atoms: C_7  and  O_16 
REMARK    6  A    between atoms: C_8  and  O_18 
REMARK    7  A    between atoms: C_9  and  O_12 
REMARK    8  A    between atoms: C_10  and  O_14 
ROOT
HETATM    1  C   UNK N   1      29.457  17.107   6.955  0.00  0.00     0.055 A 
HETATM    2  C   UNK N   1      29.761  17.381   8.329  0.00  0.00     0.055 A 
HETATM    3  C   UNK N   1      30.516  17.082   6.042  0.00  0.00     0.038 A 
HETATM    4  C   UNK N   1      32.167  17.578   7.751  0.00  0.00     0.055 A 
HETATM    5  C   UNK N   1      31.856  17.304   6.379  0.00  0.00     0.055 A 
HETATM    6  C   UNK N   1      31.104  17.604   8.667  0.00  0.00     0.038 A 
ENDROOT
BRANCH   1   7
HETATM    7  C   UNK N   1      28.112  16.838   6.354  0.00  0.00     0.177 C 
HETATM    8  O   UNK N   1      27.850  15.807   5.769  0.00  0.00    -0.646 OA
BRANCH   7   9
HETATM    9  O   UNK N   1      27.146  17.773   6.460  0.00  0.00    -0.773 OA
HETATM   10  H   UNK N   1      27.014  18.393   5.769  0.00  0.00     0.167 HD
ENDBRANCH   7   9
ENDBRANCH   1   7
BRANCH   2  11
HETATM   11  C   UNK N   1      28.796  17.460   9.478  0.00  0.00     0.177 C 
HETATM   12  O   UNK N   1      29.056  16.866  10.514  0.00  0.00    -0.646 OA
BRANCH  11  13
HETATM   13  O   UNK N   1      27.653  18.157   9.424  0.00  0.00    -0.773 OA
HETATM   14  H   UNK N   1      26.965  17.886   8.847  0.00  0.00     0.167 HD
ENDBRANCH  11  13
ENDBRANCH   2  11
BRANCH   5  15
HETATM   15  C   UNK N   1      32.807  17.224   5.225  0.00  0.00     0.177 C 
HETATM   16  O   UNK N   1      32.589  17.765   4.159  0.00  0.00    -0.646 OA
BRANCH  15  17
HETATM   17  O   UNK N   1      33.953  16.527   5.364  0.00  0.00    -0.773 OA
HETATM   18  H   UNK N   1      33.924  15.599   5.495  0.00  0.00     0.167 HD
ENDBRANCH  15  17
ENDBRANCH   5  15
BRANCH   4  19
HETATM   19  C   UNK N   1      33.521  17.847   8.342  0.00  0.00     0.177 C 
HETATM   20  O   UNK N   1      34.325  18.514   7.708  0.00  0.00    -0.646 OA
BRANCH  19  21
HETATM   21  O   UNK N   1      33.897  17.387   9.544  0.00  0.00    -0.773 OA
HETATM   22  H   UNK N   1      33.886  17.956  10.287  0.00  0.00     0.167 HD
ENDBRANCH  19  21
ENDBRANCH   4  19
TORSDOF 8
ENDMDL
MODEL 5
REMARK VINA RESULT:      -5.8      9.691     12.086
REMARK  8 active torsions:
REMARK  status: ('A' for Active; 'I' for Inactive)
REMARK    1  A    between atoms: C_1  and  C_9 
REMARK    2  A    between atoms: C_2  and  C_10 
REMARK    3  A    between atoms: C_4  and  C_7 
REMARK    4  A    between atoms: C_5  and  C_8 
REMARK    5  A    between atoms: C_7  and  O_16 
REMARK    6  A    between atoms: C_8  and  O_18 
REMARK    7  A    between atoms: C_9  and  O_12 
REMARK    8  A    between atoms: C_10  and  O_14 
ROOT
HETATM    1  C   UNK N   1      20.301  16.249   2.771  0.00  0.00     0.055 A 
HETATM    2  C   UNK N   1      20.064  17.203   1.727  0.00  0.00     0.055 A 
HETATM    3  C   UNK N   1      20.803  16.722   3.987  0.00  0.00     0.038 A 
HETATM    4  C   UNK N   1      20.853  19.023   3.218  0.00  0.00     0.055 A 
HETATM    5  C   UNK N   1      21.089  18.065   4.257  0.00  0.00     0.055 A 
HETATM    6  C   UNK N   1      20.350  18.549   1.996  0.00  0.00     0.038 A 
ENDROOT
BRANCH   1   7
HETATM    7  C   UNK N   1      20.075  14.770   2.725  0.00  0.00     0.177 C 
HETATM    8  O   UNK N   1      20.973  13.976   2.534  0.00  0.00    -0.646 OA
BRANCH   7   9
HETATM    9  O   UNK N   1      18.826  14.291   2.901  0.00  0.00    -0.773 OA
HETATM   10  H   UNK N   1      18.686  13.531   3.432  0.00  0.00     0.167 HD
ENDBRANCH   7   9
ENDBRANCH   1   7
BRANCH   2  11
HETATM   11  C   UNK N   1      19.533  16.932   0.347  0.00  0.00     0.177 C 
HETATM   12  O   UNK N   1      20.270  17.087  -0.615  0.00  0.00    -0.646 OA
BRANCH  11  13
HETATM   13  O   UNK N   1      18.277  16.524   0.117  0.00  0.00    -0.773 OA
HETATM   14  H   UNK N   1      17.906  16.611  -0.740  0.00  0.00     0.167 HD
ENDBRANCH  11  13
ENDBRANCH   2  11
BRANCH   5  15
HETATM   15  C   UNK N   1      21.618  18.322   5.635  0.00  0.00     0.177 C 
HETATM   16  O   UNK N   1      20.936  18.799   6.519  0.00  0.00    -0.646 OA
BRANCH  15  17
HETATM   17  O   UNK N   1      22.901  18.013   5.915  0.00  0.00    -0.773 OA
HETATM   18  H   UNK N   1      23.594  18.560   5.598  0.00  0.00     0.167 HD
ENDBRANCH  15  17
ENDBRANCH   5  15
BRANCH   4  19
HETATM   19  C   UNK N   1      21.084  20.507   3.276  0.00  0.00     0.177 C 
HETATM   20  O   UNK N   1      22.125  20.964   2.828  0.00  0.00    -0.646 OA
BRANCH  19  21
HETATM   21  O   UNK N   1      20.197  21.363   3.801  0.00  0.00    -0.773 OA
HETATM   22  H   UNK N   1      19.279  21.205   3.703  0.00  0.00     0.167 HD
ENDBRANCH  19  21
ENDBRANCH   4  19
TORSDOF 8
ENDMDL
MODEL 6
REMARK VINA RESULT:      -5.5     10.110     12.064
REMARK  8 active torsions:
REMARK  status: ('A' for Active; 'I' for Inactive)
REMARK    1  A    between atoms: C_1  and  C_9 
REMARK    2  A    between atoms: C_2  and  C_10 
REMARK    3  A    between atoms: C_4  and  C_7 
REMARK    4  A    between atoms: C_5  and  C_8 
REMARK    5  A    between atoms: C_7  and  O_16 
REMARK    6  A    between atoms: C_8  and  O_18 
REMARK    7  A    between atoms: C_9  and  O_12 
REMARK    8  A    between atoms: C_10  and  O_14 
ROOT
HETATM    1  C   UNK N   1      35.089  11.019  17.568  0.00  0.00     0.055 A 
HETATM    2  C   UNK N   1      35.275  12.436  17.684  0.00  0.00     0.055 A 
HETATM    3  C   UNK N   1      35.112  10.458  16.287  0.00  0.00     0.038 A 
HETATM    4  C   UNK N   1      35.493  12.602  15.217  0.00  0.00     0.055 A 
HETATM    5  C   UNK N   1      35.306  11.185  15.109  0.00  0.00     0.055 A 
HETATM    6  C   UNK N   1      35.469  13.166  16.502  0.00  0.00     0.038 A 
ENDROOT
BRANCH   1   7
HETATM    7  C   UNK N   1      34.866  10.034  18.674  0.00  0.00     0.177 C 
HETATM    8  O   UNK N   1      33.855   9.370  18.766  0.00  0.00    -0.646 OA
BRANCH   7   9
HETATM    9  O   UNK N   1      35.823   9.873  19.612  0.00  0.00    -0.773 OA
HETATM   10  H   UNK N   1      36.693  10.181  19.452  0.00  0.00     0.167 HD
ENDBRANCH   7   9
ENDBRANCH   1   7
BRANCH   2  11
HETATM   11  C   UNK N   1      35.288  13.254  18.944  0.00  0.00     0.177 C 
HETATM   12  O   UNK N   1      35.065  14.454  18.876  0.00  0.00    -0.646 OA
BRANCH  11  13
HETATM   13  O   UNK N   1      35.536  12.729  20.152  0.00  0.00    -0.773 OA
HETATM   14  H   UNK N   1      34.831  12.585  20.754  0.00  0.00     0.167 HD
ENDBRANCH  11  13
ENDBRANCH   2  11
BRANCH   5  15
HETATM   15  C   UNK N   1      35.289  10.358  13.860  0.00  0.00     0.177 C 
HETATM   16  O   UNK N   1      36.095   9.474  13.651  0.00  0.00    -0.646 OA
BRANCH  15  17
HETATM   17  O   UNK N   1      34.346  10.597  12.925  0.00  0.00    -0.773 OA
HETATM   18  H   UNK N   1      34.546  11.136  12.185  0.00  0.00     0.167 HD
ENDBRANCH  15  17
ENDBRANCH   5  15
BRANCH   4  19
HETATM   19  C   UNK N   1      35.716  13.580  14.099  0.00  0.00     0.177 C 
HETATM   20  O   UNK N   1      34.855  13.708  13.241  0.00  0.00    -0.646 OA
BRANCH  19  21
HETATM   21  O   UNK N   1      36.823  14.328  13.993  0.00  0.00    -0.773 OA
HETATM   22  H   UNK N   1      37.518  14.227  14.613  0.00  0.00     0.167 HD
ENDBRANCH  19  21
ENDBRANCH   4  19
TORSDOF 8
ENDMDL
MODEL 7
REMARK VINA RESULT:      -5.5     12.125     14.537
REMARK  8 active torsions:
REMARK  status: ('A' for Active; 'I' for Inactive)
REMARK    1  A    between atoms: C_1  and  C_9 
REMARK    2  A    between atoms: C_2  and  C_10 
REMARK    3  A    between atoms: C_4  and  C_7 
REMARK    4  A    between atoms: C_5  and  C_8 
REMARK    5  A    between atoms: C_7  and  O_16 
REMARK    6  A    between atoms: C_8  and  O_18 
REMARK    7  A    between atoms: C_9  and  O_12 
REMARK    8  A    between atoms: C_10  and  O_14 
ROOT
HETATM    1  C   UNK N   1      30.219  21.879  -4.844  0.00  0.00     0.055 A 
HETATM    2  C   UNK N   1      30.007  22.633  -3.643  0.00  0.00     0.055 A 
HETATM    3  C   UNK N   1      29.349  22.098  -5.917  0.00  0.00     0.038 A 
HETATM    4  C   UNK N   1      28.068  23.764  -4.703  0.00  0.00     0.055 A 
HETATM    5  C   UNK N   1      28.285  23.006  -5.900  0.00  0.00     0.055 A 
HETATM    6  C   UNK N   1      28.940  23.544  -3.625  0.00  0.00     0.038 A 
ENDROOT
BRANCH   1   7
HETATM    7  C   UNK N   1      31.281  20.857  -5.104  0.00  0.00     0.177 C 
HETATM    8  O   UNK N   1      32.008  20.900  -6.075  0.00  0.00    -0.646 OA
BRANCH   7   9
HETATM    9  O   UNK N   1      31.445  19.843  -4.229  0.00  0.00    -0.773 OA
HETATM   10  H   UNK N   1      30.714  19.307  -3.990  0.00  0.00     0.167 HD
ENDBRANCH   7   9
ENDBRANCH   1   7
BRANCH   2  11
HETATM   11  C   UNK N   1      30.805  22.568  -2.372  0.00  0.00     0.177 C 
HETATM   12  O   UNK N   1      30.354  23.082  -1.359  0.00  0.00    -0.646 OA
BRANCH  11  13
HETATM   13  O   UNK N   1      32.001  21.968  -2.292  0.00  0.00    -0.773 OA
HETATM   14  H   UNK N   1      32.783  22.484  -2.256  0.00  0.00     0.167 HD
ENDBRANCH  11  13
ENDBRANCH   2  11
BRANCH   5  15
HETATM   15  C   UNK N   1      27.496  23.061  -7.172  0.00  0.00     0.177 C 
HETATM   16  O   UNK N   1      27.376  24.079  -7.823  0.00  0.00    -0.646 OA
BRANCH  15  17
HETATM   17  O   UNK N   1      26.893  21.941  -7.621  0.00  0.00    -0.773 OA
HETATM   18  H   UNK N   1      25.986  21.791  -7.437  0.00  0.00     0.167 HD
ENDBRANCH  15  17
ENDBRANCH   5  15
BRANCH   4  19
HETATM   19  C   UNK N   1      26.997  24.788  -4.454  0.00  0.00     0.177 C 
HETATM   20  O   UNK N   1      26.311  24.697  -3.446  0.00  0.00    -0.646 OA
BRANCH  19  21
HETATM   21  O   UNK N   1      26.753  25.807  -5.289  0.00  0.00    -0.773 OA
HETATM   22  H   UNK N   1      26.279  26.556  -4.988  0.00  0.00     0.167 HD
ENDBRANCH  19  21
ENDBRANCH   4  19
TORSDOF 8
ENDMDL
MODEL 8
REMARK VINA RESULT:      -5.4     11.543     13.659
REMARK  8 active torsions:
REMARK  status: ('A' for Active; 'I' for Inactive)
REMARK    1  A    between atoms: C_1  and  C_9 
REMARK    2  A    between atoms: C_2  and  C_10 
REMARK    3  A    between atoms: C_4  and  C_7 
REMARK    4  A    between atoms: C_5  and  C_8 
REMARK    5  A    between atoms: C_7  and  O_16 
REMARK    6  A    between atoms: C_8  and  O_18 
REMARK    7  A    between atoms: C_9  and  O_12 
REMARK    8  A    between atoms: C_10  and  O_14 
ROOT
HETATM    1  C   UNK N   1      29.398  21.898  -5.948  0.00  0.00     0.055 A 
HETATM    2  C   UNK N   1      30.322  20.829  -6.187  0.00  0.00     0.055 A 
HETATM    3  C   UNK N   1      29.591  22.689  -4.811  0.00  0.00     0.038 A 
HETATM    4  C   UNK N   1      31.557  21.443  -4.123  0.00  0.00     0.055 A 
HETATM    5  C   UNK N   1      30.628  22.509  -3.889  0.00  0.00     0.055 A 
HETATM    6  C   UNK N   1      31.363  20.648  -5.263  0.00  0.00     0.038 A 
ENDROOT
BRANCH   1   7
HETATM    7  C   UNK N   1      28.217  22.287  -6.782  0.00  0.00     0.177 C 
HETATM    8  O   UNK N   1      27.269  22.898  -6.333  0.00  0.00    -0.646 OA
BRANCH   7   9
HETATM    9  O   UNK N   1      28.196  21.950  -8.089  0.00  0.00    -0.773 OA
HETATM   10  H   UNK N   1      28.918  21.484  -8.464  0.00  0.00     0.167 HD
ENDBRANCH   7   9
ENDBRANCH   1   7
BRANCH   2  11
HETATM   11  C   UNK N   1      30.316  19.856  -7.332  0.00  0.00     0.177 C 
HETATM   12  O   UNK N   1      29.338  19.142  -7.500  0.00  0.00    -0.646 OA
BRANCH  11  13
HETATM   13  O   UNK N   1      31.340  19.729  -8.187  0.00  0.00    -0.773 OA
HETATM   14  H   UNK N   1      31.985  19.062  -8.051  0.00  0.00     0.167 HD
ENDBRANCH  11  13
ENDBRANCH   2  11
BRANCH   5  15
HETATM   15  C   UNK N   1      30.623  23.484  -2.753  0.00  0.00     0.177 C 
HETATM   16  O   UNK N   1      30.730  24.683  -2.919  0.00  0.00    -0.646 OA
BRANCH  15  17
HETATM   17  O   UNK N   1      30.495  23.024  -1.491  0.00  0.00    -0.773 OA
HETATM   18  H   UNK N   1      29.977  22.262  -1.321  0.00  0.00     0.167 HD
ENDBRANCH  15  17
ENDBRANCH   5  15
BRANCH   4  19
HETATM   19  C   UNK N   1      32.739  21.062  -3.277  0.00  0.00     0.177 C 
HETATM   20  O   UNK N   1      33.749  20.642  -3.823  0.00  0.00    -0.646 OA
BRANCH  19  21
HETATM   21  O   UNK N   1      32.742  21.159  -1.941  0.00  0.00    -0.773 OA
HETATM   22  H   UNK N   1      33.250  20.562  -1.429  0.00  0.00     0.167 HD
ENDBRANCH  19  21
ENDBRANCH   4  19
TORSDOF 8
ENDMDL
MODEL 9
REMARK VINA RESULT:      -5.4     12.117     14.001
REMARK  8 active torsions:
REMARK  status: ('A' for Active; 'I' for Inactive)
REMARK    1  A    between atoms: C_1  and  C_9 
REMARK    2  A    between atoms: C_2  and  C_10 
REMARK    3  A    between atoms: C_4  and  C_7 
REMARK    4  A    between atoms: C_5  and  C_8 
REMARK    5  A    between atoms: C_7  and  O_16 
REMARK    6  A    between atoms: C_8  and  O_18 
REMARK    7  A    between atoms: C_9  and  O_12 
REMARK    8  A    between atoms: C_10  and  O_14 
ROOT
HETATM    1  C   UNK N   1      28.321  23.004  -5.904  0.00  0.00     0.055 A 
HETATM    2  C   UNK N   1      28.128  23.783  -4.716  0.00  0.00     0.055 A 
HETATM    3  C   UNK N   1      29.363  22.070  -5.912  0.00  0.00     0.038 A 
HETATM    4  C   UNK N   1      30.042  22.618  -3.647  0.00  0.00     0.055 A 
HETATM    5  C   UNK N   1      30.230  21.843  -4.838  0.00  0.00     0.055 A 
HETATM    6  C   UNK N   1      28.998  23.556  -3.638  0.00  0.00     0.038 A 
ENDROOT
BRANCH   1   7
HETATM    7  C   UNK N   1      27.529  23.063  -7.173  0.00  0.00     0.177 C 
HETATM    8  O   UNK N   1      27.012  22.083  -7.669  0.00  0.00    -0.646 OA
BRANCH   7   9
HETATM    9  O   UNK N   1      27.379  24.249  -7.798  0.00  0.00    -0.773 OA
HETATM   10  H   UNK N   1      27.444  24.298  -8.732  0.00  0.00     0.167 HD
ENDBRANCH   7   9
ENDBRANCH   1   7
BRANCH   2  11
HETATM   11  C   UNK N   1      27.085  24.838  -4.476  0.00  0.00     0.177 C 
HETATM   12  O   UNK N   1      27.042  25.810  -5.215  0.00  0.00    -0.646 OA
BRANCH  11  13
HETATM   13  O   UNK N   1      26.189  24.764  -3.482  0.00  0.00    -0.773 OA
HETATM   14  H   UNK N   1      25.320  24.457  -3.656  0.00  0.00     0.167 HD
ENDBRANCH  11  13
ENDBRANCH   2  11
BRANCH   5  15
HETATM   15  C   UNK N   1      31.266  20.791  -5.090  0.00  0.00     0.177 C 
HETATM   16  O   UNK N   1      31.947  20.770  -6.095  0.00  0.00    -0.646 OA
BRANCH  15  17
HETATM   17  O   UNK N   1      31.459  19.824  -4.169  0.00  0.00    -0.773 OA
HETATM   18  H   UNK N   1      32.275  19.770  -3.711  0.00  0.00     0.167 HD
ENDBRANCH  15  17
ENDBRANCH   5  15
BRANCH   4  19
HETATM   19  C   UNK N   1      30.844  22.550  -2.379  0.00  0.00     0.177 C 
HETATM   20  O   UNK N   1      30.391  23.055  -1.362  0.00  0.00    -0.646 OA
BRANCH  19  21
HETATM   21  O   UNK N   1      32.044  21.957  -2.305  0.00  0.00    -0.773 OA
HETATM   22  H   UNK N   1      32.819  22.442  -2.508  0.00  0.00     0.167 HD
ENDBRANCH  19  21
ENDBRANCH   4  19
TORSDOF 8
ENDMDL
