MODEL 1
REMARK VINA RESULT:      -7.1      0.000      0.000
REMARK  3 active torsions:
REMARK  status: ('A' for Active; 'I' for Inactive)
REMARK    1  A    between atoms: N_1  and  C_21 
REMARK    2  A    between atoms: C_7  and  N_13 
REMARK    3  A    between atoms: C_12  and  C_14 
ROOT
HETATM    1  N   UNK N   1      31.110  17.133   5.043  0.00  0.00    -0.266 N 
HETATM    2  C   UNK N   1      30.796  16.836   8.632  0.00  0.00     0.183 A 
HETATM    3  N   UNK N   1      31.384  16.729   7.406  0.00  0.00    -0.336 N 
ATOM      4  HN  UNK N   1      32.323  16.341   7.309  1.00  0.00     0.168 HD
HETATM    5  C   UNK N   1      30.693  17.147   6.322  0.00  0.00     0.140 A 
HETATM    6  C   UNK N   1      29.435  17.677   6.398  0.00  0.00     0.082 A 
HETATM    7  C   UNK N   1      28.832  17.781   7.660  0.00  0.00     0.116 A 
HETATM    8  N   UNK N   1      29.534  17.356   8.752  0.00  0.00    -0.338 N 
ATOM      9  HN  UNK N   1      29.110  17.426   9.676  1.00  0.00     0.168 HD
HETATM   10  N   UNK N   1      30.146  17.631   4.281  0.00  0.00    -0.294 N 
ATOM     11  HN  UNK N   1      30.185  17.736   3.267  1.00  0.00     0.187 HD
HETATM   12  C   UNK N   1      29.097  17.978   5.071  0.00  0.00     0.076 A 
ENDROOT
BRANCH  12  13
HETATM   13  C   UNK N   1      27.871  18.580   4.498  0.00  0.00    -0.007 A 
HETATM   14  C   UNK N   1      27.745  19.979   4.486  0.00  0.00     0.014 A 
HETATM   15  C   UNK N   1      26.599  20.588   3.972  0.00  0.00     0.007 A 
HETATM   16  C   UNK N   1      25.557  19.803   3.475  0.00  0.00    -0.062 A 
HETATM   17  C   UNK N   1      25.667  18.411   3.485  0.00  0.00     0.007 A 
HETATM   18  C   UNK N   1      24.329  20.449   2.943  0.00  0.00     0.048 C 
HETATM   19  C   UNK N   1      26.822  17.804   3.990  0.00  0.00     0.014 A 
ENDBRANCH  12  13
BRANCH   7  20
HETATM   20  N   UNK N   1      27.535  18.298   7.833  0.00  0.00    -0.385 N 
HETATM   21  H   UNK N   1      27.256  19.111   7.352  0.00  0.00     0.157 HD
HETATM   22  H   UNK N   1      26.903  17.846   8.437  0.00  0.00     0.157 HD
ENDBRANCH   7  20
BRANCH   1  23
HETATM   23  C   UNK N   1      32.408  16.661   4.533  0.00  0.00     0.044 C 
HETATM   24  C   UNK N   1      33.537  17.387   5.240  0.00  0.00     0.039 C 
HETATM   25  C   UNK N   1      32.578  15.168   4.768  0.00  0.00     0.039 C 
HETATM   26  C   UNK N   1      32.510  16.911   3.038  0.00  0.00     0.039 C 
ENDBRANCH   1  23
TORSDOF 3
ENDMDL
MODEL 2
REMARK VINA RESULT:      -6.8      1.503      5.625
REMARK  3 active torsions:
REMARK  status: ('A' for Active; 'I' for Inactive)
REMARK    1  A    between atoms: N_1  and  C_21 
REMARK    2  A    between atoms: C_7  and  N_13 
REMARK    3  A    between atoms: C_12  and  C_14 
ROOT
HETATM    1  N   UNK N   1      28.042  19.028   5.353  0.00  0.00    -0.266 N 
HETATM    2  C   UNK N   1      28.168  18.286   8.889  0.00  0.00     0.183 A 
HETATM    3  N   UNK N   1      27.711  18.855   7.737  0.00  0.00    -0.336 N 
ATOM      4  HN  UNK N   1      26.903  19.479   7.747  1.00  0.00     0.168 HD
HETATM    5  C   UNK N   1      28.354  18.574   6.581  0.00  0.00     0.140 A 
HETATM    6  C   UNK N   1      29.437  17.744   6.513  0.00  0.00     0.082 A 
HETATM    7  C   UNK N   1      29.907  17.165   7.701  0.00  0.00     0.116 A 
HETATM    8  N   UNK N   1      29.255  17.453   8.865  0.00  0.00    -0.338 N 
ATOM      9  HN  UNK N   1      29.585  17.039   9.737  1.00  0.00     0.168 HD
HETATM   10  N   UNK N   1      28.908  18.520   4.486  0.00  0.00    -0.294 N 
ATOM     11  HN  UNK N   1      28.915  18.696   3.482  1.00  0.00     0.187 HD
HETATM   12  C   UNK N   1      29.783  17.725   5.155  0.00  0.00     0.076 A 
ENDROOT
BRANCH  12  13
HETATM   13  C   UNK N   1      30.865  17.005   4.441  0.00  0.00    -0.007 A 
HETATM   14  C   UNK N   1      30.673  15.653   4.111  0.00  0.00     0.014 A 
HETATM   15  C   UNK N   1      31.673  14.931   3.455  0.00  0.00     0.007 A 
HETATM   16  C   UNK N   1      32.882  15.550   3.135  0.00  0.00    -0.062 A 
HETATM   17  C   UNK N   1      33.087  16.893   3.462  0.00  0.00     0.007 A 
HETATM   18  C   UNK N   1      33.953  14.779   2.452  0.00  0.00     0.048 C 
HETATM   19  C   UNK N   1      32.079  17.616   4.108  0.00  0.00     0.014 A 
ENDBRANCH  12  13
BRANCH   7  20
HETATM   20  N   UNK N   1      31.025  16.311   7.729  0.00  0.00    -0.385 N 
HETATM   21  H   UNK N   1      31.590  16.258   8.534  0.00  0.00     0.157 HD
HETATM   22  H   UNK N   1      31.244  15.764   6.940  0.00  0.00     0.157 HD
ENDBRANCH   7  20
BRANCH   1  23
HETATM   23  C   UNK N   1      26.937  19.927   4.988  0.00  0.00     0.044 C 
HETATM   24  C   UNK N   1      26.992  20.241   3.505  0.00  0.00     0.039 C 
HETATM   25  C   UNK N   1      25.589  19.291   5.293  0.00  0.00     0.039 C 
HETATM   26  C   UNK N   1      27.029  21.223   5.777  0.00  0.00     0.039 C 
ENDBRANCH   1  23
TORSDOF 3
ENDMDL
MODEL 3
REMARK VINA RESULT:      -6.3      1.363      3.334
REMARK  3 active torsions:
REMARK  status: ('A' for Active; 'I' for Inactive)
REMARK    1  A    between atoms: N_1  and  C_21 
REMARK    2  A    between atoms: C_7  and  N_13 
REMARK    3  A    between atoms: C_12  and  C_14 
ROOT
HETATM    1  N   UNK N   1      30.780  17.337   6.943  0.00  0.00    -0.266 N 
HETATM    2  C   UNK N   1      32.704  15.527   4.474  0.00  0.00     0.183 A 
HETATM    3  N   UNK N   1      32.391  16.041   5.699  0.00  0.00    -0.336 N 
ATOM      4  HN  UNK N   1      33.000  15.882   6.503  1.00  0.00     0.168 HD
HETATM    5  C   UNK N   1      31.256  16.766   5.821  0.00  0.00     0.140 A 
HETATM    6  C   UNK N   1      30.407  17.003   4.778  0.00  0.00     0.082 A 
HETATM    7  C   UNK N   1      30.735  16.478   3.519  0.00  0.00     0.116 A 
HETATM    8  N   UNK N   1      31.883  15.747   3.401  0.00  0.00    -0.338 N 
ATOM      9  HN  UNK N   1      32.135  15.358   2.492  1.00  0.00     0.168 HD
HETATM   10  N   UNK N   1      29.643  17.952   6.650  0.00  0.00    -0.294 N 
ATOM     11  HN  UNK N   1      29.064  18.474   7.308  1.00  0.00     0.187 HD
HETATM   12  C   UNK N   1      29.375  17.775   5.330  0.00  0.00     0.076 A 
ENDROOT
BRANCH  12  13
HETATM   13  C   UNK N   1      28.153  18.341   4.713  0.00  0.00    -0.007 A 
HETATM   14  C   UNK N   1      28.064  19.733   4.542  0.00  0.00     0.014 A 
HETATM   15  C   UNK N   1      26.923  20.311   3.981  0.00  0.00     0.007 A 
HETATM   16  C   UNK N   1      25.851  19.504   3.597  0.00  0.00    -0.062 A 
HETATM   17  C   UNK N   1      25.925  18.120   3.765  0.00  0.00     0.007 A 
HETATM   18  C   UNK N   1      24.630  20.120   3.015  0.00  0.00     0.048 C 
HETATM   19  C   UNK N   1      27.074  17.543   4.316  0.00  0.00     0.014 A 
ENDBRANCH  12  13
BRANCH   7  20
HETATM   20  N   UNK N   1      29.929  16.685   2.385  0.00  0.00    -0.385 N 
HETATM   21  H   UNK N   1      29.478  17.549   2.247  0.00  0.00     0.157 HD
HETATM   22  H   UNK N   1      29.815  15.963   1.726  0.00  0.00     0.157 HD
ENDBRANCH   7  20
BRANCH   1  23
HETATM   23  C   UNK N   1      31.381  17.302   8.286  0.00  0.00     0.044 C 
HETATM   24  C   UNK N   1      32.723  18.008   8.271  0.00  0.00     0.039 C 
HETATM   25  C   UNK N   1      30.488  17.995   9.304  0.00  0.00     0.039 C 
HETATM   26  C   UNK N   1      31.577  15.866   8.739  0.00  0.00     0.039 C 
ENDBRANCH   1  23
TORSDOF 3
ENDMDL
MODEL 4
REMARK VINA RESULT:      -6.2      9.235     12.587
REMARK  3 active torsions:
REMARK  status: ('A' for Active; 'I' for Inactive)
REMARK    1  A    between atoms: N_1  and  C_21 
REMARK    2  A    between atoms: C_7  and  N_13 
REMARK    3  A    between atoms: C_12  and  C_14 
ROOT
HETATM    1  N   UNK N   1      34.658  11.558  11.441  0.00  0.00    -0.266 N 
HETATM    2  C   UNK N   1      36.247  14.615  10.343  0.00  0.00     0.183 A 
HETATM    3  N   UNK N   1      35.588  13.426  10.228  0.00  0.00    -0.336 N 
ATOM      4  HN  UNK N   1      35.315  13.066   9.313  1.00  0.00     0.168 HD
HETATM    5  C   UNK N   1      35.308  12.734  11.356  0.00  0.00     0.140 A 
HETATM    6  C   UNK N   1      35.648  13.173  12.604  0.00  0.00     0.082 A 
HETATM    7  C   UNK N   1      36.330  14.394  12.717  0.00  0.00     0.116 A 
HETATM    8  N   UNK N   1      36.612  15.087  11.576  0.00  0.00    -0.338 N 
ATOM      9  HN  UNK N   1      37.107  15.977  11.642  1.00  0.00     0.168 HD
HETATM   10  N   UNK N   1      34.579  11.215  12.720  0.00  0.00    -0.294 N 
ATOM     11  HN  UNK N   1      34.142  10.367  13.081  1.00  0.00     0.187 HD
HETATM   12  C   UNK N   1      35.175  12.178  13.470  0.00  0.00     0.076 A 
ENDROOT
BRANCH  12  13
HETATM   13  C   UNK N   1      35.229  12.075  14.948  0.00  0.00    -0.007 A 
HETATM   14  C   UNK N   1      34.663  13.104  15.719  0.00  0.00     0.014 A 
HETATM   15  C   UNK N   1      34.708  13.057  17.114  0.00  0.00     0.007 A 
HETATM   16  C   UNK N   1      35.332  11.985  17.755  0.00  0.00    -0.062 A 
HETATM   17  C   UNK N   1      35.902  10.957  16.999  0.00  0.00     0.007 A 
HETATM   18  C   UNK N   1      35.394  11.941  19.238  0.00  0.00     0.048 C 
HETATM   19  C   UNK N   1      35.845  11.002  15.602  0.00  0.00     0.014 A 
ENDBRANCH  12  13
BRANCH   7  20
HETATM   20  N   UNK N   1      36.735  14.916  13.960  0.00  0.00    -0.385 N 
HETATM   21  H   UNK N   1      36.840  14.322  14.737  0.00  0.00     0.157 HD
HETATM   22  H   UNK N   1      36.913  15.879  14.052  0.00  0.00     0.157 HD
ENDBRANCH   7  20
BRANCH   1  23
HETATM   23  C   UNK N   1      34.108  10.760  10.334  0.00  0.00     0.044 C 
HETATM   24  C   UNK N   1      33.196   9.678  10.879  0.00  0.00     0.039 C 
HETATM   25  C   UNK N   1      33.303  11.630   9.380  0.00  0.00     0.039 C 
HETATM   26  C   UNK N   1      35.231  10.115   9.541  0.00  0.00     0.039 C 
ENDBRANCH   1  23
TORSDOF 3
ENDMDL
MODEL 5
REMARK VINA RESULT:      -6.2      2.680      3.545
REMARK  3 active torsions:
REMARK  status: ('A' for Active; 'I' for Inactive)
REMARK    1  A    between atoms: N_1  and  C_21 
REMARK    2  A    between atoms: C_7  and  N_13 
REMARK    3  A    between atoms: C_12  and  C_14 
ROOT
HETATM    1  N   UNK N   1      31.874  16.904   7.429  0.00  0.00    -0.266 N 
HETATM    2  C   UNK N   1      29.770  18.640   9.803  0.00  0.00     0.183 A 
HETATM    3  N   UNK N   1      30.924  18.148   9.266  0.00  0.00    -0.336 N 
ATOM      4  HN  UNK N   1      31.822  18.300   9.728  1.00  0.00     0.168 HD
HETATM    5  C   UNK N   1      30.850  17.451   8.109  0.00  0.00     0.140 A 
HETATM    6  C   UNK N   1      29.675  17.223   7.451  0.00  0.00     0.082 A 
HETATM    7  C   UNK N   1      28.490  17.726   8.009  0.00  0.00     0.116 A 
HETATM    8  N   UNK N   1      28.571  18.428   9.177  0.00  0.00    -0.338 N 
ATOM      9  HN  UNK N   1      27.718  18.801   9.595  1.00  0.00     0.168 HD
HETATM   10  N   UNK N   1      31.390  16.313   6.346  0.00  0.00    -0.294 N 
ATOM     11  HN  UNK N   1      31.938  15.812   5.647  1.00  0.00     0.187 HD
HETATM   12  C   UNK N   1      30.042  16.482   6.319  0.00  0.00     0.076 A 
ENDROOT
BRANCH  12  13
HETATM   13  C   UNK N   1      29.222  15.939   5.210  0.00  0.00    -0.007 A 
HETATM   14  C   UNK N   1      28.840  16.799   4.167  0.00  0.00     0.014 A 
HETATM   15  C   UNK N   1      28.052  16.333   3.112  0.00  0.00     0.007 A 
HETATM   16  C   UNK N   1      27.627  15.004   3.094  0.00  0.00    -0.062 A 
HETATM   17  C   UNK N   1      27.997  14.140   4.128  0.00  0.00     0.007 A 
HETATM   18  C   UNK N   1      26.775  14.511   1.981  0.00  0.00     0.048 C 
HETATM   19  C   UNK N   1      28.796  14.607   5.177  0.00  0.00     0.014 A 
ENDBRANCH  12  13
BRANCH   7  20
HETATM   20  N   UNK N   1      27.233  17.526   7.409  0.00  0.00    -0.385 N 
HETATM   21  H   UNK N   1      26.976  16.635   7.081  0.00  0.00     0.157 HD
HETATM   22  H   UNK N   1      26.608  18.281   7.318  0.00  0.00     0.157 HD
ENDBRANCH   7  20
BRANCH   1  23
HETATM   23  C   UNK N   1      33.301  16.939   7.785  0.00  0.00     0.044 C 
HETATM   24  C   UNK N   1      34.132  16.362   6.655  0.00  0.00     0.039 C 
HETATM   25  C   UNK N   1      33.767  18.364   8.042  0.00  0.00     0.039 C 
HETATM   26  C   UNK N   1      33.549  16.133   9.049  0.00  0.00     0.039 C 
ENDBRANCH   1  23
TORSDOF 3
ENDMDL
MODEL 6
REMARK VINA RESULT:      -6.1     10.157     12.049
REMARK  3 active torsions:
REMARK  status: ('A' for Active; 'I' for Inactive)
REMARK    1  A    between atoms: N_1  and  C_21 
REMARK    2  A    between atoms: C_7  and  N_13 
REMARK    3  A    between atoms: C_12  and  C_14 
ROOT
HETATM    1  N   UNK N   1      29.463  21.336  -6.761  0.00  0.00    -0.266 N 
HETATM    2  C   UNK N   1      31.820  20.065  -4.331  0.00  0.00     0.183 A 
HETATM    3  N   UNK N   1      31.128  20.120  -5.505  0.00  0.00    -0.336 N 
ATOM      4  HN  UNK N   1      31.287  19.428  -6.239  1.00  0.00     0.168 HD
HETATM    5  C   UNK N   1      30.225  21.113  -5.674  0.00  0.00     0.140 A 
HETATM    6  C   UNK N   1      29.978  22.065  -4.725  0.00  0.00     0.082 A 
HETATM    7  C   UNK N   1      30.688  22.001  -3.517  0.00  0.00     0.116 A 
HETATM    8  N   UNK N   1      31.597  20.996  -3.352  0.00  0.00    -0.338 N 
ATOM      9  HN  UNK N   1      32.122  20.936  -2.479  1.00  0.00     0.168 HD
HETATM   10  N   UNK N   1      28.715  22.407  -6.536  0.00  0.00    -0.294 N 
ATOM     11  HN  UNK N   1      28.038  22.805  -7.186  1.00  0.00     0.187 HD
HETATM   12  C   UNK N   1      28.998  22.888  -5.297  0.00  0.00     0.076 A 
ENDROOT
BRANCH  12  13
HETATM   13  C   UNK N   1      28.321  24.097  -4.770  0.00  0.00    -0.007 A 
HETATM   14  C   UNK N   1      26.964  24.012  -4.417  0.00  0.00     0.014 A 
HETATM   15  C   UNK N   1      26.282  25.131  -3.933  0.00  0.00     0.007 A 
HETATM   16  C   UNK N   1      26.947  26.352  -3.812  0.00  0.00    -0.062 A 
HETATM   17  C   UNK N   1      28.295  26.450  -4.164  0.00  0.00     0.007 A 
HETATM   18  C   UNK N   1      26.219  27.548  -3.313  0.00  0.00     0.048 C 
HETATM   19  C   UNK N   1      28.978  25.324  -4.637  0.00  0.00     0.014 A 
ENDBRANCH  12  13
BRANCH   7  20
HETATM   20  N   UNK N   1      30.488  22.928  -2.478  0.00  0.00    -0.385 N 
HETATM   21  H   UNK N   1      30.754  22.707  -1.557  0.00  0.00     0.157 HD
HETATM   22  H   UNK N   1      30.080  23.802  -2.673  0.00  0.00     0.157 HD
ENDBRANCH   7  20
BRANCH   1  23
HETATM   23  C   UNK N   1      29.438  20.555  -8.008  0.00  0.00     0.044 C 
HETATM   24  C   UNK N   1      30.768  20.683  -8.725  0.00  0.00     0.039 C 
HETATM   25  C   UNK N   1      29.186  19.082  -7.726  0.00  0.00     0.039 C 
HETATM   26  C   UNK N   1      28.329  21.052  -8.919  0.00  0.00     0.039 C 
ENDBRANCH   1  23
TORSDOF 3
ENDMDL
MODEL 7
REMARK VINA RESULT:      -6.0      2.808      6.863
REMARK  3 active torsions:
REMARK  status: ('A' for Active; 'I' for Inactive)
REMARK    1  A    between atoms: N_1  and  C_21 
REMARK    2  A    between atoms: C_7  and  N_13 
REMARK    3  A    between atoms: C_12  and  C_14 
ROOT
HETATM    1  N   UNK N   1      32.160  16.148   5.277  0.00  0.00    -0.266 N 
HETATM    2  C   UNK N   1      29.067  17.799   6.158  0.00  0.00     0.183 A 
HETATM    3  N   UNK N   1      29.997  17.215   5.349  0.00  0.00    -0.336 N 
ATOM      4  HN  UNK N   1      29.835  17.126   4.345  1.00  0.00     0.168 HD
HETATM    5  C   UNK N   1      31.141  16.759   5.908  0.00  0.00     0.140 A 
HETATM    6  C   UNK N   1      31.405  16.851   7.246  0.00  0.00     0.082 A 
HETATM    7  C   UNK N   1      30.447  17.456   8.073  0.00  0.00     0.116 A 
HETATM    8  N   UNK N   1      29.295  17.916   7.503  0.00  0.00    -0.338 N 
ATOM      9  HN  UNK N   1      28.589  18.358   8.091  1.00  0.00     0.168 HD
HETATM   10  N   UNK N   1      33.090  15.849   6.174  0.00  0.00    -0.294 N 
ATOM     11  HN  UNK N   1      33.976  15.385   5.978  1.00  0.00     0.187 HD
HETATM   12  C   UNK N   1      32.668  16.264   7.398  0.00  0.00     0.076 A 
ENDROOT
BRANCH  12  13
HETATM   13  C   UNK N   1      33.498  16.051   8.607  0.00  0.00    -0.007 A 
HETATM   14  C   UNK N   1      33.335  14.864   9.339  0.00  0.00     0.014 A 
HETATM   15  C   UNK N   1      34.083  14.630  10.495  0.00  0.00     0.007 A 
HETATM   16  C   UNK N   1      34.993  15.590  10.941  0.00  0.00    -0.062 A 
HETATM   17  C   UNK N   1      35.161  16.777  10.225  0.00  0.00     0.007 A 
HETATM   18  C   UNK N   1      35.778  15.350  12.180  0.00  0.00     0.048 C 
HETATM   19  C   UNK N   1      34.419  17.002   9.060  0.00  0.00     0.014 A 
ENDBRANCH  12  13
BRANCH   7  20
HETATM   20  N   UNK N   1      30.641  17.609   9.459  0.00  0.00    -0.385 N 
HETATM   21  H   UNK N   1      29.871  17.756  10.054  0.00  0.00     0.157 HD
HETATM   22  H   UNK N   1      31.550  17.568   9.834  0.00  0.00     0.157 HD
ENDBRANCH   7  20
BRANCH   1  23
HETATM   23  C   UNK N   1      32.264  15.837   3.843  0.00  0.00     0.044 C 
HETATM   24  C   UNK N   1      33.563  15.105   3.564  0.00  0.00     0.039 C 
HETATM   25  C   UNK N   1      31.111  14.955   3.389  0.00  0.00     0.039 C 
HETATM   26  C   UNK N   1      32.224  17.115   3.022  0.00  0.00     0.039 C 
ENDBRANCH   1  23
TORSDOF 3
ENDMDL
MODEL 8
REMARK VINA RESULT:      -6.0     10.959     13.813
REMARK  3 active torsions:
REMARK  status: ('A' for Active; 'I' for Inactive)
REMARK    1  A    between atoms: N_1  and  C_21 
REMARK    2  A    between atoms: C_7  and  N_13 
REMARK    3  A    between atoms: C_12  and  C_14 
ROOT
HETATM    1  N   UNK N   1      28.105  27.572  -4.164  0.00  0.00    -0.266 N 
HETATM    2  C   UNK N   1      24.784  27.137  -5.527  0.00  0.00     0.183 A 
HETATM    3  N   UNK N   1      25.853  27.802  -5.000  0.00  0.00    -0.336 N 
ATOM      4  HN  UNK N   1      25.818  28.811  -4.851  1.00  0.00     0.168 HD
HETATM    5  C   UNK N   1      26.958  27.092  -4.678  0.00  0.00     0.140 A 
HETATM    6  C   UNK N   1      27.056  25.741  -4.862  0.00  0.00     0.082 A 
HETATM    7  C   UNK N   1      25.953  25.061  -5.399  0.00  0.00     0.116 A 
HETATM    8  N   UNK N   1      24.840  25.782  -5.720  0.00  0.00    -0.338 N 
ATOM      9  HN  UNK N   1      24.030  25.302  -6.113  1.00  0.00     0.168 HD
HETATM   10  N   UNK N   1      28.946  26.561  -3.997  0.00  0.00    -0.294 N 
ATOM     11  HN  UNK N   1      29.890  26.631  -3.618  1.00  0.00     0.187 HD
HETATM   12  C   UNK N   1      28.343  25.416  -4.411  0.00  0.00     0.076 A 
ENDROOT
BRANCH  12  13
HETATM   13  C   UNK N   1      29.049  24.114  -4.357  0.00  0.00    -0.007 A 
HETATM   14  C   UNK N   1      29.347  23.559  -3.101  0.00  0.00     0.014 A 
HETATM   15  C   UNK N   1      30.027  22.343  -3.003  0.00  0.00     0.007 A 
HETATM   16  C   UNK N   1      30.430  21.675  -4.161  0.00  0.00    -0.062 A 
HETATM   17  C   UNK N   1      30.144  22.219  -5.415  0.00  0.00     0.007 A 
HETATM   18  C   UNK N   1      31.169  20.390  -4.058  0.00  0.00     0.048 C 
HETATM   19  C   UNK N   1      29.452  23.432  -5.510  0.00  0.00     0.014 A 
ENDBRANCH  12  13
BRANCH   7  20
HETATM   20  N   UNK N   1      25.958  23.669  -5.607  0.00  0.00    -0.385 N 
HETATM   21  H   UNK N   1      25.125  23.152  -5.525  0.00  0.00     0.157 HD
HETATM   22  H   UNK N   1      26.799  23.211  -5.836  0.00  0.00     0.157 HD
ENDBRANCH   7  20
BRANCH   1  23
HETATM   23  C   UNK N   1      28.418  28.972  -3.836  0.00  0.00     0.044 C 
HETATM   24  C   UNK N   1      28.214  29.849  -5.057  0.00  0.00     0.039 C 
HETATM   25  C   UNK N   1      27.520  29.487  -2.721  0.00  0.00     0.039 C 
HETATM   26  C   UNK N   1      29.858  29.095  -3.368  0.00  0.00     0.039 C 
ENDBRANCH   1  23
TORSDOF 3
ENDMDL
MODEL 9
REMARK VINA RESULT:      -5.9     13.617     16.026
REMARK  3 active torsions:
REMARK  status: ('A' for Active; 'I' for Inactive)
REMARK    1  A    between atoms: N_1  and  C_21 
REMARK    2  A    between atoms: C_7  and  N_13 
REMARK    3  A    between atoms: C_12  and  C_14 
ROOT
HETATM    1  N   UNK N   1      25.985  25.436  -9.336  0.00  0.00    -0.266 N 
HETATM    2  C   UNK N   1      25.353  22.246  -7.756  0.00  0.00     0.183 A 
HETATM    3  N   UNK N   1      25.528  23.133  -8.778  0.00  0.00    -0.336 N 
ATOM      4  HN  UNK N   1      25.474  22.828  -9.750  1.00  0.00     0.168 HD
HETATM    5  C   UNK N   1      25.774  24.427  -8.471  0.00  0.00     0.140 A 
HETATM    6  C   UNK N   1      25.860  24.885  -7.186  0.00  0.00     0.082 A 
HETATM    7  C   UNK N   1      25.675  23.970  -6.140  0.00  0.00     0.116 A 
HETATM    8  N   UNK N   1      25.425  22.665  -6.455  0.00  0.00    -0.338 N 
ATOM      9  HN  UNK N   1      25.289  21.988  -5.705  1.00  0.00     0.168 HD
HETATM   10  N   UNK N   1      26.195  26.546  -8.643  0.00  0.00    -0.294 N 
ATOM     11  HN  UNK N   1      26.378  27.468  -9.038  1.00  0.00     0.187 HD
HETATM   12  C   UNK N   1      26.127  26.255  -7.317  0.00  0.00     0.076 A 
ENDROOT
BRANCH  12  13
HETATM   13  C   UNK N   1      26.337  27.303  -6.290  0.00  0.00    -0.007 A 
HETATM   14  C   UNK N   1      25.412  27.413  -5.238  0.00  0.00     0.014 A 
HETATM   15  C   UNK N   1      25.560  28.397  -4.259  0.00  0.00     0.007 A 
HETATM   16  C   UNK N   1      26.629  29.292  -4.327  0.00  0.00    -0.062 A 
HETATM   17  C   UNK N   1      27.554  29.196  -5.370  0.00  0.00     0.007 A 
HETATM   18  C   UNK N   1      26.779  30.351  -3.295  0.00  0.00     0.048 C 
HETATM   19  C   UNK N   1      27.408  28.201  -6.343  0.00  0.00     0.014 A 
ENDBRANCH  12  13
BRANCH   7  20
HETATM   20  N   UNK N   1      25.730  24.355  -4.787  0.00  0.00    -0.385 N 
HETATM   21  H   UNK N   1      26.463  24.041  -4.211  0.00  0.00     0.157 HD
HETATM   22  H   UNK N   1      25.032  24.942  -4.416  0.00  0.00     0.157 HD
ENDBRANCH   7  20
BRANCH   1  23
HETATM   23  C   UNK N   1      25.997  25.363 -10.806  0.00  0.00     0.044 C 
HETATM   24  C   UNK N   1      24.578  25.430 -11.339  0.00  0.00     0.039 C 
HETATM   25  C   UNK N   1      26.788  26.516 -11.405  0.00  0.00     0.039 C 
HETATM   26  C   UNK N   1      26.643  24.067 -11.264  0.00  0.00     0.039 C 
ENDBRANCH   1  23
TORSDOF 3
ENDMDL
