MODEL 1
REMARK VINA RESULT:      -7.0      0.000      0.000
REMARK  3 active torsions:
REMARK  status: ('A' for Active; 'I' for Inactive)
REMARK    1  A    between atoms: C_7  and  N_22 
REMARK    2  A    between atoms: C_9  and  C_12 
REMARK    3  A    between atoms: N_11  and  C_18 
ROOT
HETATM    1  C   UNK N   1      30.711  17.151   6.290  0.00  0.00     0.140 A 
HETATM    2  N   UNK N   1      31.409  16.797   7.398  0.00  0.00    -0.336 N 
ATOM      3  HN  UNK N   1      32.363  16.445   7.325  1.00  0.00     0.168 HD
HETATM    4  C   UNK N   1      30.802  16.923   8.612  0.00  0.00     0.183 A 
HETATM    5  N   UNK N   1      29.519  17.392   8.700  0.00  0.00    -0.338 N 
ATOM      6  HN  UNK N   1      29.082  17.475   9.618  1.00  0.00     0.168 HD
HETATM    7  C   UNK N   1      28.812  17.752   7.589  0.00  0.00     0.116 A 
HETATM    8  C   UNK N   1      29.434  17.627   6.337  0.00  0.00     0.082 A 
HETATM    9  C   UNK N   1      29.113  17.897   4.997  0.00  0.00     0.076 A 
HETATM   10  N   UNK N   1      30.182  17.560   4.229  0.00  0.00    -0.294 N 
HETATM   11  N   UNK N   1      31.150  17.106   5.021  0.00  0.00    -0.266 N 
HETATM   12  H   UNK N   1      30.233  17.639   3.249  0.00  0.00     0.187 HD
ENDROOT
BRANCH   9  13
HETATM   13  C   UNK N   1      27.902  18.520   4.410  0.00  0.00    -0.007 A 
HETATM   14  C   UNK N   1      26.839  17.757   3.913  0.00  0.00     0.015 A 
HETATM   15  C   UNK N   1      25.668  18.370   3.464  0.00  0.00     0.024 A 
HETATM   16  C   UNK N   1      25.542  19.759   3.518  0.00  0.00     0.034 A 
HETATM   17  C   UNK N   1      26.601  20.536   3.995  0.00  0.00     0.024 A 
HETATM   18 Cl   UNK N   1      24.051  20.523   3.015  0.00  0.00    -0.084 Cl
HETATM   19  C   UNK N   1      27.777  19.918   4.435  0.00  0.00     0.015 A 
ENDBRANCH   9  13
BRANCH   7  20
HETATM   20  N   UNK N   1      27.498  18.229   7.736  0.00  0.00    -0.385 N 
HETATM   21  H   UNK N   1      26.948  17.932   8.496  0.00  0.00     0.157 HD
HETATM   22  H   UNK N   1      27.128  18.861   7.078  0.00  0.00     0.157 HD
ENDBRANCH   7  20
BRANCH  11  23
HETATM   23  C   UNK N   1      32.474  16.670   4.553  0.00  0.00     0.044 C 
HETATM   24  C   UNK N   1      32.601  16.926   3.062  0.00  0.00     0.039 C 
HETATM   25  C   UNK N   1      32.684  15.184   4.800  0.00  0.00     0.039 C 
HETATM   26  C   UNK N   1      33.568  17.429   5.283  0.00  0.00     0.039 C 
ENDBRANCH  11  23
TORSDOF 3
ENDMDL
MODEL 2
REMARK VINA RESULT:      -6.7      2.915      5.688
REMARK  3 active torsions:
REMARK  status: ('A' for Active; 'I' for Inactive)
REMARK    1  A    between atoms: C_7  and  N_22 
REMARK    2  A    between atoms: C_9  and  C_12 
REMARK    3  A    between atoms: N_11  and  C_18 
ROOT
HETATM    1  C   UNK N   1      28.300  18.558   6.516  0.00  0.00     0.140 A 
HETATM    2  N   UNK N   1      27.643  18.770   7.684  0.00  0.00    -0.336 N 
ATOM      3  HN  UNK N   1      26.815  19.364   7.717  1.00  0.00     0.168 HD
HETATM    4  C   UNK N   1      28.117  18.170   8.811  0.00  0.00     0.183 A 
HETATM    5  N   UNK N   1      29.233  17.379   8.758  0.00  0.00    -0.338 N 
ATOM      6  HN  UNK N   1      29.574  16.941   9.614  1.00  0.00     0.168 HD
HETATM    7  C   UNK N   1      29.898  17.159   7.586  0.00  0.00     0.116 A 
HETATM    8  C   UNK N   1      29.410  17.772   6.421  0.00  0.00     0.082 A 
HETATM    9  C   UNK N   1      29.741  17.797   5.057  0.00  0.00     0.076 A 
HETATM   10  N   UNK N   1      28.843  18.593   4.419  0.00  0.00    -0.294 N 
HETATM   11  N   UNK N   1      27.971  19.053   5.312  0.00  0.00    -0.266 N 
HETATM   12  H   UNK N   1      28.839  18.796   3.455  0.00  0.00     0.187 HD
ENDROOT
BRANCH   9  13
HETATM   13  C   UNK N   1      30.792  17.063   4.312  0.00  0.00    -0.007 A 
HETATM   14  C   UNK N   1      32.056  17.612   4.073  0.00  0.00     0.015 A 
HETATM   15  C   UNK N   1      33.061  16.857   3.464  0.00  0.00     0.024 A 
HETATM   16  C   UNK N   1      32.812  15.534   3.095  0.00  0.00     0.034 A 
HETATM   17  C   UNK N   1      31.550  14.976   3.311  0.00  0.00     0.024 A 
HETATM   18 Cl   UNK N   1      34.089  14.568   2.389  0.00  0.00    -0.084 Cl
HETATM   19  C   UNK N   1      30.543  15.739   3.913  0.00  0.00     0.015 A 
ENDBRANCH   9  13
BRANCH   7  20
HETATM   20  N   UNK N   1      31.037  16.335   7.586  0.00  0.00    -0.385 N 
HETATM   21  H   UNK N   1      31.705  16.420   6.869  0.00  0.00     0.157 HD
HETATM   22  H   UNK N   1      31.166  15.674   8.304  0.00  0.00     0.157 HD
ENDBRANCH   7  20
BRANCH  11  23
HETATM   23  C   UNK N   1      26.833  19.928   4.991  0.00  0.00     0.044 C 
HETATM   24  C   UNK N   1      26.919  20.370   3.541  0.00  0.00     0.039 C 
HETATM   25  C   UNK N   1      26.827  21.170   5.867  0.00  0.00     0.039 C 
HETATM   26  C   UNK N   1      25.523  19.190   5.209  0.00  0.00     0.039 C 
ENDBRANCH  11  23
TORSDOF 3
ENDMDL
MODEL 3
REMARK VINA RESULT:      -6.2      2.757      3.504
REMARK  3 active torsions:
REMARK  status: ('A' for Active; 'I' for Inactive)
REMARK    1  A    between atoms: C_7  and  N_22 
REMARK    2  A    between atoms: C_9  and  C_12 
REMARK    3  A    between atoms: N_11  and  C_18 
ROOT
HETATM    1  C   UNK N   1      30.880  17.446   8.118  0.00  0.00     0.140 A 
HETATM    2  N   UNK N   1      30.948  18.174   9.261  0.00  0.00    -0.336 N 
ATOM      3  HN  UNK N   1      31.843  18.358   9.711  1.00  0.00     0.168 HD
HETATM    4  C   UNK N   1      29.788  18.653   9.792  0.00  0.00     0.183 A 
HETATM    5  N   UNK N   1      28.589  18.397   9.183  0.00  0.00    -0.338 N 
ATOM      6  HN  UNK N   1      27.731  18.761   9.599  1.00  0.00     0.168 HD
HETATM    7  C   UNK N   1      28.514  17.667   8.032  0.00  0.00     0.116 A 
HETATM    8  C   UNK N   1      29.707  17.175   7.478  0.00  0.00     0.082 A 
HETATM    9  C   UNK N   1      30.089  16.441   6.344  0.00  0.00     0.076 A 
HETATM   10  N   UNK N   1      31.440  16.297   6.368  0.00  0.00    -0.294 N 
HETATM   11  N   UNK N   1      31.915  16.910   7.450  0.00  0.00    -0.266 N 
HETATM   12  H   UNK N   1      31.979  15.819   5.697  0.00  0.00     0.187 HD
ENDROOT
BRANCH   9  13
HETATM   13  C   UNK N   1      29.276  15.940   5.209  0.00  0.00    -0.007 A 
HETATM   14  C   UNK N   1      28.722  14.656   5.201  0.00  0.00     0.015 A 
HETATM   15  C   UNK N   1      27.873  14.249   4.169  0.00  0.00     0.024 A 
HETATM   16  C   UNK N   1      27.561  15.133   3.135  0.00  0.00     0.034 A 
HETATM   17  C   UNK N   1      28.120  16.413   3.119  0.00  0.00     0.024 A 
HETATM   18 Cl   UNK N   1      26.448  14.646   1.875  0.00  0.00    -0.084 Cl
HETATM   19  C   UNK N   1      28.977  16.813   4.151  0.00  0.00     0.015 A 
ENDBRANCH   9  13
BRANCH   7  20
HETATM   20  N   UNK N   1      27.257  17.435   7.445  0.00  0.00    -0.385 N 
HETATM   21  H   UNK N   1      26.482  17.978   7.714  0.00  0.00     0.157 HD
HETATM   22  H   UNK N   1      27.154  16.729   6.767  0.00  0.00     0.157 HD
ENDBRANCH   7  20
BRANCH  11  23
HETATM   23  C   UNK N   1      33.340  16.992   7.803  0.00  0.00     0.044 C 
HETATM   24  C   UNK N   1      33.602  16.191   9.066  0.00  0.00     0.039 C 
HETATM   25  C   UNK N   1      33.764  18.430   8.054  0.00  0.00     0.039 C 
HETATM   26  C   UNK N   1      34.195  16.438   6.676  0.00  0.00     0.039 C 
ENDBRANCH  11  23
TORSDOF 3
ENDMDL
MODEL 4
REMARK VINA RESULT:      -6.2      1.331      3.328
REMARK  3 active torsions:
REMARK  status: ('A' for Active; 'I' for Inactive)
REMARK    1  A    between atoms: C_7  and  N_22 
REMARK    2  A    between atoms: C_9  and  C_12 
REMARK    3  A    between atoms: N_11  and  C_18 
ROOT
HETATM    1  C   UNK N   1      30.975  16.880   5.910  0.00  0.00     0.140 A 
HETATM    2  N   UNK N   1      32.069  16.078   5.858  0.00  0.00    -0.336 N 
ATOM      3  HN  UNK N   1      32.647  15.929   6.684  1.00  0.00     0.168 HD
HETATM    4  C   UNK N   1      32.374  15.476   4.674  0.00  0.00     0.183 A 
HETATM    5  N   UNK N   1      31.594  15.686   3.569  0.00  0.00    -0.338 N 
ATOM      6  HN  UNK N   1      31.842  15.230   2.691  1.00  0.00     0.168 HD
HETATM    7  C   UNK N   1      30.492  16.490   3.614  0.00  0.00     0.116 A 
HETATM    8  C   UNK N   1      30.170  17.109   4.833  0.00  0.00     0.082 A 
HETATM    9  C   UNK N   1      29.159  17.949   5.325  0.00  0.00     0.076 A 
HETATM   10  N   UNK N   1      29.411  18.191   6.638  0.00  0.00    -0.294 N 
HETATM   11  N   UNK N   1      30.517  17.539   6.987  0.00  0.00    -0.266 N 
HETATM   12  H   UNK N   1      28.866  18.755   7.233  0.00  0.00     0.187 HD
ENDROOT
BRANCH   9  13
HETATM   13  C   UNK N   1      27.939  18.469   4.661  0.00  0.00    -0.007 A 
HETATM   14  C   UNK N   1      26.830  17.657   4.399  0.00  0.00     0.015 A 
HETATM   15  C   UNK N   1      25.657  18.198   3.871  0.00  0.00     0.024 A 
HETATM   16  C   UNK N   1      25.576  19.566   3.608  0.00  0.00     0.034 A 
HETATM   17  C   UNK N   1      26.680  20.388   3.848  0.00  0.00     0.024 A 
HETATM   18 Cl   UNK N   1      24.084  20.255   3.005  0.00  0.00    -0.084 Cl
HETATM   19  C   UNK N   1      27.857  19.840   4.369  0.00  0.00     0.015 A 
ENDBRANCH   9  13
BRANCH   7  20
HETATM   20  N   UNK N   1      29.724  16.670   2.450  0.00  0.00    -0.385 N 
HETATM   21  H   UNK N   1      29.002  16.036   2.235  0.00  0.00     0.157 HD
HETATM   22  H   UNK N   1      29.907  17.429   1.852  0.00  0.00     0.157 HD
ENDBRANCH   7  20
BRANCH  11  23
HETATM   23  C   UNK N   1      31.092  17.538   8.341  0.00  0.00     0.044 C 
HETATM   24  C   UNK N   1      30.266  18.430   9.249  0.00  0.00     0.039 C 
HETATM   25  C   UNK N   1      32.521  18.058   8.334  0.00  0.00     0.039 C 
HETATM   26  C   UNK N   1      31.106  16.128   8.907  0.00  0.00     0.039 C 
ENDBRANCH  11  23
TORSDOF 3
ENDMDL
MODEL 5
REMARK VINA RESULT:      -6.1      3.535      6.927
REMARK  3 active torsions:
REMARK  status: ('A' for Active; 'I' for Inactive)
REMARK    1  A    between atoms: C_7  and  N_22 
REMARK    2  A    between atoms: C_9  and  C_12 
REMARK    3  A    between atoms: N_11  and  C_18 
ROOT
HETATM    1  C   UNK N   1      25.123  18.468   4.427  0.00  0.00     0.140 A 
HETATM    2  N   UNK N   1      24.389  19.221   3.570  0.00  0.00    -0.336 N 
ATOM      3  HN  UNK N   1      23.400  19.025   3.418  1.00  0.00     0.168 HD
HETATM    4  C   UNK N   1      25.005  20.248   2.920  0.00  0.00     0.183 A 
HETATM    5  N   UNK N   1      26.334  20.501   3.128  0.00  0.00    -0.338 N 
ATOM      6  HN  UNK N   1      26.777  21.272   2.628  1.00  0.00     0.168 HD
HETATM    7  C   UNK N   1      27.079  19.749   3.990  0.00  0.00     0.116 A 
HETATM    8  C   UNK N   1      26.447  18.693   4.666  0.00  0.00     0.082 A 
HETATM    9  C   UNK N   1      26.798  17.728   5.622  0.00  0.00     0.076 A 
HETATM   10  N   UNK N   1      25.698  16.978   5.891  0.00  0.00    -0.294 N 
HETATM   11  N   UNK N   1      24.683  17.432   5.160  0.00  0.00    -0.266 N 
HETATM   12  H   UNK N   1      25.657  16.223   6.522  0.00  0.00     0.187 HD
ENDROOT
BRANCH   9  13
HETATM   13  C   UNK N   1      28.074  17.520   6.350  0.00  0.00    -0.007 A 
HETATM   14  C   UNK N   1      29.121  16.762   5.815  0.00  0.00     0.015 A 
HETATM   15  C   UNK N   1      30.349  16.672   6.474  0.00  0.00     0.024 A 
HETATM   16  C   UNK N   1      30.546  17.354   7.676  0.00  0.00     0.034 A 
HETATM   17  C   UNK N   1      29.506  18.102   8.232  0.00  0.00     0.024 A 
HETATM   18 Cl   UNK N   1      32.105  17.293   8.470  0.00  0.00    -0.084 Cl
HETATM   19  C   UNK N   1      28.274  18.181   7.573  0.00  0.00     0.015 A 
ENDBRANCH   9  13
BRANCH   7  20
HETATM   20  N   UNK N   1      28.439  20.054   4.168  0.00  0.00    -0.385 N 
HETATM   21  H   UNK N   1      28.777  20.950   3.939  0.00  0.00     0.157 HD
HETATM   22  H   UNK N   1      29.054  19.372   4.522  0.00  0.00     0.157 HD
ENDBRANCH   7  20
BRANCH  11  23
HETATM   23  C   UNK N   1      23.318  16.888   5.200  0.00  0.00     0.044 C 
HETATM   24  C   UNK N   1      22.350  17.963   5.663  0.00  0.00     0.039 C 
HETATM   25  C   UNK N   1      23.220  15.714   6.161  0.00  0.00     0.039 C 
HETATM   26  C   UNK N   1      22.902  16.404   3.822  0.00  0.00     0.039 C 
ENDBRANCH  11  23
TORSDOF 3
ENDMDL
MODEL 6
REMARK VINA RESULT:      -6.1      3.770      6.888
REMARK  3 active torsions:
REMARK  status: ('A' for Active; 'I' for Inactive)
REMARK    1  A    between atoms: C_7  and  N_22 
REMARK    2  A    between atoms: C_9  and  C_12 
REMARK    3  A    between atoms: N_11  and  C_18 
ROOT
HETATM    1  C   UNK N   1      29.954  17.276   4.937  0.00  0.00     0.140 A 
HETATM    2  N   UNK N   1      29.539  17.134   3.653  0.00  0.00    -0.336 N 
ATOM      3  HN  UNK N   1      28.657  17.540   3.342  1.00  0.00     0.168 HD
HETATM    4  C   UNK N   1      30.330  16.438   2.790  0.00  0.00     0.183 A 
HETATM    5  N   UNK N   1      31.511  15.893   3.219  0.00  0.00    -0.338 N 
ATOM      6  HN  UNK N   1      32.087  15.372   2.559  1.00  0.00     0.168 HD
HETATM    7  C   UNK N   1      31.936  16.033   4.509  0.00  0.00     0.116 A 
HETATM    8  C   UNK N   1      31.126  16.754   5.400  0.00  0.00     0.082 A 
HETATM    9  C   UNK N   1      31.181  17.158   6.744  0.00  0.00     0.076 A 
HETATM   10  N   UNK N   1      30.057  17.870   7.018  0.00  0.00    -0.294 N 
HETATM   11  N   UNK N   1      29.315  17.937   5.916  0.00  0.00    -0.266 N 
HETATM   12  H   UNK N   1      29.828  18.270   7.889  0.00  0.00     0.187 HD
ENDROOT
BRANCH   9  13
HETATM   13  C   UNK N   1      32.253  16.982   7.754  0.00  0.00    -0.007 A 
HETATM   14  C   UNK N   1      32.326  15.850   8.573  0.00  0.00     0.015 A 
HETATM   15  C   UNK N   1      33.405  15.662   9.438  0.00  0.00     0.024 A 
HETATM   16  C   UNK N   1      34.433  16.604   9.486  0.00  0.00     0.034 A 
HETATM   17  C   UNK N   1      34.367  17.748   8.687  0.00  0.00     0.024 A 
HETATM   18 Cl   UNK N   1      35.816  16.338  10.524  0.00  0.00    -0.084 Cl
HETATM   19  C   UNK N   1      33.279  17.937   7.828  0.00  0.00     0.015 A 
ENDBRANCH   9  13
BRANCH   7  20
HETATM   20  N   UNK N   1      33.158  15.456   4.896  0.00  0.00    -0.385 N 
HETATM   21  H   UNK N   1      34.005  15.814   4.544  0.00  0.00     0.157 HD
HETATM   22  H   UNK N   1      33.167  14.695   5.520  0.00  0.00     0.157 HD
ENDBRANCH   7  20
BRANCH  11  23
HETATM   23  C   UNK N   1      28.033  18.652   5.817  0.00  0.00     0.044 C 
HETATM   24  C   UNK N   1      26.905  17.656   5.617  0.00  0.00     0.039 C 
HETATM   25  C   UNK N   1      28.029  19.617   4.642  0.00  0.00     0.039 C 
HETATM   26  C   UNK N   1      27.775  19.450   7.083  0.00  0.00     0.039 C 
ENDBRANCH  11  23
TORSDOF 3
ENDMDL
MODEL 7
REMARK VINA RESULT:      -6.1      4.271      6.853
REMARK  3 active torsions:
REMARK  status: ('A' for Active; 'I' for Inactive)
REMARK    1  A    between atoms: C_7  and  N_22 
REMARK    2  A    between atoms: C_9  and  C_12 
REMARK    3  A    between atoms: N_11  and  C_18 
ROOT
HETATM    1  C   UNK N   1      31.186  16.800   5.944  0.00  0.00     0.140 A 
HETATM    2  N   UNK N   1      30.051  17.213   5.327  0.00  0.00    -0.336 N 
ATOM      3  HN  UNK N   1      29.927  17.089   4.323  1.00  0.00     0.168 HD
HETATM    4  C   UNK N   1      29.078  17.796   6.083  0.00  0.00     0.183 A 
HETATM    5  N   UNK N   1      29.255  17.962   7.430  0.00  0.00    -0.338 N 
ATOM      6  HN  UNK N   1      28.517  18.405   7.978  1.00  0.00     0.168 HD
HETATM    7  C   UNK N   1      30.394  17.548   8.058  0.00  0.00     0.116 A 
HETATM    8  C   UNK N   1      31.397  16.943   7.285  0.00  0.00     0.082 A 
HETATM    9  C   UNK N   1      32.656  16.362   7.504  0.00  0.00     0.076 A 
HETATM   10  N   UNK N   1      33.135  15.927   6.309  0.00  0.00    -0.294 N 
HETATM   11  N   UNK N   1      32.237  16.197   5.365  0.00  0.00    -0.266 N 
HETATM   12  H   UNK N   1      34.003  15.485   6.165  0.00  0.00     0.187 HD
ENDROOT
BRANCH   9  13
HETATM   13  C   UNK N   1      33.394  16.125   8.768  0.00  0.00    -0.007 A 
HETATM   14  C   UNK N   1      33.187  14.983   9.548  0.00  0.00     0.015 A 
HETATM   15  C   UNK N   1      33.971  14.735  10.676  0.00  0.00     0.024 A 
HETATM   16  C   UNK N   1      34.984  15.627  11.031  0.00  0.00     0.034 A 
HETATM   17  C   UNK N   1      35.193  16.781  10.273  0.00  0.00     0.024 A 
HETATM   18 Cl   UNK N   1      36.009  15.284  12.408  0.00  0.00    -0.084 Cl
HETATM   19  C   UNK N   1      34.398  17.031   9.148  0.00  0.00     0.015 A 
ENDBRANCH   9  13
BRANCH   7  20
HETATM   20  N   UNK N   1      30.523  17.740   9.445  0.00  0.00    -0.385 N 
HETATM   21  H   UNK N   1      31.010  17.081   9.990  0.00  0.00     0.157 HD
HETATM   22  H   UNK N   1      30.127  18.535   9.870  0.00  0.00     0.157 HD
ENDBRANCH   7  20
BRANCH  11  23
HETATM   23  C   UNK N   1      32.391  15.850   3.945  0.00  0.00     0.044 C 
HETATM   24  C   UNK N   1      31.290  14.891   3.529  0.00  0.00     0.039 C 
HETATM   25  C   UNK N   1      33.730  15.179   3.683  0.00  0.00     0.039 C 
HETATM   26  C   UNK N   1      32.314  17.099   3.085  0.00  0.00     0.039 C 
ENDBRANCH  11  23
TORSDOF 3
ENDMDL
MODEL 8
REMARK VINA RESULT:      -6.0     11.065     13.930
REMARK  3 active torsions:
REMARK  status: ('A' for Active; 'I' for Inactive)
REMARK    1  A    between atoms: C_7  and  N_22 
REMARK    2  A    between atoms: C_9  and  C_12 
REMARK    3  A    between atoms: N_11  and  C_18 
ROOT
HETATM    1  C   UNK N   1      26.673  25.071  -6.103  0.00  0.00     0.140 A 
HETATM    2  N   UNK N   1      25.775  25.143  -7.117  0.00  0.00    -0.336 N 
ATOM      3  HN  UNK N   1      25.133  25.931  -7.191  1.00  0.00     0.168 HD
HETATM    4  C   UNK N   1      25.753  24.136  -8.034  0.00  0.00     0.183 A 
HETATM    5  N   UNK N   1      26.616  23.079  -7.923  0.00  0.00    -0.338 N 
ATOM      6  HN  UNK N   1      26.581  22.333  -8.618  1.00  0.00     0.168 HD
HETATM    7  C   UNK N   1      27.524  23.001  -6.907  0.00  0.00     0.116 A 
HETATM    8  C   UNK N   1      27.553  24.039  -5.962  0.00  0.00     0.082 A 
HETATM    9  C   UNK N   1      28.306  24.374  -4.825  0.00  0.00     0.076 A 
HETATM   10  N   UNK N   1      27.839  25.555  -4.342  0.00  0.00    -0.294 N 
HETATM   11  N   UNK N   1      26.846  25.973  -5.122  0.00  0.00    -0.266 N 
HETATM   12  H   UNK N   1      28.179  26.025  -3.545  0.00  0.00     0.187 HD
ENDROOT
BRANCH   9  13
HETATM   13  C   UNK N   1      29.477  23.697  -4.218  0.00  0.00    -0.007 A 
HETATM   14  C   UNK N   1      29.373  22.933  -3.051  0.00  0.00     0.015 A 
HETATM   15  C   UNK N   1      30.470  22.220  -2.562  0.00  0.00     0.024 A 
HETATM   16  C   UNK N   1      31.686  22.256  -3.247  0.00  0.00     0.034 A 
HETATM   17  C   UNK N   1      31.811  23.027  -4.405  0.00  0.00     0.024 A 
HETATM   18 Cl   UNK N   1      33.042  21.312  -2.670  0.00  0.00    -0.084 Cl
HETATM   19  C   UNK N   1      30.712  23.747  -4.886  0.00  0.00     0.015 A 
ENDBRANCH   9  13
BRANCH   7  20
HETATM   20  N   UNK N   1      28.389  21.895  -6.841  0.00  0.00    -0.385 N 
HETATM   21  H   UNK N   1      28.655  21.429  -7.666  0.00  0.00     0.157 HD
HETATM   22  H   UNK N   1      28.729  21.588  -5.971  0.00  0.00     0.157 HD
ENDBRANCH   7  20
BRANCH  11  23
HETATM   23  C   UNK N   1      26.108  27.231  -4.930  0.00  0.00     0.044 C 
HETATM   24  C   UNK N   1      25.939  27.505  -3.447  0.00  0.00     0.039 C 
HETATM   25  C   UNK N   1      24.727  27.161  -5.562  0.00  0.00     0.039 C 
HETATM   26  C   UNK N   1      26.861  28.386  -5.567  0.00  0.00     0.039 C 
ENDBRANCH  11  23
TORSDOF 3
ENDMDL
MODEL 9
REMARK VINA RESULT:      -6.0      4.299      7.700
REMARK  3 active torsions:
REMARK  status: ('A' for Active; 'I' for Inactive)
REMARK    1  A    between atoms: C_7  and  N_22 
REMARK    2  A    between atoms: C_9  and  C_12 
REMARK    3  A    between atoms: N_11  and  C_18 
ROOT
HETATM    1  C   UNK N   1      30.724  17.169   6.440  0.00  0.00     0.140 A 
HETATM    2  N   UNK N   1      30.314  17.505   5.192  0.00  0.00    -0.336 N 
ATOM      3  HN  UNK N   1      29.353  17.798   5.018  1.00  0.00     0.168 HD
HETATM    4  C   UNK N   1      31.218  17.442   4.174  0.00  0.00     0.183 A 
HETATM    5  N   UNK N   1      32.505  17.043   4.416  0.00  0.00    -0.338 N 
ATOM      6  HN  UNK N   1      33.166  16.998   3.640  1.00  0.00     0.168 HD
HETATM    7  C   UNK N   1      32.926  16.706   5.670  0.00  0.00     0.116 A 
HETATM    8  C   UNK N   1      31.999  16.774   6.722  0.00  0.00     0.082 A 
HETATM    9  C   UNK N   1      31.999  16.562   8.110  0.00  0.00     0.076 A 
HETATM   10  N   UNK N   1      30.750  16.817   8.578  0.00  0.00    -0.294 N 
HETATM   11  N   UNK N   1      29.979  17.186   7.558  0.00  0.00    -0.266 N 
HETATM   12  H   UNK N   1      30.462  16.743   9.517  0.00  0.00     0.187 HD
ENDROOT
BRANCH   9  13
HETATM   13  C   UNK N   1      33.113  16.212   9.024  0.00  0.00    -0.007 A 
HETATM   14  C   UNK N   1      34.173  17.089   9.276  0.00  0.00     0.015 A 
HETATM   15  C   UNK N   1      35.151  16.776  10.222  0.00  0.00     0.024 A 
HETATM   16  C   UNK N   1      35.073  15.581  10.938  0.00  0.00     0.034 A 
HETATM   17  C   UNK N   1      34.030  14.686  10.686  0.00  0.00     0.024 A 
HETATM   18 Cl   UNK N   1      36.263  15.217  12.168  0.00  0.00    -0.084 Cl
HETATM   19  C   UNK N   1      33.057  14.999   9.730  0.00  0.00     0.015 A 
ENDBRANCH   9  13
BRANCH   7  20
HETATM   20  N   UNK N   1      34.259  16.305   5.864  0.00  0.00    -0.385 N 
HETATM   21  H   UNK N   1      34.886  16.896   6.342  0.00  0.00     0.157 HD
HETATM   22  H   UNK N   1      34.567  15.436   5.522  0.00  0.00     0.157 HD
ENDBRANCH   7  20
BRANCH  11  23
HETATM   23  C   UNK N   1      28.564  17.569   7.678  0.00  0.00     0.044 C 
HETATM   24  C   UNK N   1      28.103  17.385   9.113  0.00  0.00     0.039 C 
HETATM   25  C   UNK N   1      27.683  16.714   6.782  0.00  0.00     0.039 C 
HETATM   26  C   UNK N   1      28.376  19.022   7.278  0.00  0.00     0.039 C 
ENDBRANCH  11  23
TORSDOF 3
ENDMDL
