MODEL 1
REMARK VINA RESULT:      -7.4      0.000      0.000
REMARK  6 active torsions:
REMARK  status: ('A' for Active; 'I' for Inactive)
REMARK    1  A    between atoms: C_8  and  N_9 
REMARK    2  A    between atoms: N_9  and  C_18 
REMARK    3  A    between atoms: C_12  and  N_13 
REMARK       I    between atoms: C_16  and  N_17 
REMARK    4  A    between atoms: C_18  and  C_19 
REMARK    5  A    between atoms: C_20  and  O_25 
REMARK    6  A    between atoms: C_23  and  O_27 
ROOT
HETATM    1  C   UNK N   1      21.444  18.445   3.497  0.00  0.00     0.055 A 
HETATM    2  C   UNK N   1      20.175  18.379   2.903  0.00  0.00     0.135 A 
HETATM    3  N   UNK N   1      19.805  19.329   2.004  0.00  0.00    -0.176 N 
ATOM      4  HN  UNK N   1      18.879  19.285   1.577  1.00  0.00     0.186 HD
HETATM    5  N   UNK N   1      19.332  17.355   3.213  0.00  0.00    -0.349 N 
ATOM      6  HN  UNK N   1      18.405  17.327   2.787  1.00  0.00     0.167 HD
HETATM    7  C   UNK N   1      19.696  16.364   4.079  0.00  0.00     0.119 A 
HETATM    8  C   UNK N   1      20.955  16.395   4.705  0.00  0.00     0.046 A 
HETATM    9  C   UNK N   1      21.820  17.459   4.405  0.00  0.00     0.050 A 
HETATM   10  C   UNK N   1      22.303  19.489   3.138  0.00  0.00     0.128 A 
HETATM   11  N   UNK N   1      21.890  20.412   2.230  0.00  0.00    -0.176 N 
ATOM     12  HN  UNK N   1      22.519  21.171   1.966  1.00  0.00     0.186 HD
HETATM   13  C   UNK N   1      20.654  20.340   1.668  0.00  0.00     0.679 A 
HETATM   14  N   UNK N   1      20.258  21.308   0.725  0.00  0.00    -0.234 N 
HETATM   15  H   UNK N   1      20.908  21.970   0.395  0.00  0.00     0.174 HD
HETATM   16  H   UNK N   1      19.330  21.322   0.395  0.00  0.00     0.174 HD
ENDROOT
BRANCH   8  17
HETATM   17  N   UNK N   1      21.399  15.336   5.561  0.00  0.00    -0.380 N 
HETATM   18  C   UNK N   1      20.890  14.009   5.313  0.00  0.00     0.150 C 
BRANCH  17  19
HETATM   19  C   UNK N   1      21.975  15.640   6.866  0.00  0.00     0.164 C 
BRANCH  19  20
HETATM   20  C   UNK N   1      21.590  14.752   8.037  0.00  0.00    -0.004 A 
HETATM   21  C   UNK N   1      20.338  14.833   8.699  0.00  0.00     0.076 A 
HETATM   22  C   UNK N   1      20.104  14.039   9.836  0.00  0.00     0.040 A 
HETATM   23  C   UNK N   1      21.098  13.210  10.343  0.00  0.00     0.039 A 
HETATM   24  C   UNK N   1      22.349  13.145   9.717  0.00  0.00     0.069 A 
HETATM   25  C   UNK N   1      22.581  13.907   8.563  0.00  0.00     0.048 A 
BRANCH  21  26
HETATM   26  O   UNK N   1      19.384  15.687   8.264  0.00  0.00    -0.355 OA
HETATM   27  C   UNK N   1      19.114  16.900   8.857  0.00  0.00     0.210 C 
ENDBRANCH  21  26
BRANCH  24  28
HETATM   28  O   UNK N   1      23.349  12.383  10.222  0.00  0.00    -0.356 OA
HETATM   29  C   UNK N   1      23.362  11.927  11.523  0.00  0.00     0.210 C 
ENDBRANCH  24  28
ENDBRANCH  19  20
ENDBRANCH  17  19
ENDBRANCH   8  17
BRANCH  10  30
HETATM   30  N   UNK N   1      23.598  19.584   3.692  0.00  0.00    -0.384 N 
HETATM   31  H   UNK N   1      24.269  20.181   3.289  0.00  0.00     0.157 HD
HETATM   32  H   UNK N   1      23.832  19.049   4.486  0.00  0.00     0.157 HD
ENDBRANCH  10  30
TORSDOF 6
ENDMDL
MODEL 2
REMARK VINA RESULT:      -7.2     14.465     16.811
REMARK  6 active torsions:
REMARK  status: ('A' for Active; 'I' for Inactive)
REMARK    1  A    between atoms: C_8  and  N_9 
REMARK    2  A    between atoms: N_9  and  C_18 
REMARK    3  A    between atoms: C_12  and  N_13 
REMARK       I    between atoms: C_16  and  N_17 
REMARK    4  A    between atoms: C_18  and  C_19 
REMARK    5  A    between atoms: C_20  and  O_25 
REMARK    6  A    between atoms: C_23  and  O_27 
ROOT
HETATM    1  C   UNK N   1      34.899  14.332  11.200  0.00  0.00     0.055 A 
HETATM    2  C   UNK N   1      35.646  15.428  11.657  0.00  0.00     0.135 A 
HETATM    3  N   UNK N   1      35.612  16.598  10.965  0.00  0.00    -0.176 N 
ATOM      4  HN  UNK N   1      36.160  17.393  11.294  1.00  0.00     0.186 HD
HETATM    5  N   UNK N   1      36.380  15.321  12.800  0.00  0.00    -0.349 N 
ATOM      6  HN  UNK N   1      36.932  16.120  13.113  1.00  0.00     0.167 HD
HETATM    7  C   UNK N   1      36.395  14.171  13.537  0.00  0.00     0.119 A 
HETATM    8  C   UNK N   1      35.669  13.045  13.111  0.00  0.00     0.046 A 
HETATM    9  C   UNK N   1      34.927  13.142  11.923  0.00  0.00     0.050 A 
HETATM   10  C   UNK N   1      34.128  14.477  10.041  0.00  0.00     0.128 A 
HETATM   11  N   UNK N   1      34.122  15.668   9.388  0.00  0.00    -0.176 N 
ATOM     12  HN  UNK N   1      33.556  15.775   8.545  1.00  0.00     0.186 HD
HETATM   13  C   UNK N   1      34.857  16.720   9.839  0.00  0.00     0.679 A 
HETATM   14  N   UNK N   1      34.825  17.944   9.142  0.00  0.00    -0.234 N 
HETATM   15  H   UNK N   1      34.194  18.071   8.397  0.00  0.00     0.174 HD
HETATM   16  H   UNK N   1      35.434  18.673   9.401  0.00  0.00     0.174 HD
ENDROOT
BRANCH   8  17
HETATM   17  N   UNK N   1      35.603  11.848  13.894  0.00  0.00    -0.380 N 
HETATM   18  C   UNK N   1      36.287  10.678  13.398  0.00  0.00     0.150 C 
BRANCH  17  19
HETATM   19  C   UNK N   1      34.556  11.682  14.896  0.00  0.00     0.164 C 
BRANCH  19  20
HETATM   20  C   UNK N   1      34.924  11.906  16.353  0.00  0.00    -0.004 A 
HETATM   21  C   UNK N   1      35.051  10.854  17.296  0.00  0.00     0.076 A 
HETATM   22  C   UNK N   1      35.299  11.160  18.645  0.00  0.00     0.040 A 
HETATM   23  C   UNK N   1      35.379  12.480  19.073  0.00  0.00     0.039 A 
HETATM   24  C   UNK N   1      35.223  13.529  18.157  0.00  0.00     0.069 A 
HETATM   25  C   UNK N   1      35.009  13.234  16.803  0.00  0.00     0.048 A 
BRANCH  21  26
HETATM   26  O   UNK N   1      34.906   9.565  16.912  0.00  0.00    -0.355 OA
HETATM   27  C   UNK N   1      35.956   8.684  16.778  0.00  0.00     0.210 C 
ENDBRANCH  21  26
BRANCH  24  28
HETATM   28  O   UNK N   1      35.245  14.822  18.560  0.00  0.00    -0.356 OA
HETATM   29  C   UNK N   1      36.191  15.728  18.129  0.00  0.00     0.210 C 
ENDBRANCH  24  28
ENDBRANCH  19  20
ENDBRANCH  17  19
ENDBRANCH   8  17
BRANCH  10  30
HETATM   30  N   UNK N   1      33.342  13.409   9.556  0.00  0.00    -0.384 N 
HETATM   31  H   UNK N   1      33.707  12.788   8.885  0.00  0.00     0.157 HD
HETATM   32  H   UNK N   1      32.425  13.285   9.891  0.00  0.00     0.157 HD
ENDBRANCH  10  30
TORSDOF 6
ENDMDL
MODEL 3
REMARK VINA RESULT:      -7.2      0.905      2.720
REMARK  6 active torsions:
REMARK  status: ('A' for Active; 'I' for Inactive)
REMARK    1  A    between atoms: C_8  and  N_9 
REMARK    2  A    between atoms: N_9  and  C_18 
REMARK    3  A    between atoms: C_12  and  N_13 
REMARK       I    between atoms: C_16  and  N_17 
REMARK    4  A    between atoms: C_18  and  C_19 
REMARK    5  A    between atoms: C_20  and  O_25 
REMARK    6  A    between atoms: C_23  and  O_27 
ROOT
HETATM    1  C   UNK N   1      21.630  18.437   3.336  0.00  0.00     0.055 A 
HETATM    2  C   UNK N   1      20.374  18.301   2.725  0.00  0.00     0.135 A 
HETATM    3  N   UNK N   1      19.927  19.274   1.887  0.00  0.00    -0.176 N 
ATOM      4  HN  UNK N   1      19.011  19.178   1.447  1.00  0.00     0.186 HD
HETATM    5  N   UNK N   1      19.623  17.189   2.956  0.00  0.00    -0.349 N 
ATOM      6  HN  UNK N   1      18.704  17.109   2.519  1.00  0.00     0.167 HD
HETATM    7  C   UNK N   1      20.068  16.177   3.758  0.00  0.00     0.119 A 
HETATM    8  C   UNK N   1      21.316  16.275   4.398  0.00  0.00     0.046 A 
HETATM    9  C   UNK N   1      22.086  17.429   4.181  0.00  0.00     0.050 A 
HETATM   10  C   UNK N   1      22.395  19.574   3.057  0.00  0.00     0.128 A 
HETATM   11  N   UNK N   1      21.909  20.516   2.208  0.00  0.00    -0.176 N 
ATOM     12  HN  UNK N   1      22.470  21.343   2.001  1.00  0.00     0.186 HD
HETATM   13  C   UNK N   1      20.686  20.375   1.628  0.00  0.00     0.679 A 
HETATM   14  N   UNK N   1      20.212  21.366   0.748  0.00  0.00    -0.234 N 
HETATM   15  H   UNK N   1      20.803  22.103   0.470  0.00  0.00     0.174 HD
HETATM   16  H   UNK N   1      19.288  21.321   0.410  0.00  0.00     0.174 HD
ENDROOT
BRANCH   8  17
HETATM   17  N   UNK N   1      21.847  15.204   5.187  0.00  0.00    -0.380 N 
HETATM   18  C   UNK N   1      21.359  13.871   4.931  0.00  0.00     0.150 C 
BRANCH  17  19
HETATM   19  C   UNK N   1      22.503  15.485   6.459  0.00  0.00     0.164 C 
BRANCH  19  20
HETATM   20  C   UNK N   1      21.851  14.958   7.727  0.00  0.00    -0.004 A 
HETATM   21  C   UNK N   1      22.361  13.863   8.470  0.00  0.00     0.076 A 
HETATM   22  C   UNK N   1      21.639  13.381   9.576  0.00  0.00     0.040 A 
HETATM   23  C   UNK N   1      20.413  13.936   9.923  0.00  0.00     0.039 A 
HETATM   24  C   UNK N   1      19.883  14.996   9.178  0.00  0.00     0.069 A 
HETATM   25  C   UNK N   1      20.611  15.506   8.093  0.00  0.00     0.048 A 
BRANCH  21  26
HETATM   26  O   UNK N   1      23.517  13.264   8.105  0.00  0.00    -0.355 OA
HETATM   27  C   UNK N   1      24.164  12.319   8.870  0.00  0.00     0.210 C 
ENDBRANCH  21  26
BRANCH  24  28
HETATM   28  O   UNK N   1      18.667  15.518   9.466  0.00  0.00    -0.356 OA
HETATM   29  C   UNK N   1      18.302  16.806   9.133  0.00  0.00     0.210 C 
ENDBRANCH  24  28
ENDBRANCH  19  20
ENDBRANCH  17  19
ENDBRANCH   8  17
BRANCH  10  30
HETATM   30  N   UNK N   1      23.675  19.744   3.630  0.00  0.00    -0.384 N 
HETATM   31  H   UNK N   1      24.277  18.973   3.739  0.00  0.00     0.157 HD
HETATM   32  H   UNK N   1      23.966  20.638   3.922  0.00  0.00     0.157 HD
ENDBRANCH  10  30
TORSDOF 6
ENDMDL
MODEL 4
REMARK VINA RESULT:      -7.1     10.271     12.942
REMARK  6 active torsions:
REMARK  status: ('A' for Active; 'I' for Inactive)
REMARK    1  A    between atoms: C_8  and  N_9 
REMARK    2  A    between atoms: N_9  and  C_18 
REMARK    3  A    between atoms: C_12  and  N_13 
REMARK       I    between atoms: C_16  and  N_17 
REMARK    4  A    between atoms: C_18  and  C_19 
REMARK    5  A    between atoms: C_20  and  O_25 
REMARK    6  A    between atoms: C_23  and  O_27 
ROOT
HETATM    1  C   UNK N   1      33.591  15.676   9.077  0.00  0.00     0.055 A 
HETATM    2  C   UNK N   1      34.274  16.846   9.443  0.00  0.00     0.135 A 
HETATM    3  N   UNK N   1      35.089  16.834  10.532  0.00  0.00    -0.176 N 
ATOM      4  HN  UNK N   1      35.581  17.686  10.802  1.00  0.00     0.186 HD
HETATM    5  N   UNK N   1      34.135  17.977   8.697  0.00  0.00    -0.349 N 
ATOM      6  HN  UNK N   1      34.623  18.826   8.983  1.00  0.00     0.167 HD
HETATM    7  C   UNK N   1      33.357  18.003   7.574  0.00  0.00     0.119 A 
HETATM    8  C   UNK N   1      32.647  16.857   7.175  0.00  0.00     0.046 A 
HETATM    9  C   UNK N   1      32.770  15.694   7.953  0.00  0.00     0.050 A 
HETATM   10  C   UNK N   1      33.776  14.520   9.842  0.00  0.00     0.128 A 
HETATM   11  N   UNK N   1      34.606  14.555  10.917  0.00  0.00    -0.176 N 
ATOM     12  HN  UNK N   1      34.744  13.710  11.472  1.00  0.00     0.186 HD
HETATM   13  C   UNK N   1      35.256  15.698  11.265  0.00  0.00     0.679 A 
HETATM   14  N   UNK N   1      36.114  15.701  12.382  0.00  0.00    -0.234 N 
HETATM   15  H   UNK N   1      36.326  14.858  12.843  0.00  0.00     0.174 HD
HETATM   16  H   UNK N   1      36.503  16.548  12.700  0.00  0.00     0.174 HD
ENDROOT
BRANCH   8  17
HETATM   17  N   UNK N   1      31.880  16.826   5.966  0.00  0.00    -0.380 N 
HETATM   18  C   UNK N   1      32.406  17.521   4.816  0.00  0.00     0.150 C 
BRANCH  17  19
HETATM   19  C   UNK N   1      30.460  16.497   6.004  0.00  0.00     0.164 C 
BRANCH  19  20
HETATM   20  C   UNK N   1      29.466  17.644   6.065  0.00  0.00    -0.004 A 
HETATM   21  C   UNK N   1      28.999  18.208   7.280  0.00  0.00     0.076 A 
HETATM   22  C   UNK N   1      28.005  19.202   7.244  0.00  0.00     0.040 A 
HETATM   23  C   UNK N   1      27.446  19.608   6.038  0.00  0.00     0.039 A 
HETATM   24  C   UNK N   1      27.877  19.036   4.834  0.00  0.00     0.069 A 
HETATM   25  C   UNK N   1      28.891  18.068   4.856  0.00  0.00     0.048 A 
BRANCH  21  26
HETATM   26  O   UNK N   1      29.479  17.777   8.468  0.00  0.00    -0.355 OA
HETATM   27  C   UNK N   1      30.097  18.595   9.387  0.00  0.00     0.210 C 
ENDBRANCH  21  26
BRANCH  24  28
HETATM   28  O   UNK N   1      27.310  19.378   3.652  0.00  0.00    -0.356 OA
HETATM   29  C   UNK N   1      26.412  20.416   3.520  0.00  0.00     0.210 C 
ENDBRANCH  24  28
ENDBRANCH  19  20
ENDBRANCH  17  19
ENDBRANCH   8  17
BRANCH  10  30
HETATM   30  N   UNK N   1      33.128  13.313   9.498  0.00  0.00    -0.384 N 
HETATM   31  H   UNK N   1      33.169  12.537  10.102  0.00  0.00     0.157 HD
HETATM   32  H   UNK N   1      32.631  13.249   8.650  0.00  0.00     0.157 HD
ENDBRANCH  10  30
TORSDOF 6
ENDMDL
MODEL 5
REMARK VINA RESULT:      -6.9      9.709     12.288
REMARK  6 active torsions:
REMARK  status: ('A' for Active; 'I' for Inactive)
REMARK    1  A    between atoms: C_8  and  N_9 
REMARK    2  A    between atoms: N_9  and  C_18 
REMARK    3  A    between atoms: C_12  and  N_13 
REMARK       I    between atoms: C_16  and  N_17 
REMARK    4  A    between atoms: C_18  and  C_19 
REMARK    5  A    between atoms: C_20  and  O_25 
REMARK    6  A    between atoms: C_23  and  O_27 
ROOT
HETATM    1  C   UNK N   1      33.443  16.693   8.255  0.00  0.00     0.055 A 
HETATM    2  C   UNK N   1      33.184  15.421   8.789  0.00  0.00     0.135 A 
HETATM    3  N   UNK N   1      33.825  15.025   9.921  0.00  0.00    -0.176 N 
ATOM      4  HN  UNK N   1      33.641  14.098  10.306  1.00  0.00     0.186 HD
HETATM    5  N   UNK N   1      32.279  14.602   8.185  0.00  0.00    -0.349 N 
ATOM      6  HN  UNK N   1      32.111  13.673   8.573  1.00  0.00     0.167 HD
HETATM    7  C   UNK N   1      31.589  14.993   7.072  0.00  0.00     0.119 A 
HETATM    8  C   UNK N   1      31.824  16.255   6.498  0.00  0.00     0.046 A 
HETATM    9  C   UNK N   1      32.772  17.095   7.104  0.00  0.00     0.050 A 
HETATM   10  C   UNK N   1      34.353  17.526   8.913  0.00  0.00     0.128 A 
HETATM   11  N   UNK N   1      34.964  17.089  10.045  0.00  0.00    -0.176 N 
ATOM     12  HN  UNK N   1      35.625  17.700  10.526  1.00  0.00     0.186 HD
HETATM   13  C   UNK N   1      34.709  15.851  10.547  0.00  0.00     0.679 A 
HETATM   14  N   UNK N   1      35.354  15.428  11.725  0.00  0.00    -0.234 N 
HETATM   15  H   UNK N   1      35.903  16.062  12.242  0.00  0.00     0.174 HD
HETATM   16  H   UNK N   1      35.254  14.498  12.033  0.00  0.00     0.174 HD
ENDROOT
BRANCH   8  17
HETATM   17  N   UNK N   1      31.069  16.727   5.377  0.00  0.00    -0.380 N 
HETATM   18  C   UNK N   1      31.727  17.611   4.444  0.00  0.00     0.150 C 
BRANCH  17  19
HETATM   19  C   UNK N   1      29.612  16.685   5.402  0.00  0.00     0.164 C 
BRANCH  19  20
HETATM   20  C   UNK N   1      28.866  17.991   5.619  0.00  0.00    -0.004 A 
HETATM   21  C   UNK N   1      28.575  18.519   6.903  0.00  0.00     0.076 A 
HETATM   22  C   UNK N   1      27.795  19.684   7.011  0.00  0.00     0.040 A 
HETATM   23  C   UNK N   1      27.272  20.298   5.880  0.00  0.00     0.039 A 
HETATM   24  C   UNK N   1      27.525  19.768   4.608  0.00  0.00     0.069 A 
HETATM   25  C   UNK N   1      28.330  18.626   4.487  0.00  0.00     0.048 A 
BRANCH  21  26
HETATM   26  O   UNK N   1      29.015  17.895   8.019  0.00  0.00    -0.355 OA
HETATM   27  C   UNK N   1      28.202  17.554   9.077  0.00  0.00     0.210 C 
ENDBRANCH  21  26
BRANCH  24  28
HETATM   28  O   UNK N   1      26.984  20.320   3.496  0.00  0.00    -0.356 OA
HETATM   29  C   UNK N   1      25.647  20.209   3.176  0.00  0.00     0.210 C 
ENDBRANCH  24  28
ENDBRANCH  19  20
ENDBRANCH  17  19
ENDBRANCH   8  17
BRANCH  10  30
HETATM   30  N   UNK N   1      34.629  18.823   8.426  0.00  0.00    -0.384 N 
HETATM   31  H   UNK N   1      35.462  19.003   7.935  0.00  0.00     0.157 HD
HETATM   32  H   UNK N   1      33.984  19.551   8.580  0.00  0.00     0.157 HD
ENDBRANCH  10  30
TORSDOF 6
ENDMDL
MODEL 6
REMARK VINA RESULT:      -6.9     11.989     14.911
REMARK  6 active torsions:
REMARK  status: ('A' for Active; 'I' for Inactive)
REMARK    1  A    between atoms: C_8  and  N_9 
REMARK    2  A    between atoms: N_9  and  C_18 
REMARK    3  A    between atoms: C_12  and  N_13 
REMARK       I    between atoms: C_16  and  N_17 
REMARK    4  A    between atoms: C_18  and  C_19 
REMARK    5  A    between atoms: C_20  and  O_25 
REMARK    6  A    between atoms: C_23  and  O_27 
ROOT
HETATM    1  C   UNK N   1      34.957  14.183  11.492  0.00  0.00     0.055 A 
HETATM    2  C   UNK N   1      35.692  15.271  11.988  0.00  0.00     0.135 A 
HETATM    3  N   UNK N   1      36.416  15.127  13.130  0.00  0.00    -0.176 N 
ATOM      4  HN  UNK N   1      36.945  15.919  13.495  1.00  0.00     0.186 HD
HETATM    5  N   UNK N   1      35.692  16.455  11.315  0.00  0.00    -0.349 N 
ATOM      6  HN  UNK N   1      36.216  17.244  11.695  1.00  0.00     0.167 HD
HETATM    7  C   UNK N   1      35.008  16.614  10.143  0.00  0.00     0.119 A 
HETATM    8  C   UNK N   1      34.252  15.553   9.614  0.00  0.00     0.046 A 
HETATM    9  C   UNK N   1      34.230  14.336  10.315  0.00  0.00     0.050 A 
HETATM   10  C   UNK N   1      34.999  12.970  12.185  0.00  0.00     0.128 A 
HETATM   11  N   UNK N   1      35.743  12.872  13.318  0.00  0.00    -0.176 N 
ATOM     12  HN  UNK N   1      35.776  11.984  13.821  1.00  0.00     0.186 HD
HETATM   13  C   UNK N   1      36.444  13.937  13.792  0.00  0.00     0.679 A 
HETATM   14  N   UNK N   1      37.210  13.802  14.966  0.00  0.00    -0.234 N 
HETATM   15  H   UNK N   1      37.324  12.917  15.382  0.00  0.00     0.174 HD
HETATM   16  H   UNK N   1      37.632  14.594  15.371  0.00  0.00     0.174 HD
ENDROOT
BRANCH   8  17
HETATM   17  N   UNK N   1      33.582  15.658   8.352  0.00  0.00    -0.380 N 
HETATM   18  C   UNK N   1      33.680  14.543   7.441  0.00  0.00     0.150 C 
BRANCH  17  19
HETATM   19  C   UNK N   1      33.199  16.965   7.831  0.00  0.00     0.164 C 
BRANCH  19  20
HETATM   20  C   UNK N   1      31.894  17.069   7.060  0.00  0.00    -0.004 A 
HETATM   21  C   UNK N   1      31.829  17.188   5.648  0.00  0.00     0.076 A 
HETATM   22  C   UNK N   1      30.582  17.377   5.026  0.00  0.00     0.040 A 
HETATM   23  C   UNK N   1      29.420  17.490   5.780  0.00  0.00     0.039 A 
HETATM   24  C   UNK N   1      29.475  17.407   7.177  0.00  0.00     0.069 A 
HETATM   25  C   UNK N   1      30.709  17.185   7.805  0.00  0.00     0.048 A 
BRANCH  21  26
HETATM   26  O   UNK N   1      32.956  17.151   4.902  0.00  0.00    -0.355 OA
HETATM   27  C   UNK N   1      33.261  16.134   4.025  0.00  0.00     0.210 C 
ENDBRANCH  21  26
BRANCH  24  28
HETATM   28  O   UNK N   1      28.363  17.566   7.934  0.00  0.00    -0.356 OA
HETATM   29  C   UNK N   1      28.370  17.470   9.310  0.00  0.00     0.210 C 
ENDBRANCH  24  28
ENDBRANCH  19  20
ENDBRANCH  17  19
ENDBRANCH   8  17
BRANCH  10  30
HETATM   30  N   UNK N   1      34.295  11.841  11.712  0.00  0.00    -0.384 N 
HETATM   31  H   UNK N   1      33.364  11.928  11.405  0.00  0.00     0.157 HD
HETATM   32  H   UNK N   1      34.739  10.962  11.687  0.00  0.00     0.157 HD
ENDBRANCH  10  30
TORSDOF 6
ENDMDL
MODEL 7
REMARK VINA RESULT:      -6.9     11.347     14.110
REMARK  6 active torsions:
REMARK  status: ('A' for Active; 'I' for Inactive)
REMARK    1  A    between atoms: C_8  and  N_9 
REMARK    2  A    between atoms: N_9  and  C_18 
REMARK    3  A    between atoms: C_12  and  N_13 
REMARK       I    between atoms: C_16  and  N_17 
REMARK    4  A    between atoms: C_18  and  C_19 
REMARK    5  A    between atoms: C_20  and  O_25 
REMARK    6  A    between atoms: C_23  and  O_27 
ROOT
HETATM    1  C   UNK N   1      34.632  14.723  10.624  0.00  0.00     0.055 A 
HETATM    2  C   UNK N   1      35.275  15.831  11.197  0.00  0.00     0.135 A 
HETATM    3  N   UNK N   1      36.011  15.669  12.329  0.00  0.00    -0.176 N 
ATOM      4  HN  UNK N   1      36.473  16.476  12.749  1.00  0.00     0.186 HD
HETATM    5  N   UNK N   1      35.176  17.055  10.606  0.00  0.00    -0.349 N 
ATOM      6  HN  UNK N   1      35.633  17.856  11.042  1.00  0.00     0.167 HD
HETATM    7  C   UNK N   1      34.479  17.236   9.445  0.00  0.00     0.119 A 
HETATM    8  C   UNK N   1      33.812  16.155   8.841  0.00  0.00     0.046 A 
HETATM    9  C   UNK N   1      33.893  14.895   9.457  0.00  0.00     0.050 A 
HETATM   10  C   UNK N   1      34.776  13.472  11.233  0.00  0.00     0.128 A 
HETATM   11  N   UNK N   1      35.527  13.359  12.359  0.00  0.00    -0.176 N 
ATOM     12  HN  UNK N   1      35.635  12.445  12.801  1.00  0.00     0.186 HD
HETATM   13  C   UNK N   1      36.138  14.443  12.908  0.00  0.00     0.679 A 
HETATM   14  N   UNK N   1      36.915  14.293  14.073  0.00  0.00    -0.234 N 
HETATM   15  H   UNK N   1      37.103  13.394  14.427  0.00  0.00     0.174 HD
HETATM   16  H   UNK N   1      37.271  15.088  14.533  0.00  0.00     0.174 HD
ENDROOT
BRANCH   8  17
HETATM   17  N   UNK N   1      33.134  16.291   7.587  0.00  0.00    -0.380 N 
HETATM   18  C   UNK N   1      33.544  17.362   6.711  0.00  0.00     0.150 C 
BRANCH  17  19
HETATM   19  C   UNK N   1      31.826  15.677   7.390  0.00  0.00     0.164 C 
BRANCH  19  20
HETATM   20  C   UNK N   1      30.703  16.552   6.857  0.00  0.00    -0.004 A 
HETATM   21  C   UNK N   1      29.962  17.449   7.667  0.00  0.00     0.076 A 
HETATM   22  C   UNK N   1      28.875  18.147   7.111  0.00  0.00     0.040 A 
HETATM   23  C   UNK N   1      28.495  17.938   5.791  0.00  0.00     0.039 A 
HETATM   24  C   UNK N   1      29.199  17.030   4.989  0.00  0.00     0.069 A 
HETATM   25  C   UNK N   1      30.305  16.354   5.525  0.00  0.00     0.048 A 
BRANCH  21  26
HETATM   26  O   UNK N   1      30.272  17.613   8.973  0.00  0.00    -0.355 OA
HETATM   27  C   UNK N   1      29.665  18.537   9.794  0.00  0.00     0.210 C 
ENDBRANCH  21  26
BRANCH  24  28
HETATM   28  O   UNK N   1      28.815  16.772   3.717  0.00  0.00    -0.356 OA
HETATM   29  C   UNK N   1      29.668  16.261   2.762  0.00  0.00     0.210 C 
ENDBRANCH  24  28
ENDBRANCH  19  20
ENDBRANCH  17  19
ENDBRANCH   8  17
BRANCH  10  30
HETATM   30  N   UNK N   1      34.168  12.324  10.680  0.00  0.00    -0.384 N 
HETATM   31  H   UNK N   1      33.384  12.411  10.092  0.00  0.00     0.157 HD
HETATM   32  H   UNK N   1      34.530  11.431  10.885  0.00  0.00     0.157 HD
ENDBRANCH  10  30
TORSDOF 6
ENDMDL
MODEL 8
REMARK VINA RESULT:      -6.5      1.504      2.376
REMARK  6 active torsions:
REMARK  status: ('A' for Active; 'I' for Inactive)
REMARK    1  A    between atoms: C_8  and  N_9 
REMARK    2  A    between atoms: N_9  and  C_18 
REMARK    3  A    between atoms: C_12  and  N_13 
REMARK       I    between atoms: C_16  and  N_17 
REMARK    4  A    between atoms: C_18  and  C_19 
REMARK    5  A    between atoms: C_20  and  O_25 
REMARK    6  A    between atoms: C_23  and  O_27 
ROOT
HETATM    1  C   UNK N   1      21.313  18.383   3.624  0.00  0.00     0.055 A 
HETATM    2  C   UNK N   1      20.075  18.327   2.965  0.00  0.00     0.135 A 
HETATM    3  N   UNK N   1      19.791  19.235   1.993  0.00  0.00    -0.176 N 
ATOM      4  HN  UNK N   1      18.888  19.199   1.519  1.00  0.00     0.186 HD
HETATM    5  N   UNK N   1      19.176  17.356   3.288  0.00  0.00    -0.349 N 
ATOM      6  HN  UNK N   1      18.273  17.336   2.814  1.00  0.00     0.167 HD
HETATM    7  C   UNK N   1      19.454  16.406   4.230  0.00  0.00     0.119 A 
HETATM    8  C   UNK N   1      20.679  16.429   4.921  0.00  0.00     0.046 A 
HETATM    9  C   UNK N   1      21.601  17.441   4.608  0.00  0.00     0.050 A 
HETATM   10  C   UNK N   1      22.230  19.371   3.252  0.00  0.00     0.128 A 
HETATM   11  N   UNK N   1      21.904  20.251   2.270  0.00  0.00    -0.176 N 
ATOM     12  HN  UNK N   1      22.575  20.969   1.997  1.00  0.00     0.186 HD
HETATM   13  C   UNK N   1      20.697  20.190   1.645  0.00  0.00     0.679 A 
HETATM   14  N   UNK N   1      20.390  21.114   0.627  0.00  0.00    -0.234 N 
HETATM   15  H   UNK N   1      21.082  21.730   0.295  0.00  0.00     0.174 HD
HETATM   16  H   UNK N   1      19.482  21.142   0.247  0.00  0.00     0.174 HD
ENDROOT
BRANCH   8  17
HETATM   17  N   UNK N   1      21.035  15.409   5.861  0.00  0.00    -0.380 N 
HETATM   18  C   UNK N   1      20.224  14.216   5.902  0.00  0.00     0.150 C 
BRANCH  17  19
HETATM   19  C   UNK N   1      21.880  15.728   7.006  0.00  0.00     0.164 C 
BRANCH  19  20
HETATM   20  C   UNK N   1      22.624  14.588   7.680  0.00  0.00    -0.004 A 
HETATM   21  C   UNK N   1      23.636  13.829   7.037  0.00  0.00     0.076 A 
HETATM   22  C   UNK N   1      24.203  12.728   7.703  0.00  0.00     0.040 A 
HETATM   23  C   UNK N   1      23.757  12.351   8.964  0.00  0.00     0.039 A 
HETATM   24  C   UNK N   1      22.737  13.073   9.596  0.00  0.00     0.069 A 
HETATM   25  C   UNK N   1      22.187  14.192   8.954  0.00  0.00     0.048 A 
BRANCH  21  26
HETATM   26  O   UNK N   1      24.034  14.137   5.782  0.00  0.00    -0.355 OA
HETATM   27  C   UNK N   1      23.791  13.340   4.685  0.00  0.00     0.210 C 
ENDBRANCH  21  26
BRANCH  24  28
HETATM   28  O   UNK N   1      22.251  12.693  10.802  0.00  0.00    -0.356 OA
HETATM   29  C   UNK N   1      20.927  12.367  11.010  0.00  0.00     0.210 C 
ENDBRANCH  24  28
ENDBRANCH  19  20
ENDBRANCH  17  19
ENDBRANCH   8  17
BRANCH  10  30
HETATM   30  N   UNK N   1      23.497  19.452   3.870  0.00  0.00    -0.384 N 
HETATM   31  H   UNK N   1      23.575  19.428   4.851  0.00  0.00     0.157 HD
HETATM   32  H   UNK N   1      24.308  19.531   3.316  0.00  0.00     0.157 HD
ENDBRANCH  10  30
TORSDOF 6
ENDMDL
MODEL 9
REMARK VINA RESULT:      -6.5      1.593      3.429
REMARK  6 active torsions:
REMARK  status: ('A' for Active; 'I' for Inactive)
REMARK    1  A    between atoms: C_8  and  N_9 
REMARK    2  A    between atoms: N_9  and  C_18 
REMARK    3  A    between atoms: C_12  and  N_13 
REMARK       I    between atoms: C_16  and  N_17 
REMARK    4  A    between atoms: C_18  and  C_19 
REMARK    5  A    between atoms: C_20  and  O_25 
REMARK    6  A    between atoms: C_23  and  O_27 
ROOT
HETATM    1  C   UNK N   1      21.052  17.526   2.881  0.00  0.00     0.055 A 
HETATM    2  C   UNK N   1      21.915  18.401   3.558  0.00  0.00     0.135 A 
HETATM    3  N   UNK N   1      21.861  19.734   3.295  0.00  0.00    -0.176 N 
ATOM      4  HN  UNK N   1      22.493  20.370   3.782  1.00  0.00     0.186 HD
HETATM    5  N   UNK N   1      22.785  17.915   4.486  0.00  0.00    -0.349 N 
ATOM      6  HN  UNK N   1      23.420  18.559   4.959  1.00  0.00     0.167 HD
HETATM    7  C   UNK N   1      22.830  16.586   4.801  0.00  0.00     0.119 A 
HETATM    8  C   UNK N   1      21.989  15.672   4.141  0.00  0.00     0.046 A 
HETATM    9  C   UNK N   1      21.105  16.164   3.167  0.00  0.00     0.050 A 
HETATM   10  C   UNK N   1      20.147  18.054   1.955  0.00  0.00     0.128 A 
HETATM   11  N   UNK N   1      20.125  19.394   1.731  0.00  0.00    -0.176 N 
ATOM     12  HN  UNK N   1      19.461  19.779   1.059  1.00  0.00     0.186 HD
HETATM   13  C   UNK N   1      20.973  20.230   2.389  0.00  0.00     0.679 A 
HETATM   14  N   UNK N   1      20.922  21.615   2.139  0.00  0.00    -0.234 N 
HETATM   15  H   UNK N   1      20.207  21.988   1.574  0.00  0.00     0.174 HD
HETATM   16  H   UNK N   1      21.601  22.210   2.531  0.00  0.00     0.174 HD
ENDROOT
BRANCH   8  17
HETATM   17  N   UNK N   1      21.956  14.285   4.495  0.00  0.00    -0.380 N 
HETATM   18  C   UNK N   1      22.767  13.373   3.725  0.00  0.00     0.150 C 
BRANCH  17  19
HETATM   19  C   UNK N   1      20.850  13.754   5.283  0.00  0.00     0.164 C 
BRANCH  19  20
HETATM   20  C   UNK N   1      20.841  14.036   6.776  0.00  0.00    -0.004 A 
HETATM   21  C   UNK N   1      21.247  13.089   7.751  0.00  0.00     0.076 A 
HETATM   22  C   UNK N   1      21.114  13.401   9.116  0.00  0.00     0.040 A 
HETATM   23  C   UNK N   1      20.551  14.606   9.519  0.00  0.00     0.039 A 
HETATM   24  C   UNK N   1      20.117  15.536   8.566  0.00  0.00     0.069 A 
HETATM   25  C   UNK N   1      20.276  15.249   7.203  0.00  0.00     0.048 A 
BRANCH  21  26
HETATM   26  O   UNK N   1      21.732  11.883   7.379  0.00  0.00    -0.355 OA
HETATM   27  C   UNK N   1      23.071  11.565   7.369  0.00  0.00     0.210 C 
ENDBRANCH  21  26
BRANCH  24  28
HETATM   28  O   UNK N   1      19.518  16.693   8.936  0.00  0.00    -0.356 OA
HETATM   29  C   UNK N   1      18.184  16.776   9.273  0.00  0.00     0.210 C 
ENDBRANCH  24  28
ENDBRANCH  19  20
ENDBRANCH  17  19
ENDBRANCH   8  17
BRANCH  10  30
HETATM   30  N   UNK N   1      19.243  17.215   1.267  0.00  0.00    -0.384 N 
HETATM   31  H   UNK N   1      18.581  16.683   1.765  0.00  0.00     0.157 HD
HETATM   32  H   UNK N   1      19.274  17.163   0.284  0.00  0.00     0.157 HD
ENDBRANCH  10  30
TORSDOF 6
ENDMDL
