MODEL 1
REMARK VINA RESULT:      -5.6      0.000      0.000
REMARK  9 active torsions:
REMARK  status: ('A' for Active; 'I' for Inactive)
REMARK    1  A    between atoms: C_3  and  C_8 
REMARK    2  A    between atoms: C_4  and  C_11 
REMARK    3  A    between atoms: C_5  and  C_15 
REMARK    4  A    between atoms: C_6  and  C_7 
REMARK    5  A    between atoms: C_6  and  O_10 
REMARK    6  A    between atoms: C_7  and  C_8 
REMARK    7  A    between atoms: C_11  and  C_12 
REMARK    8  A    between atoms: C_12  and  O_14 
REMARK    9  A    between atoms: C_15  and  N_16 
ROOT
HETATM    1  N   UNK N   1      30.444  17.394   5.005  0.00  0.00    -0.367 N 
HETATM    2  C   UNK N   1      29.910  17.370   6.239  0.00  0.00     0.096 A 
HETATM    3  C   UNK N   1      30.916  17.251   7.180  0.00  0.00    -0.034 A 
HETATM    4  C   UNK N   1      32.124  17.201   6.492  0.00  0.00    -0.016 A 
HETATM    5  C   UNK N   1      31.780  17.293   5.141  0.00  0.00     0.033 A 
HETATM    6  H   UNK N   1      29.948  17.472   4.158  0.00  0.00     0.165 HD
ENDROOT
BRANCH   3   7
HETATM    7  C   UNK N   1      30.703  17.192   8.653  0.00  0.00     0.051 C 
BRANCH   7   8
HETATM    8  C   UNK N   1      29.950  18.372   9.241  0.00  0.00     0.114 C 
BRANCH   8   9
HETATM    9  C   UNK N   1      28.486  18.067   9.329  0.00  0.00     0.139 C 
HETATM   10  O   UNK N   1      28.118  17.035   9.862  0.00  0.00    -0.650 OA
BRANCH   9  11
HETATM   11  O   UNK N   1      27.568  18.919   8.825  0.00  0.00    -0.776 OA
HETATM   12  H   UNK N   1      27.808  19.515   8.142  0.00  0.00     0.167 HD
ENDBRANCH   9  11
ENDBRANCH   8   9
ENDBRANCH   7   8
ENDBRANCH   3   7
BRANCH   4  13
HETATM   13  C   UNK N   1      33.558  17.074   6.991  0.00  0.00     0.151 C 
BRANCH  13  14
HETATM   14  C   UNK N   1      34.193  17.869   8.111  0.00  0.00     0.143 C 
HETATM   15  O   UNK N   1      34.895  18.822   7.819  0.00  0.00    -0.650 OA
BRANCH  14  16
HETATM   16  O   UNK N   1      34.021  17.573   9.407  0.00  0.00    -0.776 OA
HETATM   17  H   UNK N   1      33.822  16.694   9.665  0.00  0.00     0.167 HD
ENDBRANCH  14  16
ENDBRANCH  13  14
ENDBRANCH   4  13
BRANCH   5  18
HETATM   18  C   UNK N   1      32.673  17.292   3.930  0.00  0.00     0.169 C 
BRANCH  18  19
HETATM   19  N   UNK N   1      31.948  17.276   2.672  0.00  0.00    -0.425 N 
HETATM   20  H   UNK N   1      30.985  16.937   2.642  0.00  0.00     0.150 HD
HETATM   21  H   UNK N   1      32.400  17.603   1.819  0.00  0.00     0.150 HD
ENDBRANCH  18  19
ENDBRANCH   5  18
TORSDOF 9
ENDMDL
MODEL 2
REMARK VINA RESULT:      -5.4      1.558      4.629
REMARK  9 active torsions:
REMARK  status: ('A' for Active; 'I' for Inactive)
REMARK    1  A    between atoms: C_3  and  C_8 
REMARK    2  A    between atoms: C_4  and  C_11 
REMARK    3  A    between atoms: C_5  and  C_15 
REMARK    4  A    between atoms: C_6  and  C_7 
REMARK    5  A    between atoms: C_6  and  O_10 
REMARK    6  A    between atoms: C_7  and  C_8 
REMARK    7  A    between atoms: C_11  and  C_12 
REMARK    8  A    between atoms: C_12  and  O_14 
REMARK    9  A    between atoms: C_15  and  N_16 
ROOT
HETATM    1  N   UNK N   1      30.409  15.976   5.079  0.00  0.00    -0.367 N 
HETATM    2  C   UNK N   1      31.481  15.869   5.883  0.00  0.00     0.096 A 
HETATM    3  C   UNK N   1      31.296  16.644   7.013  0.00  0.00    -0.034 A 
HETATM    4  C   UNK N   1      30.051  17.255   6.897  0.00  0.00    -0.016 A 
HETATM    5  C   UNK N   1      29.537  16.809   5.677  0.00  0.00     0.033 A 
HETATM    6  H   UNK N   1      30.284  15.527   4.211  0.00  0.00     0.165 HD
ENDROOT
BRANCH   3   7
HETATM    7  C   UNK N   1      32.275  16.773   8.127  0.00  0.00     0.051 C 
BRANCH   7   8
HETATM    8  C   UNK N   1      32.799  18.179   8.363  0.00  0.00     0.114 C 
BRANCH   8   9
HETATM    9  C   UNK N   1      34.185  18.320   7.812  0.00  0.00     0.139 C 
HETATM   10  O   UNK N   1      34.988  19.036   8.384  0.00  0.00    -0.650 OA
BRANCH   9  11
HETATM   11  O   UNK N   1      34.557  17.664   6.692  0.00  0.00    -0.776 OA
HETATM   12  H   UNK N   1      35.113  16.912   6.753  0.00  0.00     0.167 HD
ENDBRANCH   9  11
ENDBRANCH   8   9
ENDBRANCH   7   8
ENDBRANCH   3   7
BRANCH   4  13
HETATM   13  C   UNK N   1      29.314  18.212   7.825  0.00  0.00     0.151 C 
BRANCH  13  14
HETATM   14  C   UNK N   1      28.654  17.858   9.140  0.00  0.00     0.143 C 
HETATM   15  O   UNK N   1      29.302  17.237   9.965  0.00  0.00    -0.650 OA
BRANCH  14  16
HETATM   16  O   UNK N   1      27.392  18.197   9.440  0.00  0.00    -0.776 OA
HETATM   17  H   UNK N   1      26.678  17.709   9.079  0.00  0.00     0.167 HD
ENDBRANCH  14  16
ENDBRANCH  13  14
ENDBRANCH   4  13
BRANCH   5  18
HETATM   18  C   UNK N   1      28.221  17.138   5.023  0.00  0.00     0.169 C 
BRANCH  18  19
HETATM   19  N   UNK N   1      28.349  18.007   3.866  0.00  0.00    -0.425 N 
HETATM   20  H   UNK N   1      27.545  18.171   3.259  0.00  0.00     0.150 HD
HETATM   21  H   UNK N   1      29.242  18.453   3.660  0.00  0.00     0.150 HD
ENDBRANCH  18  19
ENDBRANCH   5  18
TORSDOF 9
ENDMDL
MODEL 3
REMARK VINA RESULT:      -5.4      3.352      5.307
REMARK  9 active torsions:
REMARK  status: ('A' for Active; 'I' for Inactive)
REMARK    1  A    between atoms: C_3  and  C_8 
REMARK    2  A    between atoms: C_4  and  C_11 
REMARK    3  A    between atoms: C_5  and  C_15 
REMARK    4  A    between atoms: C_6  and  C_7 
REMARK    5  A    between atoms: C_6  and  O_10 
REMARK    6  A    between atoms: C_7  and  C_8 
REMARK    7  A    between atoms: C_11  and  C_12 
REMARK    8  A    between atoms: C_12  and  O_14 
REMARK    9  A    between atoms: C_15  and  N_16 
ROOT
HETATM    1  N   UNK N   1      32.150  14.186   7.682  0.00  0.00    -0.367 N 
HETATM    2  C   UNK N   1      33.252  13.612   8.195  0.00  0.00     0.096 A 
HETATM    3  C   UNK N   1      34.071  14.583   8.741  0.00  0.00    -0.034 A 
HETATM    4  C   UNK N   1      33.442  15.810   8.555  0.00  0.00    -0.016 A 
HETATM    5  C   UNK N   1      32.249  15.512   7.891  0.00  0.00     0.033 A 
HETATM    6  H   UNK N   1      31.405  13.721   7.235  0.00  0.00     0.165 HD
ENDROOT
BRANCH   3   7
HETATM    7  C   UNK N   1      35.381  14.321   9.400  0.00  0.00     0.051 C 
BRANCH   7   8
HETATM    8  C   UNK N   1      35.318  14.141  10.906  0.00  0.00     0.114 C 
BRANCH   8   9
HETATM    9  C   UNK N   1      36.094  15.221  11.595  0.00  0.00     0.139 C 
HETATM   10  O   UNK N   1      36.116  15.263  12.813  0.00  0.00    -0.650 OA
BRANCH   9  11
HETATM   11  O   UNK N   1      36.771  16.150  10.887  0.00  0.00    -0.776 OA
HETATM   12  H   UNK N   1      36.780  17.043  11.173  0.00  0.00     0.167 HD
ENDBRANCH   9  11
ENDBRANCH   8   9
ENDBRANCH   7   8
ENDBRANCH   3   7
BRANCH   4  13
HETATM   13  C   UNK N   1      33.863  17.222   8.943  0.00  0.00     0.151 C 
BRANCH  13  14
HETATM   14  C   UNK N   1      34.560  18.229   8.054  0.00  0.00     0.143 C 
HETATM   15  O   UNK N   1      34.438  18.116   6.846  0.00  0.00    -0.650 OA
BRANCH  14  16
HETATM   16  O   UNK N   1      35.303  19.237   8.532  0.00  0.00    -0.776 OA
HETATM   17  H   UNK N   1      35.529  19.262   9.441  0.00  0.00     0.167 HD
ENDBRANCH  14  16
ENDBRANCH  13  14
ENDBRANCH   4  13
BRANCH   5  18
HETATM   18  C   UNK N   1      31.161  16.444   7.428  0.00  0.00     0.169 C 
BRANCH  18  19
HETATM   19  N   UNK N   1      31.490  17.161   6.209  0.00  0.00    -0.425 N 
HETATM   20  H   UNK N   1      30.751  17.600   5.659  0.00  0.00     0.150 HD
HETATM   21  H   UNK N   1      32.461  17.226   5.903  0.00  0.00     0.150 HD
ENDBRANCH  18  19
ENDBRANCH   5  18
TORSDOF 9
ENDMDL
MODEL 4
REMARK VINA RESULT:      -5.4     14.698     16.252
REMARK  9 active torsions:
REMARK  status: ('A' for Active; 'I' for Inactive)
REMARK    1  A    between atoms: C_3  and  C_8 
REMARK    2  A    between atoms: C_4  and  C_11 
REMARK    3  A    between atoms: C_5  and  C_15 
REMARK    4  A    between atoms: C_6  and  C_7 
REMARK    5  A    between atoms: C_6  and  O_10 
REMARK    6  A    between atoms: C_7  and  C_8 
REMARK    7  A    between atoms: C_11  and  C_12 
REMARK    8  A    between atoms: C_12  and  O_14 
REMARK    9  A    between atoms: C_15  and  N_16 
ROOT
HETATM    1  N   UNK N   1      25.692  24.927  -8.751  0.00  0.00    -0.367 N 
HETATM    2  C   UNK N   1      25.889  26.145  -8.216  0.00  0.00     0.096 A 
HETATM    3  C   UNK N   1      26.066  26.030  -6.850  0.00  0.00    -0.034 A 
HETATM    4  C   UNK N   1      25.973  24.679  -6.531  0.00  0.00    -0.016 A 
HETATM    5  C   UNK N   1      25.740  24.032  -7.747  0.00  0.00     0.033 A 
HETATM    6  H   UNK N   1      25.541  24.727  -9.704  0.00  0.00     0.165 HD
ENDROOT
BRANCH   3   7
HETATM    7  C   UNK N   1      26.308  27.171  -5.923  0.00  0.00     0.051 C 
BRANCH   7   8
HETATM    8  C   UNK N   1      25.152  27.504  -4.997  0.00  0.00     0.114 C 
BRANCH   8   9
HETATM    9  C   UNK N   1      25.656  28.155  -3.746  0.00  0.00     0.139 C 
HETATM   10  O   UNK N   1      25.872  27.474  -2.759  0.00  0.00    -0.650 OA
BRANCH   9  11
HETATM   11  O   UNK N   1      25.873  29.487  -3.695  0.00  0.00    -0.776 OA
HETATM   12  H   UNK N   1      26.299  29.863  -2.949  0.00  0.00     0.167 HD
ENDBRANCH   9  11
ENDBRANCH   8   9
ENDBRANCH   7   8
ENDBRANCH   3   7
BRANCH   4  13
HETATM   13  C   UNK N   1      26.084  23.954  -5.196  0.00  0.00     0.151 C 
BRANCH  13  14
HETATM   14  C   UNK N   1      26.997  24.322  -4.046  0.00  0.00     0.143 C 
HETATM   15  O   UNK N   1      28.188  24.452  -4.271  0.00  0.00    -0.650 OA
BRANCH  14  16
HETATM   16  O   UNK N   1      26.557  24.511  -2.794  0.00  0.00    -0.776 OA
HETATM   17  H   UNK N   1      26.885  23.979  -2.096  0.00  0.00     0.167 HD
ENDBRANCH  14  16
ENDBRANCH  13  14
ENDBRANCH   4  13
BRANCH   5  18
HETATM   18  C   UNK N   1      25.555  22.563  -8.022  0.00  0.00     0.169 C 
BRANCH  18  19
HETATM   19  N   UNK N   1      24.220  22.080  -7.716  0.00  0.00    -0.425 N 
HETATM   20  H   UNK N   1      23.478  22.740  -7.481  0.00  0.00     0.150 HD
HETATM   21  H   UNK N   1      24.024  21.079  -7.737  0.00  0.00     0.150 HD
ENDBRANCH  18  19
ENDBRANCH   5  18
TORSDOF 9
ENDMDL
MODEL 5
REMARK VINA RESULT:      -5.4      2.993      4.362
REMARK  9 active torsions:
REMARK  status: ('A' for Active; 'I' for Inactive)
REMARK    1  A    between atoms: C_3  and  C_8 
REMARK    2  A    between atoms: C_4  and  C_11 
REMARK    3  A    between atoms: C_5  and  C_15 
REMARK    4  A    between atoms: C_6  and  C_7 
REMARK    5  A    between atoms: C_6  and  O_10 
REMARK    6  A    between atoms: C_7  and  C_8 
REMARK    7  A    between atoms: C_11  and  C_12 
REMARK    8  A    between atoms: C_12  and  O_14 
REMARK    9  A    between atoms: C_15  and  N_16 
ROOT
HETATM    1  N   UNK N   1      28.776  17.274   7.151  0.00  0.00    -0.367 N 
HETATM    2  C   UNK N   1      29.742  17.342   8.084  0.00  0.00     0.096 A 
HETATM    3  C   UNK N   1      30.962  17.025   7.515  0.00  0.00    -0.034 A 
HETATM    4  C   UNK N   1      30.734  16.749   6.171  0.00  0.00    -0.016 A 
HETATM    5  C   UNK N   1      29.359  16.918   5.991  0.00  0.00     0.033 A 
HETATM    6  H   UNK N   1      27.817  17.453   7.291  0.00  0.00     0.165 HD
ENDROOT
BRANCH   3   7
HETATM    7  C   UNK N   1      32.260  16.995   8.245  0.00  0.00     0.051 C 
BRANCH   7   8
HETATM    8  C   UNK N   1      32.903  18.352   8.469  0.00  0.00     0.114 C 
BRANCH   8   9
HETATM    9  C   UNK N   1      34.276  18.385   7.872  0.00  0.00     0.139 C 
HETATM   10  O   UNK N   1      35.158  19.013   8.430  0.00  0.00    -0.650 OA
BRANCH   9  11
HETATM   11  O   UNK N   1      34.551  17.729   6.724  0.00  0.00    -0.776 OA
HETATM   12  H   UNK N   1      33.867  17.278   6.268  0.00  0.00     0.167 HD
ENDBRANCH   9  11
ENDBRANCH   8   9
ENDBRANCH   7   8
ENDBRANCH   3   7
BRANCH   4  13
HETATM   13  C   UNK N   1      31.689  16.346   5.054  0.00  0.00     0.151 C 
BRANCH  13  14
HETATM   14  C   UNK N   1      32.224  17.245   3.960  0.00  0.00     0.143 C 
HETATM   15  O   UNK N   1      33.233  17.892   4.185  0.00  0.00    -0.650 OA
BRANCH  14  16
HETATM   16  O   UNK N   1      31.641  17.362   2.759  0.00  0.00    -0.776 OA
HETATM   17  H   UNK N   1      31.859  16.763   2.072  0.00  0.00     0.167 HD
ENDBRANCH  14  16
ENDBRANCH  13  14
ENDBRANCH   4  13
BRANCH   5  18
HETATM   18  C   UNK N   1      28.537  16.755   4.740  0.00  0.00     0.169 C 
BRANCH  18  19
HETATM   19  N   UNK N   1      28.646  17.876   3.823  0.00  0.00    -0.425 N 
HETATM   20  H   UNK N   1      28.037  18.687   3.934  0.00  0.00     0.150 HD
HETATM   21  H   UNK N   1      29.331  17.852   3.069  0.00  0.00     0.150 HD
ENDBRANCH  18  19
ENDBRANCH   5  18
TORSDOF 9
ENDMDL
MODEL 6
REMARK VINA RESULT:      -5.4      8.545     10.924
REMARK  9 active torsions:
REMARK  status: ('A' for Active; 'I' for Inactive)
REMARK    1  A    between atoms: C_3  and  C_8 
REMARK    2  A    between atoms: C_4  and  C_11 
REMARK    3  A    between atoms: C_5  and  C_15 
REMARK    4  A    between atoms: C_6  and  C_7 
REMARK    5  A    between atoms: C_6  and  O_10 
REMARK    6  A    between atoms: C_7  and  C_8 
REMARK    7  A    between atoms: C_11  and  C_12 
REMARK    8  A    between atoms: C_12  and  O_14 
REMARK    9  A    between atoms: C_15  and  N_16 
ROOT
HETATM    1  N   UNK N   1      22.233  17.356   4.006  0.00  0.00    -0.367 N 
HETATM    2  C   UNK N   1      23.403  18.018   4.040  0.00  0.00     0.096 A 
HETATM    3  C   UNK N   1      23.233  19.293   3.535  0.00  0.00    -0.034 A 
HETATM    4  C   UNK N   1      21.895  19.421   3.174  0.00  0.00    -0.016 A 
HETATM    5  C   UNK N   1      21.313  18.190   3.486  0.00  0.00     0.033 A 
HETATM    6  H   UNK N   1      22.078  16.431   4.307  0.00  0.00     0.165 HD
ENDROOT
BRANCH   3   7
HETATM    7  C   UNK N   1      24.311  20.314   3.416  0.00  0.00     0.051 C 
BRANCH   7   8
HETATM    8  C   UNK N   1      25.724  19.775   3.548  0.00  0.00     0.114 C 
BRANCH   8   9
HETATM    9  C   UNK N   1      26.314  20.172   4.866  0.00  0.00     0.139 C 
HETATM   10  O   UNK N   1      27.326  20.850   4.891  0.00  0.00    -0.650 OA
BRANCH   9  11
HETATM   11  O   UNK N   1      25.741  19.790   6.027  0.00  0.00    -0.776 OA
HETATM   12  H   UNK N   1      24.812  19.857   6.135  0.00  0.00     0.167 HD
ENDBRANCH   9  11
ENDBRANCH   8   9
ENDBRANCH   7   8
ENDBRANCH   3   7
BRANCH   4  13
HETATM   13  C   UNK N   1      21.128  20.589   2.567  0.00  0.00     0.151 C 
BRANCH  13  14
HETATM   14  C   UNK N   1      20.804  20.789   1.102  0.00  0.00     0.143 C 
HETATM   15  O   UNK N   1      20.696  21.929   0.684  0.00  0.00    -0.650 OA
BRANCH  14  16
HETATM   16  O   UNK N   1      20.632  19.772   0.246  0.00  0.00    -0.776 OA
HETATM   17  H   UNK N   1      20.131  19.023   0.503  0.00  0.00     0.167 HD
ENDBRANCH  14  16
ENDBRANCH  13  14
ENDBRANCH   4  13
BRANCH   5  18
HETATM   18  C   UNK N   1      19.886  17.743   3.313  0.00  0.00     0.169 C 
BRANCH  18  19
HETATM   19  N   UNK N   1      19.548  17.392   1.945  0.00  0.00    -0.425 N 
HETATM   20  H   UNK N   1      18.576  17.425   1.634  0.00  0.00     0.150 HD
HETATM   21  H   UNK N   1      20.282  17.113   1.295  0.00  0.00     0.150 HD
ENDBRANCH  18  19
ENDBRANCH   5  18
TORSDOF 9
ENDMDL
MODEL 7
REMARK VINA RESULT:      -5.3      2.018      5.043
REMARK  9 active torsions:
REMARK  status: ('A' for Active; 'I' for Inactive)
REMARK    1  A    between atoms: C_3  and  C_8 
REMARK    2  A    between atoms: C_4  and  C_11 
REMARK    3  A    between atoms: C_5  and  C_15 
REMARK    4  A    between atoms: C_6  and  C_7 
REMARK    5  A    between atoms: C_6  and  O_10 
REMARK    6  A    between atoms: C_7  and  C_8 
REMARK    7  A    between atoms: C_11  and  C_12 
REMARK    8  A    between atoms: C_12  and  O_14 
REMARK    9  A    between atoms: C_15  and  N_16 
ROOT
HETATM    1  N   UNK N   1      30.514  15.617   5.957  0.00  0.00    -0.367 N 
HETATM    2  C   UNK N   1      31.537  16.167   6.634  0.00  0.00     0.096 A 
HETATM    3  C   UNK N   1      31.060  17.141   7.491  0.00  0.00    -0.034 A 
HETATM    4  C   UNK N   1      29.678  17.191   7.334  0.00  0.00    -0.016 A 
HETATM    5  C   UNK N   1      29.384  16.225   6.369  0.00  0.00     0.033 A 
HETATM    6  H   UNK N   1      30.578  14.901   5.284  0.00  0.00     0.165 HD
ENDROOT
BRANCH   3   7
HETATM    7  C   UNK N   1      31.904  17.964   8.401  0.00  0.00     0.051 C 
BRANCH   7   8
HETATM    8  C   UNK N   1      33.307  17.431   8.633  0.00  0.00     0.114 C 
BRANCH   8   9
HETATM    9  C   UNK N   1      34.303  18.220   7.841  0.00  0.00     0.139 C 
HETATM   10  O   UNK N   1      34.970  19.075   8.396  0.00  0.00    -0.650 OA
BRANCH   9  11
HETATM   11  O   UNK N   1      34.474  17.997   6.520  0.00  0.00    -0.776 OA
HETATM   12  H   UNK N   1      34.560  18.721   5.930  0.00  0.00     0.167 HD
ENDBRANCH   9  11
ENDBRANCH   8   9
ENDBRANCH   7   8
ENDBRANCH   3   7
BRANCH   4  13
HETATM   13  C   UNK N   1      28.623  18.061   8.007  0.00  0.00     0.151 C 
BRANCH  13  14
HETATM   14  C   UNK N   1      27.882  19.222   7.380  0.00  0.00     0.143 C 
HETATM   15  O   UNK N   1      28.086  19.472   6.204  0.00  0.00    -0.650 OA
BRANCH  14  16
HETATM   16  O   UNK N   1      27.012  19.985   8.056  0.00  0.00    -0.776 OA
HETATM   17  H   UNK N   1      26.357  19.586   8.594  0.00  0.00     0.167 HD
ENDBRANCH  14  16
ENDBRANCH  13  14
ENDBRANCH   4  13
BRANCH   5  18
HETATM   18  C   UNK N   1      28.050  15.830   5.794  0.00  0.00     0.169 C 
BRANCH  18  19
HETATM   19  N   UNK N   1      27.565  16.741   4.772  0.00  0.00    -0.425 N 
HETATM   20  H   UNK N   1      26.727  17.299   4.941  0.00  0.00     0.150 HD
HETATM   21  H   UNK N   1      28.062  16.823   3.886  0.00  0.00     0.150 HD
ENDBRANCH  18  19
ENDBRANCH   5  18
TORSDOF 9
ENDMDL
MODEL 8
REMARK VINA RESULT:      -5.2      3.436      5.873
REMARK  9 active torsions:
REMARK  status: ('A' for Active; 'I' for Inactive)
REMARK    1  A    between atoms: C_3  and  C_8 
REMARK    2  A    between atoms: C_4  and  C_11 
REMARK    3  A    between atoms: C_5  and  C_15 
REMARK    4  A    between atoms: C_6  and  C_7 
REMARK    5  A    between atoms: C_6  and  O_10 
REMARK    6  A    between atoms: C_7  and  C_8 
REMARK    7  A    between atoms: C_11  and  C_12 
REMARK    8  A    between atoms: C_12  and  O_14 
REMARK    9  A    between atoms: C_15  and  N_16 
ROOT
HETATM    1  N   UNK N   1      30.999  17.776   8.904  0.00  0.00    -0.367 N 
HETATM    2  C   UNK N   1      31.984  17.491   8.034  0.00  0.00     0.096 A 
HETATM    3  C   UNK N   1      31.439  17.081   6.831  0.00  0.00    -0.034 A 
HETATM    4  C   UNK N   1      30.055  17.117   6.968  0.00  0.00    -0.016 A 
HETATM    5  C   UNK N   1      29.828  17.555   8.275  0.00  0.00     0.033 A 
HETATM    6  H   UNK N   1      31.112  18.089   9.830  0.00  0.00     0.165 HD
ENDROOT
BRANCH   3   7
HETATM    7  C   UNK N   1      32.226  16.683   5.631  0.00  0.00     0.051 C 
BRANCH   7   8
HETATM    8  C   UNK N   1      32.193  17.676   4.482  0.00  0.00     0.114 C 
BRANCH   8   9
HETATM    9  C   UNK N   1      31.951  16.967   3.185  0.00  0.00     0.139 C 
HETATM   10  O   UNK N   1      32.889  16.467   2.590  0.00  0.00    -0.650 OA
BRANCH   9  11
HETATM   11  O   UNK N   1      30.708  16.874   2.665  0.00  0.00    -0.776 OA
HETATM   12  H   UNK N   1      30.324  16.032   2.519  0.00  0.00     0.167 HD
ENDBRANCH   9  11
ENDBRANCH   8   9
ENDBRANCH   7   8
ENDBRANCH   3   7
BRANCH   4  13
HETATM   13  C   UNK N   1      28.941  16.777   5.986  0.00  0.00     0.151 C 
BRANCH  13  14
HETATM   14  C   UNK N   1      28.158  17.758   5.141  0.00  0.00     0.143 C 
HETATM   15  O   UNK N   1      27.066  18.124   5.541  0.00  0.00    -0.650 OA
BRANCH  14  16
HETATM   16  O   UNK N   1      28.608  18.242   3.975  0.00  0.00    -0.776 OA
HETATM   17  H   UNK N   1      28.089  18.156   3.199  0.00  0.00     0.167 HD
ENDBRANCH  14  16
ENDBRANCH  13  14
ENDBRANCH   4  13
BRANCH   5  18
HETATM   18  C   UNK N   1      28.522  17.785   8.988  0.00  0.00     0.169 C 
BRANCH  18  19
HETATM   19  N   UNK N   1      27.806  18.959   8.523  0.00  0.00    -0.425 N 
HETATM   20  H   UNK N   1      28.103  19.890   8.820  0.00  0.00     0.150 HD
HETATM   21  H   UNK N   1      27.006  18.854   7.900  0.00  0.00     0.150 HD
ENDBRANCH  18  19
ENDBRANCH   5  18
TORSDOF 9
ENDMDL
MODEL 9
REMARK VINA RESULT:      -5.2      9.059     11.290
REMARK  9 active torsions:
REMARK  status: ('A' for Active; 'I' for Inactive)
REMARK    1  A    between atoms: C_3  and  C_8 
REMARK    2  A    between atoms: C_4  and  C_11 
REMARK    3  A    between atoms: C_5  and  C_15 
REMARK    4  A    between atoms: C_6  and  C_7 
REMARK    5  A    between atoms: C_6  and  O_10 
REMARK    6  A    between atoms: C_7  and  C_8 
REMARK    7  A    between atoms: C_11  and  C_12 
REMARK    8  A    between atoms: C_12  and  O_14 
REMARK    9  A    between atoms: C_15  and  N_16 
ROOT
HETATM    1  N   UNK N   1      24.109  16.783   4.001  0.00  0.00    -0.367 N 
HETATM    2  C   UNK N   1      23.148  15.929   3.607  0.00  0.00     0.096 A 
HETATM    3  C   UNK N   1      21.969  16.620   3.398  0.00  0.00    -0.034 A 
HETATM    4  C   UNK N   1      22.217  17.960   3.678  0.00  0.00    -0.016 A 
HETATM    5  C   UNK N   1      23.563  18.013   4.049  0.00  0.00     0.033 A 
HETATM    6  H   UNK N   1      25.042  16.551   4.216  0.00  0.00     0.165 HD
ENDROOT
BRANCH   3   7
HETATM    7  C   UNK N   1      20.688  16.004   2.955  0.00  0.00     0.051 C 
BRANCH   7   8
HETATM    8  C   UNK N   1      20.553  15.808   1.455  0.00  0.00     0.114 C 
BRANCH   8   9
HETATM    9  C   UNK N   1      19.952  17.025   0.821  0.00  0.00     0.139 C 
HETATM   10  O   UNK N   1      20.393  17.429  -0.240  0.00  0.00    -0.650 OA
BRANCH   9  11
HETATM   11  O   UNK N   1      18.929  17.682   1.409  0.00  0.00    -0.776 OA
HETATM   12  H   UNK N   1      18.540  17.339   2.190  0.00  0.00     0.167 HD
ENDBRANCH   9  11
ENDBRANCH   8   9
ENDBRANCH   7   8
ENDBRANCH   3   7
BRANCH   4  13
HETATM   13  C   UNK N   1      21.307  19.181   3.626  0.00  0.00     0.151 C 
BRANCH  13  14
HETATM   14  C   UNK N   1      21.291  20.245   2.550  0.00  0.00     0.143 C 
HETATM   15  O   UNK N   1      22.024  21.210   2.680  0.00  0.00    -0.650 OA
BRANCH  14  16
HETATM   16  O   UNK N   1      20.508  20.176   1.464  0.00  0.00    -0.776 OA
HETATM   17  H   UNK N   1      20.696  20.710   0.717  0.00  0.00     0.167 HD
ENDBRANCH  14  16
ENDBRANCH  13  14
ENDBRANCH   4  13
BRANCH   5  18
HETATM   18  C   UNK N   1      24.390  19.201   4.460  0.00  0.00     0.169 C 
BRANCH  18  19
HETATM   19  N   UNK N   1      25.457  18.874   5.390  0.00  0.00    -0.425 N 
HETATM   20  H   UNK N   1      25.245  18.719   6.376  0.00  0.00     0.150 HD
HETATM   21  H   UNK N   1      26.417  18.798   5.056  0.00  0.00     0.150 HD
ENDBRANCH  18  19
ENDBRANCH   5  18
TORSDOF 9
ENDMDL
