MODEL 1
REMARK VINA RESULT:      -6.5      0.000      0.000
REMARK  7 active torsions:
REMARK  status: ('A' for Active; 'I' for Inactive)
REMARK    1  A    between atoms: C_4  and  C_7 
REMARK    2  A    between atoms: C_5  and  O_8 
REMARK    3  A    between atoms: P_9  and  O_8 
REMARK    4  A    between atoms: P_9  and  O_10 
REMARK    5  A    between atoms: P_9  and  O_19 
REMARK    6  A    between atoms: O_10  and  C_12 
REMARK    7  A    between atoms: C_12  and  C_13 
ROOT
HETATM    1  P   UNK N   1      34.749  15.179  10.333  0.00  0.00     0.398 P 
HETATM    2  O   UNK N   1      35.129  16.541  10.973  0.00  0.00    -0.631 OA
ENDROOT
BRANCH   1   3
HETATM    3  O   UNK N   1      33.581  16.052   9.411  0.00  0.00    -0.254 OA
BRANCH   3   4
HETATM    4  C   UNK N   1      33.549  16.146   8.057  0.00  0.00     0.094 A 
HETATM    5  C   UNK N   1      33.799  17.391   7.434  0.00  0.00     0.035 A 
HETATM    6  C   UNK N   1      33.768  17.486   6.040  0.00  0.00     0.017 A 
HETATM    7  C   UNK N   1      33.495  16.362   5.257  0.00  0.00     0.001 A 
HETATM    8  C   UNK N   1      33.248  15.132   5.865  0.00  0.00     0.003 A 
HETATM    9  C   UNK N   1      33.271  15.023   7.257  0.00  0.00     0.038 A 
BRANCH   5  10
HETATM   10  C   UNK N   1      34.085  18.620   8.204  0.00  0.00     0.272 C 
HETATM   11  O   UNK N   1      35.222  19.031   8.367  0.00  0.00    -0.301 OA
ENDBRANCH   5  10
ENDBRANCH   3   4
ENDBRANCH   1   3
BRANCH   1  12
HETATM   12  O   UNK N   1      34.546  14.658  11.981  0.00  0.00    -0.292 OA
BRANCH  12  13
HETATM   13  C   UNK N   1      35.808  14.221  12.398  0.00  0.00     0.219 C 
BRANCH  13  14
HETATM   14  C   UNK N   1      35.738  13.733  13.803  0.00  0.00    -0.034 A 
HETATM   15  C   UNK N   1      34.838  12.716  14.142  0.00  0.00     0.009 A 
HETATM   16  C   UNK N   1      34.766  12.258  15.461  0.00  0.00     0.001 A 
HETATM   17  C   UNK N   1      35.594  12.814  16.440  0.00  0.00     0.000 A 
HETATM   18  C   UNK N   1      36.497  13.827  16.103  0.00  0.00     0.001 A 
HETATM   19  C   UNK N   1      36.568  14.286  14.785  0.00  0.00     0.009 A 
ENDBRANCH  13  14
ENDBRANCH  12  13
ENDBRANCH   1  12
BRANCH   1  20
HETATM   20  O   UNK N   1      33.097  14.968  10.835  0.00  0.00    -0.307 OA
HETATM   21  H   UNK N   1      32.333  15.348  10.375  0.00  0.00     0.222 HD
ENDBRANCH   1  20
TORSDOF 7
ENDMDL
MODEL 2
REMARK VINA RESULT:      -6.3      2.405      3.613
REMARK  7 active torsions:
REMARK  status: ('A' for Active; 'I' for Inactive)
REMARK    1  A    between atoms: C_4  and  C_7 
REMARK    2  A    between atoms: C_5  and  O_8 
REMARK    3  A    between atoms: P_9  and  O_8 
REMARK    4  A    between atoms: P_9  and  O_10 
REMARK    5  A    between atoms: P_9  and  O_19 
REMARK    6  A    between atoms: O_10  and  C_12 
REMARK    7  A    between atoms: C_12  and  C_13 
ROOT
HETATM    1  P   UNK N   1      35.987  12.978  13.032  0.00  0.00     0.398 P 
HETATM    2  O   UNK N   1      36.224  14.255  13.883  0.00  0.00    -0.631 OA
ENDROOT
BRANCH   1   3
HETATM    3  O   UNK N   1      34.839  13.907  12.139  0.00  0.00    -0.254 OA
BRANCH   3   4
HETATM    4  C   UNK N   1      34.790  14.021  10.787  0.00  0.00     0.094 A 
HETATM    5  C   UNK N   1      35.015  15.279  10.181  0.00  0.00     0.035 A 
HETATM    6  C   UNK N   1      34.966  15.395   8.789  0.00  0.00     0.017 A 
HETATM    7  C   UNK N   1      34.701  14.279   7.992  0.00  0.00     0.001 A 
HETATM    8  C   UNK N   1      34.478  13.036   8.584  0.00  0.00     0.003 A 
HETATM    9  C   UNK N   1      34.519  12.906   9.974  0.00  0.00     0.038 A 
BRANCH   5  10
HETATM   10  C   UNK N   1      35.292  16.500  10.967  0.00  0.00     0.272 C 
HETATM   11  O   UNK N   1      35.856  17.467  10.482  0.00  0.00    -0.301 OA
ENDBRANCH   5  10
ENDBRANCH   3   4
ENDBRANCH   1   3
BRANCH   1  12
HETATM   12  O   UNK N   1      35.692  12.218  14.569  0.00  0.00    -0.292 OA
BRANCH  12  13
HETATM   13  C   UNK N   1      35.275  13.243  15.425  0.00  0.00     0.219 C 
BRANCH  13  14
HETATM   14  C   UNK N   1      35.317  12.773  16.837  0.00  0.00    -0.034 A 
HETATM   15  C   UNK N   1      35.124  13.685  17.880  0.00  0.00     0.009 A 
HETATM   16  C   UNK N   1      35.165  13.248  19.208  0.00  0.00     0.001 A 
HETATM   17  C   UNK N   1      35.398  11.899  19.493  0.00  0.00     0.000 A 
HETATM   18  C   UNK N   1      35.588  10.985  18.452  0.00  0.00     0.001 A 
HETATM   19  C   UNK N   1      35.548  11.422  17.124  0.00  0.00     0.009 A 
ENDBRANCH  13  14
ENDBRANCH  12  13
ENDBRANCH   1  12
BRANCH   1  20
HETATM   20  O   UNK N   1      34.319  12.605  13.354  0.00  0.00    -0.307 OA
HETATM   21  H   UNK N   1      33.945  11.712  13.330  0.00  0.00     0.222 HD
ENDBRANCH   1  20
TORSDOF 7
ENDMDL
MODEL 3
REMARK VINA RESULT:      -6.2     18.724     20.750
REMARK  7 active torsions:
REMARK  status: ('A' for Active; 'I' for Inactive)
REMARK    1  A    between atoms: C_4  and  C_7 
REMARK    2  A    between atoms: C_5  and  O_8 
REMARK    3  A    between atoms: P_9  and  O_8 
REMARK    4  A    between atoms: P_9  and  O_10 
REMARK    5  A    between atoms: P_9  and  O_19 
REMARK    6  A    between atoms: O_10  and  C_12 
REMARK    7  A    between atoms: C_12  and  C_13 
ROOT
HETATM    1  P   UNK N   1      25.935  24.318  -7.601  0.00  0.00     0.398 P 
HETATM    2  O   UNK N   1      27.243  24.874  -6.977  0.00  0.00    -0.631 OA
ENDROOT
BRANCH   1   3
HETATM    3  O   UNK N   1      25.197  24.613  -6.069  0.00  0.00    -0.254 OA
BRANCH   3   4
HETATM    4  C   UNK N   1      25.428  25.687  -5.272  0.00  0.00     0.094 A 
HETATM    5  C   UNK N   1      26.166  25.527  -4.076  0.00  0.00     0.035 A 
HETATM    6  C   UNK N   1      26.405  26.634  -3.256  0.00  0.00     0.017 A 
HETATM    7  C   UNK N   1      25.923  27.897  -3.610  0.00  0.00     0.001 A 
HETATM    8  C   UNK N   1      25.193  28.061  -4.787  0.00  0.00     0.003 A 
HETATM    9  C   UNK N   1      24.943  26.963  -5.613  0.00  0.00     0.038 A 
BRANCH   5  10
HETATM   10  C   UNK N   1      26.697  24.218  -3.641  0.00  0.00     0.272 C 
HETATM   11  O   UNK N   1      26.958  23.983  -2.473  0.00  0.00    -0.301 OA
ENDBRANCH   5  10
ENDBRANCH   3   4
ENDBRANCH   1   3
BRANCH   1  12
HETATM   12  O   UNK N   1      26.916  22.937  -7.998  0.00  0.00    -0.292 OA
BRANCH  12  13
HETATM   13  C   UNK N   1      27.833  22.811  -6.949  0.00  0.00     0.219 C 
BRANCH  13  14
HETATM   14  C   UNK N   1      28.633  21.567  -7.123  0.00  0.00    -0.034 A 
HETATM   15  C   UNK N   1      29.793  21.374  -6.365  0.00  0.00     0.009 A 
HETATM   16  C   UNK N   1      30.549  20.208  -6.527  0.00  0.00     0.001 A 
HETATM   17  C   UNK N   1      30.144  19.235  -7.446  0.00  0.00     0.000 A 
HETATM   18  C   UNK N   1      28.983  19.424  -8.202  0.00  0.00     0.001 A 
HETATM   19  C   UNK N   1      28.228  20.590  -8.040  0.00  0.00     0.009 A 
ENDBRANCH  13  14
ENDBRANCH  12  13
ENDBRANCH   1  12
BRANCH   1  20
HETATM   20  O   UNK N   1      25.624  22.902  -6.641  0.00  0.00    -0.307 OA
HETATM   21  H   UNK N   1      25.623  21.996  -6.988  0.00  0.00     0.222 HD
ENDBRANCH   1  20
TORSDOF 7
ENDMDL
MODEL 4
REMARK VINA RESULT:      -6.1      3.308      4.620
REMARK  7 active torsions:
REMARK  status: ('A' for Active; 'I' for Inactive)
REMARK    1  A    between atoms: C_4  and  C_7 
REMARK    2  A    between atoms: C_5  and  O_8 
REMARK    3  A    between atoms: P_9  and  O_8 
REMARK    4  A    between atoms: P_9  and  O_10 
REMARK    5  A    between atoms: P_9  and  O_19 
REMARK    6  A    between atoms: O_10  and  C_12 
REMARK    7  A    between atoms: C_12  and  C_13 
ROOT
HETATM    1  P   UNK N   1      36.177  13.186  13.540  0.00  0.00     0.398 P 
HETATM    2  O   UNK N   1      36.319  14.730  13.616  0.00  0.00    -0.631 OA
ENDROOT
BRANCH   1   3
HETATM    3  O   UNK N   1      35.971  13.388  11.839  0.00  0.00    -0.254 OA
BRANCH   3   4
HETATM    4  C   UNK N   1      36.946  13.267  10.902  0.00  0.00     0.094 A 
HETATM    5  C   UNK N   1      37.103  14.272   9.920  0.00  0.00     0.035 A 
HETATM    6  C   UNK N   1      38.109  14.147   8.957  0.00  0.00     0.017 A 
HETATM    7  C   UNK N   1      38.961  13.040   8.958  0.00  0.00     0.001 A 
HETATM    8  C   UNK N   1      38.810  12.045   9.924  0.00  0.00     0.003 A 
HETATM    9  C   UNK N   1      37.807  12.154  10.889  0.00  0.00     0.038 A 
BRANCH   5  10
HETATM   10  C   UNK N   1      36.231  15.463   9.857  0.00  0.00     0.272 C 
HETATM   11  O   UNK N   1      36.415  16.437  10.569  0.00  0.00    -0.301 OA
ENDBRANCH   5  10
ENDBRANCH   3   4
ENDBRANCH   1   3
BRANCH   1  12
HETATM   12  O   UNK N   1      34.937  13.414  14.740  0.00  0.00    -0.292 OA
BRANCH  12  13
HETATM   13  C   UNK N   1      34.735  12.157  15.319  0.00  0.00     0.219 C 
BRANCH  13  14
HETATM   14  C   UNK N   1      34.939  12.239  16.792  0.00  0.00    -0.034 A 
HETATM   15  C   UNK N   1      35.123  11.068  17.535  0.00  0.00     0.009 A 
HETATM   16  C   UNK N   1      35.312  11.140  18.919  0.00  0.00     0.001 A 
HETATM   17  C   UNK N   1      35.318  12.383  19.560  0.00  0.00     0.000 A 
HETATM   18  C   UNK N   1      35.137  13.555  18.818  0.00  0.00     0.001 A 
HETATM   19  C   UNK N   1      34.948  13.482  17.435  0.00  0.00     0.009 A 
ENDBRANCH  13  14
ENDBRANCH  12  13
ENDBRANCH   1  12
BRANCH   1  20
HETATM   20  O   UNK N   1      34.551  12.978  12.959  0.00  0.00    -0.307 OA
HETATM   21  H   UNK N   1      33.885  13.681  12.935  0.00  0.00     0.222 HD
ENDBRANCH   1  20
TORSDOF 7
ENDMDL
MODEL 5
REMARK VINA RESULT:      -6.0      2.512      3.917
REMARK  7 active torsions:
REMARK  status: ('A' for Active; 'I' for Inactive)
REMARK    1  A    between atoms: C_4  and  C_7 
REMARK    2  A    between atoms: C_5  and  O_8 
REMARK    3  A    between atoms: P_9  and  O_8 
REMARK    4  A    between atoms: P_9  and  O_10 
REMARK    5  A    between atoms: P_9  and  O_19 
REMARK    6  A    between atoms: O_10  and  C_12 
REMARK    7  A    between atoms: C_12  and  C_13 
ROOT
HETATM    1  P   UNK N   1      35.972  13.342  12.715  0.00  0.00     0.398 P 
HETATM    2  O   UNK N   1      36.101  14.610  13.601  0.00  0.00    -0.631 OA
ENDROOT
BRANCH   1   3
HETATM    3  O   UNK N   1      34.601  14.105  11.998  0.00  0.00    -0.254 OA
BRANCH   3   4
HETATM    4  C   UNK N   1      34.610  14.845  10.859  0.00  0.00     0.094 A 
HETATM    5  C   UNK N   1      34.229  14.250   9.634  0.00  0.00     0.035 A 
HETATM    6  C   UNK N   1      34.236  15.013   8.462  0.00  0.00     0.017 A 
HETATM    7  C   UNK N   1      34.613  16.357   8.492  0.00  0.00     0.001 A 
HETATM    8  C   UNK N   1      34.991  16.949   9.697  0.00  0.00     0.003 A 
HETATM    9  C   UNK N   1      34.993  16.198  10.874  0.00  0.00     0.038 A 
BRANCH   5  10
HETATM   10  C   UNK N   1      33.827  12.831   9.532  0.00  0.00     0.272 C 
HETATM   11  O   UNK N   1      32.830  12.484   8.921  0.00  0.00    -0.301 OA
ENDBRANCH   5  10
ENDBRANCH   3   4
ENDBRANCH   1   3
BRANCH   1  12
HETATM   12  O   UNK N   1      35.973  12.493  14.233  0.00  0.00    -0.292 OA
BRANCH  12  13
HETATM   13  C   UNK N   1      35.285  13.319  15.130  0.00  0.00     0.219 C 
BRANCH  13  14
HETATM   14  C   UNK N   1      35.342  12.738  16.500  0.00  0.00    -0.034 A 
HETATM   15  C   UNK N   1      35.128  13.558  17.613  0.00  0.00     0.009 A 
HETATM   16  C   UNK N   1      35.184  13.017  18.901  0.00  0.00     0.001 A 
HETATM   17  C   UNK N   1      35.452  11.656  19.077  0.00  0.00     0.000 A 
HETATM   18  C   UNK N   1      35.663  10.834  17.966  0.00  0.00     0.001 A 
HETATM   19  C   UNK N   1      35.608  11.375  16.678  0.00  0.00     0.009 A 
ENDBRANCH  13  14
ENDBRANCH  12  13
ENDBRANCH   1  12
BRANCH   1  20
HETATM   20  O   UNK N   1      34.429  12.697  13.192  0.00  0.00    -0.307 OA
HETATM   21  H   UNK N   1      33.601  12.850  12.713  0.00  0.00     0.222 HD
ENDBRANCH   1  20
TORSDOF 7
ENDMDL
MODEL 6
REMARK VINA RESULT:      -6.0      1.675      2.004
REMARK  7 active torsions:
REMARK  status: ('A' for Active; 'I' for Inactive)
REMARK    1  A    between atoms: C_4  and  C_7 
REMARK    2  A    between atoms: C_5  and  O_8 
REMARK    3  A    between atoms: P_9  and  O_8 
REMARK    4  A    between atoms: P_9  and  O_10 
REMARK    5  A    between atoms: P_9  and  O_19 
REMARK    6  A    between atoms: O_10  and  C_12 
REMARK    7  A    between atoms: C_12  and  C_13 
ROOT
HETATM    1  P   UNK N   1      34.609  15.214  10.203  0.00  0.00     0.398 P 
HETATM    2  O   UNK N   1      35.152  16.532  10.818  0.00  0.00    -0.631 OA
ENDROOT
BRANCH   1   3
HETATM    3  O   UNK N   1      33.382  16.179   9.468  0.00  0.00    -0.254 OA
BRANCH   3   4
HETATM    4  C   UNK N   1      33.274  16.451   8.143  0.00  0.00     0.094 A 
HETATM    5  C   UNK N   1      32.080  17.017   7.638  0.00  0.00     0.035 A 
HETATM    6  C   UNK N   1      31.971  17.298   6.273  0.00  0.00     0.017 A 
HETATM    7  C   UNK N   1      33.031  17.029   5.405  0.00  0.00     0.001 A 
HETATM    8  C   UNK N   1      34.210  16.470   5.897  0.00  0.00     0.003 A 
HETATM    9  C   UNK N   1      34.332  16.179   7.257  0.00  0.00     0.038 A 
BRANCH   5  10
HETATM   10  C   UNK N   1      30.919  17.319   8.501  0.00  0.00     0.272 C 
HETATM   11  O   UNK N   1      30.742  18.425   8.983  0.00  0.00    -0.301 OA
ENDBRANCH   5  10
ENDBRANCH   3   4
ENDBRANCH   1   3
BRANCH   1  12
HETATM   12  O   UNK N   1      34.599  14.653  11.850  0.00  0.00    -0.292 OA
BRANCH  12  13
HETATM   13  C   UNK N   1      35.859  14.974  12.367  0.00  0.00     0.219 C 
BRANCH  13  14
HETATM   14  C   UNK N   1      36.423  13.801  13.091  0.00  0.00    -0.034 A 
HETATM   15  C   UNK N   1      36.993  12.746  12.370  0.00  0.00     0.009 A 
HETATM   16  C   UNK N   1      37.521  11.642  13.047  0.00  0.00     0.001 A 
HETATM   17  C   UNK N   1      37.480  11.593  14.444  0.00  0.00     0.000 A 
HETATM   18  C   UNK N   1      36.914  12.648  15.166  0.00  0.00     0.001 A 
HETATM   19  C   UNK N   1      36.385  13.751  14.490  0.00  0.00     0.009 A 
ENDBRANCH  13  14
ENDBRANCH  12  13
ENDBRANCH   1  12
BRANCH   1  20
HETATM   20  O   UNK N   1      33.030  15.079  10.919  0.00  0.00    -0.307 OA
HETATM   21  H   UNK N   1      32.627  14.243  11.200  0.00  0.00     0.222 HD
ENDBRANCH   1  20
TORSDOF 7
ENDMDL
MODEL 7
REMARK VINA RESULT:      -6.0      4.661      8.965
REMARK  7 active torsions:
REMARK  status: ('A' for Active; 'I' for Inactive)
REMARK    1  A    between atoms: C_4  and  C_7 
REMARK    2  A    between atoms: C_5  and  O_8 
REMARK    3  A    between atoms: P_9  and  O_8 
REMARK    4  A    between atoms: P_9  and  O_10 
REMARK    5  A    between atoms: P_9  and  O_19 
REMARK    6  A    between atoms: O_10  and  C_12 
REMARK    7  A    between atoms: C_12  and  C_13 
ROOT
HETATM    1  P   UNK N   1      31.219  16.516   6.100  0.00  0.00     0.398 P 
HETATM    2  O   UNK N   1      30.894  17.468   7.281  0.00  0.00    -0.631 OA
ENDROOT
BRANCH   1   3
HETATM    3  O   UNK N   1      32.872  16.652   6.576  0.00  0.00    -0.254 OA
BRANCH   3   4
HETATM    4  C   UNK N   1      33.391  16.248   7.763  0.00  0.00     0.094 A 
HETATM    5  C   UNK N   1      34.158  17.150   8.537  0.00  0.00     0.035 A 
HETATM    6  C   UNK N   1      34.690  16.733   9.760  0.00  0.00     0.017 A 
HETATM    7  C   UNK N   1      34.469  15.435  10.226  0.00  0.00     0.001 A 
HETATM    8  C   UNK N   1      33.714  14.541   9.467  0.00  0.00     0.003 A 
HETATM    9  C   UNK N   1      33.180  14.942   8.241  0.00  0.00     0.038 A 
BRANCH   5  10
HETATM   10  C   UNK N   1      34.436  18.533   8.097  0.00  0.00     0.272 C 
HETATM   11  O   UNK N   1      35.357  19.186   8.561  0.00  0.00    -0.301 OA
ENDBRANCH   5  10
ENDBRANCH   3   4
ENDBRANCH   1   3
BRANCH   1  12
HETATM   12  O   UNK N   1      30.346  17.680   5.146  0.00  0.00    -0.292 OA
BRANCH  12  13
HETATM   13  C   UNK N   1      28.992  17.373   5.321  0.00  0.00     0.219 C 
BRANCH  13  14
HETATM   14  C   UNK N   1      28.187  18.626   5.345  0.00  0.00    -0.034 A 
HETATM   15  C   UNK N   1      27.615  19.108   4.163  0.00  0.00     0.009 A 
HETATM   16  C   UNK N   1      26.861  20.286   4.181  0.00  0.00     0.001 A 
HETATM   17  C   UNK N   1      26.678  20.981   5.381  0.00  0.00     0.000 A 
HETATM   18  C   UNK N   1      27.246  20.498   6.564  0.00  0.00     0.001 A 
HETATM   19  C   UNK N   1      28.000  19.322   6.546  0.00  0.00     0.009 A 
ENDBRANCH  13  14
ENDBRANCH  12  13
ENDBRANCH   1  12
BRANCH   1  20
HETATM   20  O   UNK N   1      32.209  17.507   5.069  0.00  0.00    -0.307 OA
HETATM   21  H   UNK N   1      33.034  17.211   4.654  0.00  0.00     0.222 HD
ENDBRANCH   1  20
TORSDOF 7
ENDMDL
MODEL 8
REMARK VINA RESULT:      -5.9      2.786      8.456
REMARK  7 active torsions:
REMARK  status: ('A' for Active; 'I' for Inactive)
REMARK    1  A    between atoms: C_4  and  C_7 
REMARK    2  A    between atoms: C_5  and  O_8 
REMARK    3  A    between atoms: P_9  and  O_8 
REMARK    4  A    between atoms: P_9  and  O_10 
REMARK    5  A    between atoms: P_9  and  O_19 
REMARK    6  A    between atoms: O_10  and  C_12 
REMARK    7  A    between atoms: C_12  and  C_13 
ROOT
HETATM    1  P   UNK N   1      36.244  13.510  13.436  0.00  0.00     0.398 P 
HETATM    2  O   UNK N   1      34.750  13.518  13.857  0.00  0.00    -0.631 OA
ENDROOT
BRANCH   1   3
HETATM    3  O   UNK N   1      36.610  13.282  15.107  0.00  0.00    -0.254 OA
BRANCH   3   4
HETATM    4  C   UNK N   1      36.279  12.195  15.850  0.00  0.00     0.094 A 
HETATM    5  C   UNK N   1      35.570  12.365  17.062  0.00  0.00     0.035 A 
HETATM    6  C   UNK N   1      35.226  11.245  17.826  0.00  0.00     0.017 A 
HETATM    7  C   UNK N   1      35.575   9.961  17.401  0.00  0.00     0.001 A 
HETATM    8  C   UNK N   1      36.276   9.788  16.207  0.00  0.00     0.003 A 
HETATM    9  C   UNK N   1      36.629  10.897  15.437  0.00  0.00     0.038 A 
BRANCH   5  10
HETATM   10  C   UNK N   1      35.177  13.695  17.572  0.00  0.00     0.272 C 
HETATM   11  O   UNK N   1      35.287  13.995  18.750  0.00  0.00    -0.301 OA
ENDBRANCH   5  10
ENDBRANCH   3   4
ENDBRANCH   1   3
BRANCH   1  12
HETATM   12  O   UNK N   1      35.863  15.033  12.687  0.00  0.00    -0.292 OA
BRANCH  12  13
HETATM   13  C   UNK N   1      36.214  14.891  11.340  0.00  0.00     0.219 C 
BRANCH  13  14
HETATM   14  C   UNK N   1      35.105  15.379  10.473  0.00  0.00    -0.034 A 
HETATM   15  C   UNK N   1      34.009  14.550  10.213  0.00  0.00     0.009 A 
HETATM   16  C   UNK N   1      32.968  15.004   9.397  0.00  0.00     0.001 A 
HETATM   17  C   UNK N   1      33.022  16.287   8.842  0.00  0.00     0.000 A 
HETATM   18  C   UNK N   1      34.116  17.118   9.104  0.00  0.00     0.001 A 
HETATM   19  C   UNK N   1      35.157  16.664   9.919  0.00  0.00     0.009 A 
ENDBRANCH  13  14
ENDBRANCH  12  13
ENDBRANCH   1  12
BRANCH   1  20
HETATM   20  O   UNK N   1      36.881  14.906  14.254  0.00  0.00    -0.307 OA
HETATM   21  H   UNK N   1      36.989  14.975  15.215  0.00  0.00     0.222 HD
ENDBRANCH   1  20
TORSDOF 7
ENDMDL
MODEL 9
REMARK VINA RESULT:      -5.8     15.899     18.316
REMARK  7 active torsions:
REMARK  status: ('A' for Active; 'I' for Inactive)
REMARK    1  A    between atoms: C_4  and  C_7 
REMARK    2  A    between atoms: C_5  and  O_8 
REMARK    3  A    between atoms: P_9  and  O_8 
REMARK    4  A    between atoms: P_9  and  O_10 
REMARK    5  A    between atoms: P_9  and  O_19 
REMARK    6  A    between atoms: O_10  and  C_12 
REMARK    7  A    between atoms: C_12  and  C_13 
ROOT
HETATM    1  P   UNK N   1      28.772  23.940  -3.699  0.00  0.00     0.398 P 
HETATM    2  O   UNK N   1      29.864  24.783  -2.988  0.00  0.00    -0.631 OA
ENDROOT
BRANCH   1   3
HETATM    3  O   UNK N   1      27.662  25.182  -3.248  0.00  0.00    -0.254 OA
BRANCH   3   4
HETATM    4  C   UNK N   1      26.763  25.780  -4.072  0.00  0.00     0.094 A 
HETATM    5  C   UNK N   1      26.456  27.149  -3.899  0.00  0.00     0.035 A 
HETATM    6  C   UNK N   1      25.531  27.764  -4.749  0.00  0.00     0.017 A 
HETATM    7  C   UNK N   1      24.912  27.038  -5.768  0.00  0.00     0.001 A 
HETATM    8  C   UNK N   1      25.210  25.687  -5.943  0.00  0.00     0.003 A 
HETATM    9  C   UNK N   1      26.128  25.059  -5.099  0.00  0.00     0.038 A 
BRANCH   5  10
HETATM   10  C   UNK N   1      27.070  27.972  -2.835  0.00  0.00     0.272 C 
HETATM   11  O   UNK N   1      26.777  29.145  -2.675  0.00  0.00    -0.301 OA
ENDBRANCH   5  10
ENDBRANCH   3   4
ENDBRANCH   1   3
BRANCH   1  12
HETATM   12  O   UNK N   1      29.328  22.660  -2.659  0.00  0.00    -0.292 OA
BRANCH  12  13
HETATM   13  C   UNK N   1      30.702  22.871  -2.501  0.00  0.00     0.219 C 
BRANCH  13  14
HETATM   14  C   UNK N   1      31.462  21.775  -3.162  0.00  0.00    -0.034 A 
HETATM   15  C   UNK N   1      32.801  21.553  -2.822  0.00  0.00     0.009 A 
HETATM   16  C   UNK N   1      33.520  20.526  -3.443  0.00  0.00     0.001 A 
HETATM   17  C   UNK N   1      32.900  19.721  -4.403  0.00  0.00     0.000 A 
HETATM   18  C   UNK N   1      31.561  19.939  -4.742  0.00  0.00     0.001 A 
HETATM   19  C   UNK N   1      30.843  20.965  -4.122  0.00  0.00     0.009 A 
ENDBRANCH  13  14
ENDBRANCH  12  13
ENDBRANCH   1  12
BRANCH   1  20
HETATM   20  O   UNK N   1      27.692  23.535  -2.396  0.00  0.00    -0.307 OA
HETATM   21  H   UNK N   1      27.585  24.063  -1.591  0.00  0.00     0.222 HD
ENDBRANCH   1  20
TORSDOF 7
ENDMDL
