REMARK  7 active torsions:
REMARK  status: ('A' for Active; 'I' for Inactive)
REMARK    1  A    between atoms: C_4  and  C_7 
REMARK    2  A    between atoms: C_5  and  O_8 
REMARK    3  A    between atoms: P_9  and  O_8 
REMARK    4  A    between atoms: P_9  and  O_10 
REMARK    5  A    between atoms: P_9  and  O_19 
REMARK    6  A    between atoms: O_10  and  C_12 
REMARK    7  A    between atoms: C_12  and  C_13 
ROOT
HETATM    1  P   UNK N   1       0.108   0.409   0.345  0.00  0.00     0.398 P 
HETATM    2  O   UNK N   1      -0.070  -0.452  -0.934  0.00  0.00    -0.631 OA
ENDROOT
BRANCH   1   3
HETATM    3  O   UNK N   1      -1.473   1.024   0.030  0.00  0.00    -0.254 OA
BRANCH   3   4
HETATM    4  C   UNK N   1      -2.632   0.325   0.137  0.00  0.00     0.094 A 
HETATM    5  C   UNK N   1      -3.870   0.996   0.007  0.00  0.00     0.035 A 
HETATM    6  C   UNK N   1      -5.063   0.275   0.115  0.00  0.00     0.017 A 
HETATM    7  C   UNK N   1      -5.042  -1.102   0.347  0.00  0.00     0.001 A 
HETATM    8  C   UNK N   1      -3.824  -1.769   0.477  0.00  0.00     0.003 A 
HETATM    9  C   UNK N   1      -2.625  -1.061   0.376  0.00  0.00     0.038 A 
BRANCH   5  10
HETATM   10  C   UNK N   1      -3.962   2.452  -0.231  0.00  0.00     0.272 C 
HETATM   11  O   UNK N   1      -2.970   3.157  -0.317  0.00  0.00    -0.301 OA
ENDBRANCH   5  10
ENDBRANCH   3   4
ENDBRANCH   1   3
BRANCH   1  12
HETATM   12  O   UNK N   1       1.571   0.946  -0.429  0.00  0.00    -0.292 OA
BRANCH  12  13
HETATM   13  C   UNK N   1       2.560   0.903   0.560  0.00  0.00     0.219 C 
BRANCH  13  14
HETATM   14  C   UNK N   1       3.517  -0.201   0.272  0.00  0.00    -0.034 A 
HETATM   15  C   UNK N   1       4.852   0.095  -0.024  0.00  0.00     0.009 A 
HETATM   16  C   UNK N   1       5.753  -0.939  -0.298  0.00  0.00     0.001 A 
HETATM   17  C   UNK N   1       5.320  -2.268  -0.275  0.00  0.00     0.000 A 
HETATM   18  C   UNK N   1       3.987  -2.566   0.024  0.00  0.00     0.001 A 
HETATM   19  C   UNK N   1       3.086  -1.533   0.297  0.00  0.00     0.009 A 
ENDBRANCH  13  14
ENDBRANCH  12  13
ENDBRANCH   1  12
BRANCH   1  20
HETATM   20  O   UNK N   1       0.053   2.033  -0.275  0.00  0.00    -0.307 OA
HETATM   21  H   UNK N   1       0.821   2.512  -0.622  0.00  0.00     0.222 HD
ENDBRANCH   1  20
TORSDOF 7
