MODEL 1
REMARK VINA RESULT:      -7.1      0.000      0.000
REMARK  5 active torsions:
REMARK  status: ('A' for Active; 'I' for Inactive)
REMARK    1  A    between atoms: C_8  and  C_15 
REMARK    2  A    between atoms: C_8  and  C_17 
REMARK    3  A    between atoms: C_12  and  N_13 
REMARK    4  A    between atoms: C_16  and  O_24 
REMARK    5  A    between atoms: C_21  and  O_23 
ROOT
HETATM    1  N   UNK N   1      29.073  18.027   5.095  0.00  0.00    -0.330 N 
ATOM      2  HN  UNK N   1      29.621  17.549   4.381  1.00  0.00     0.168 HD
HETATM    3  C   UNK N   1      28.125  18.956   4.929  0.00  0.00     0.141 A 
HETATM    4  N   UNK N   1      27.654  19.436   3.754  0.00  0.00    -0.302 N 
ATOM      5  HN  UNK N   1      28.020  19.098   2.865  1.00  0.00     0.171 HD
HETATM    6  C   UNK N   1      26.673  20.389   3.797  0.00  0.00     0.269 A 
HETATM    7  N   UNK N   1      26.204  20.852   5.004  0.00  0.00    -0.303 N 
ATOM      8  HN  UNK N   1      25.484  21.574   5.020  1.00  0.00     0.171 HD
HETATM    9  C   UNK N   1      27.663  19.374   6.123  0.00  0.00     0.122 A 
HETATM   10  C   UNK N   1      26.688  20.360   6.183  0.00  0.00     0.133 A 
HETATM   11  N   UNK N   1      28.281  18.705   7.108  0.00  0.00    -0.340 N 
HETATM   12  C   UNK N   1      29.129  17.871   6.444  0.00  0.00     0.087 A 
HETATM   13  F   UNK N   1      26.157  20.874   2.642  0.00  0.00    -0.165 F 
HETATM   14  H   UNK N   1      28.154  18.796   8.080  0.00  0.00     0.167 HD
ENDROOT
BRANCH  12  15
HETATM   15  C   UNK N   1      30.068  16.935   7.147  0.00  0.00     0.118 C 
BRANCH  15  16
HETATM   16  C   UNK N   1      31.577  17.094   7.036  0.00  0.00    -0.015 A 
HETATM   17  C   UNK N   1      32.330  17.106   5.826  0.00  0.00     0.075 A 
HETATM   18  C   UNK N   1      33.722  17.303   5.885  0.00  0.00     0.040 A 
HETATM   19  C   UNK N   1      34.371  17.480   7.104  0.00  0.00     0.039 A 
HETATM   20  C   UNK N   1      33.647  17.462   8.293  0.00  0.00     0.068 A 
HETATM   21  C   UNK N   1      32.255  17.274   8.249  0.00  0.00     0.047 A 
BRANCH  17  22
HETATM   22  O   UNK N   1      31.727  16.942   4.627  0.00  0.00    -0.355 OA
HETATM   23  C   UNK N   1      32.347  17.176   3.420  0.00  0.00     0.210 C 
ENDBRANCH  17  22
BRANCH  20  24
HETATM   24  O   UNK N   1      34.307  17.627   9.463  0.00  0.00    -0.356 OA
HETATM   25  C   UNK N   1      34.991  16.613  10.093  0.00  0.00     0.210 C 
ENDBRANCH  20  24
ENDBRANCH  15  16
ENDBRANCH  12  15
BRANCH  10  26
HETATM   26  N   UNK N   1      26.208  20.843   7.417  0.00  0.00    -0.383 N 
HETATM   27  H   UNK N   1      26.387  21.692   7.881  0.00  0.00     0.157 HD
HETATM   28  H   UNK N   1      25.596  20.234   7.889  0.00  0.00     0.157 HD
ENDBRANCH  10  26
TORSDOF 5
ENDMDL
MODEL 2
REMARK VINA RESULT:      -6.9      5.953      8.645
REMARK  5 active torsions:
REMARK  status: ('A' for Active; 'I' for Inactive)
REMARK    1  A    between atoms: C_8  and  C_15 
REMARK    2  A    between atoms: C_8  and  C_17 
REMARK    3  A    between atoms: C_12  and  N_13 
REMARK    4  A    between atoms: C_16  and  O_24 
REMARK    5  A    between atoms: C_21  and  O_23 
ROOT
HETATM    1  N   UNK N   1      35.345  17.206  10.413  0.00  0.00    -0.330 N 
ATOM      2  HN  UNK N   1      35.796  18.088  10.650  1.00  0.00     0.168 HD
HETATM    3  C   UNK N   1      35.436  16.032  11.049  0.00  0.00     0.141 A 
HETATM    4  N   UNK N   1      36.120  15.774  12.187  0.00  0.00    -0.302 N 
ATOM      5  HN  UNK N   1      36.647  16.508  12.660  1.00  0.00     0.171 HD
HETATM    6  C   UNK N   1      36.084  14.500  12.684  0.00  0.00     0.269 A 
HETATM    7  N   UNK N   1      35.386  13.515  12.025  0.00  0.00    -0.303 N 
ATOM      8  HN  UNK N   1      35.382  12.566  12.399  1.00  0.00     0.171 HD
HETATM    9  C   UNK N   1      34.723  15.091  10.400  0.00  0.00     0.122 A 
HETATM   10  C   UNK N   1      34.700  13.788  10.876  0.00  0.00     0.133 A 
HETATM   11  N   UNK N   1      34.122  15.634   9.330  0.00  0.00    -0.340 N 
HETATM   12  C   UNK N   1      34.509  16.940   9.375  0.00  0.00     0.087 A 
HETATM   13  F   UNK N   1      36.734  14.210  13.837  0.00  0.00    -0.165 F 
HETATM   14  H   UNK N   1      33.541  15.194   8.668  0.00  0.00     0.167 HD
ENDROOT
BRANCH  12  15
HETATM   15  C   UNK N   1      34.101  17.946   8.340  0.00  0.00     0.118 C 
BRANCH  15  16
HETATM   16  C   UNK N   1      33.046  17.624   7.293  0.00  0.00    -0.015 A 
HETATM   17  C   UNK N   1      31.649  17.478   7.531  0.00  0.00     0.075 A 
HETATM   18  C   UNK N   1      30.791  17.218   6.446  0.00  0.00     0.040 A 
HETATM   19  C   UNK N   1      31.287  17.095   5.152  0.00  0.00     0.039 A 
HETATM   20  C   UNK N   1      32.651  17.227   4.908  0.00  0.00     0.068 A 
HETATM   21  C   UNK N   1      33.519  17.495   5.980  0.00  0.00     0.047 A 
BRANCH  17  22
HETATM   22  O   UNK N   1      31.137  17.597   8.777  0.00  0.00    -0.355 OA
HETATM   23  C   UNK N   1      30.244  18.579   9.147  0.00  0.00     0.210 C 
ENDBRANCH  17  22
BRANCH  20  24
HETATM   24  O   UNK N   1      33.105  17.093   3.640  0.00  0.00    -0.356 OA
HETATM   25  C   UNK N   1      33.291  15.874   3.030  0.00  0.00     0.210 C 
ENDBRANCH  20  24
ENDBRANCH  15  16
ENDBRANCH  12  15
BRANCH  10  26
HETATM   26  N   UNK N   1      33.992  12.772  10.202  0.00  0.00    -0.383 N 
HETATM   27  H   UNK N   1      33.800  11.845  10.470  0.00  0.00     0.157 HD
HETATM   28  H   UNK N   1      33.634  13.032   9.323  0.00  0.00     0.157 HD
ENDBRANCH  10  26
TORSDOF 5
ENDMDL
MODEL 3
REMARK VINA RESULT:      -6.9      6.063      8.610
REMARK  5 active torsions:
REMARK  status: ('A' for Active; 'I' for Inactive)
REMARK    1  A    between atoms: C_8  and  C_15 
REMARK    2  A    between atoms: C_8  and  C_17 
REMARK    3  A    between atoms: C_12  and  N_13 
REMARK    4  A    between atoms: C_16  and  O_24 
REMARK    5  A    between atoms: C_21  and  O_23 
ROOT
HETATM    1  N   UNK N   1      35.315  17.062  10.704  0.00  0.00    -0.330 N 
ATOM      2  HN  UNK N   1      35.724  17.959  10.965  1.00  0.00     0.168 HD
HETATM    3  C   UNK N   1      35.446  15.882  11.319  0.00  0.00     0.141 A 
HETATM    4  N   UNK N   1      36.123  15.632  12.464  0.00  0.00    -0.302 N 
ATOM      5  HN  UNK N   1      36.611  16.378  12.959  1.00  0.00     0.171 HD
HETATM    6  C   UNK N   1      36.133  14.348  12.937  0.00  0.00     0.269 A 
HETATM    7  N   UNK N   1      35.489  13.347  12.249  0.00  0.00    -0.303 N 
ATOM      8  HN  UNK N   1      35.520  12.392  12.605  1.00  0.00     0.171 HD
HETATM    9  C   UNK N   1      34.784  14.924  10.642  0.00  0.00     0.122 A 
HETATM   10  C   UNK N   1      34.810  13.612  11.094  0.00  0.00     0.133 A 
HETATM   11  N   UNK N   1      34.178  15.461   9.572  0.00  0.00    -0.340 N 
HETATM   12  C   UNK N   1      34.508  16.781   9.647  0.00  0.00     0.087 A 
HETATM   13  F   UNK N   1      36.778  14.065  14.095  0.00  0.00    -0.165 F 
HETATM   14  H   UNK N   1      33.627  15.009   8.893  0.00  0.00     0.167 HD
ENDROOT
BRANCH  12  15
HETATM   15  C   UNK N   1      34.073  17.789   8.624  0.00  0.00     0.118 C 
BRANCH  15  16
HETATM   16  C   UNK N   1      32.866  17.543   7.733  0.00  0.00    -0.015 A 
HETATM   17  C   UNK N   1      32.902  17.143   6.367  0.00  0.00     0.075 A 
HETATM   18  C   UNK N   1      31.692  16.916   5.685  0.00  0.00     0.040 A 
HETATM   19  C   UNK N   1      30.466  17.084   6.323  0.00  0.00     0.039 A 
HETATM   20  C   UNK N   1      30.418  17.483   7.655  0.00  0.00     0.068 A 
HETATM   21  C   UNK N   1      31.618  17.705   8.351  0.00  0.00     0.047 A 
BRANCH  17  22
HETATM   22  O   UNK N   1      34.077  16.967   5.722  0.00  0.00    -0.355 OA
HETATM   23  C   UNK N   1      34.713  15.750   5.607  0.00  0.00     0.210 C 
ENDBRANCH  17  22
BRANCH  20  24
HETATM   24  O   UNK N   1      29.211  17.648   8.245  0.00  0.00    -0.356 OA
HETATM   25  C   UNK N   1      29.007  18.468   9.331  0.00  0.00     0.210 C 
ENDBRANCH  20  24
ENDBRANCH  15  16
ENDBRANCH  12  15
BRANCH  10  26
HETATM   26  N   UNK N   1      34.157  12.580  10.390  0.00  0.00    -0.383 N 
HETATM   27  H   UNK N   1      33.694  12.596   9.521  0.00  0.00     0.157 HD
HETATM   28  H   UNK N   1      34.165  11.704  10.839  0.00  0.00     0.157 HD
ENDBRANCH  10  26
TORSDOF 5
ENDMDL
MODEL 4
REMARK VINA RESULT:      -6.7      6.636      9.559
REMARK  5 active torsions:
REMARK  status: ('A' for Active; 'I' for Inactive)
REMARK    1  A    between atoms: C_8  and  C_15 
REMARK    2  A    between atoms: C_8  and  C_17 
REMARK    3  A    between atoms: C_12  and  N_13 
REMARK    4  A    between atoms: C_16  and  O_24 
REMARK    5  A    between atoms: C_21  and  O_23 
ROOT
HETATM    1  N   UNK N   1      35.790  15.734  11.651  0.00  0.00    -0.330 N 
ATOM      2  HN  UNK N   1      36.501  16.355  12.034  1.00  0.00     0.168 HD
HETATM    3  C   UNK N   1      34.875  16.003  10.712  0.00  0.00     0.141 A 
HETATM    4  N   UNK N   1      34.727  17.161  10.028  0.00  0.00    -0.302 N 
ATOM      5  HN  UNK N   1      35.342  17.955  10.201  1.00  0.00     0.171 HD
HETATM    6  C   UNK N   1      33.725  17.235   9.099  0.00  0.00     0.269 A 
HETATM    7  N   UNK N   1      32.889  16.164   8.890  0.00  0.00    -0.303 N 
ATOM      8  HN  UNK N   1      32.136  16.239   8.206  1.00  0.00     0.171 HD
HETATM    9  C   UNK N   1      34.086  14.931  10.506  0.00  0.00     0.122 A 
HETATM   10  C   UNK N   1      33.049  15.000   9.587  0.00  0.00     0.133 A 
HETATM   11  N   UNK N   1      34.483  13.917  11.292  0.00  0.00    -0.340 N 
HETATM   12  C   UNK N   1      35.544  14.436  11.970  0.00  0.00     0.087 A 
HETATM   13  F   UNK N   1      33.563  18.369   8.375  0.00  0.00    -0.165 F 
HETATM   14  H   UNK N   1      34.098  13.014  11.362  0.00  0.00     0.167 HD
ENDROOT
BRANCH  12  15
HETATM   15  C   UNK N   1      36.304  13.664  13.007  0.00  0.00     0.118 C 
BRANCH  15  16
HETATM   16  C   UNK N   1      35.606  12.680  13.933  0.00  0.00    -0.015 A 
HETATM   17  C   UNK N   1      35.053  11.423  13.555  0.00  0.00     0.075 A 
HETATM   18  C   UNK N   1      34.471  10.603  14.540  0.00  0.00     0.040 A 
HETATM   19  C   UNK N   1      34.424  11.005  15.872  0.00  0.00     0.039 A 
HETATM   20  C   UNK N   1      34.954  12.235  16.252  0.00  0.00     0.068 A 
HETATM   21  C   UNK N   1      35.544  13.060  15.281  0.00  0.00     0.047 A 
BRANCH  17  22
HETATM   22  O   UNK N   1      35.089  11.003  12.270  0.00  0.00    -0.355 OA
HETATM   23  C   UNK N   1      34.048  10.348  11.649  0.00  0.00     0.210 C 
ENDBRANCH  17  22
BRANCH  20  24
HETATM   24  O   UNK N   1      34.884  12.604  17.553  0.00  0.00    -0.356 OA
HETATM   25  C   UNK N   1      35.264  13.845  18.008  0.00  0.00     0.210 C 
ENDBRANCH  20  24
ENDBRANCH  15  16
ENDBRANCH  12  15
BRANCH  10  26
HETATM   26  N   UNK N   1      32.183  13.908   9.373  0.00  0.00    -0.383 N 
HETATM   27  H   UNK N   1      31.544  13.473   9.983  0.00  0.00     0.157 HD
HETATM   28  H   UNK N   1      32.224  13.518   8.470  0.00  0.00     0.157 HD
ENDBRANCH  10  26
TORSDOF 5
ENDMDL
MODEL 5
REMARK VINA RESULT:      -6.7      1.271      2.047
REMARK  5 active torsions:
REMARK  status: ('A' for Active; 'I' for Inactive)
REMARK    1  A    between atoms: C_8  and  C_15 
REMARK    2  A    between atoms: C_8  and  C_17 
REMARK    3  A    between atoms: C_12  and  N_13 
REMARK    4  A    between atoms: C_16  and  O_24 
REMARK    5  A    between atoms: C_21  and  O_23 
ROOT
HETATM    1  N   UNK N   1      28.487  18.646   8.059  0.00  0.00    -0.330 N 
ATOM      2  HN  UNK N   1      28.507  18.541   9.073  1.00  0.00     0.168 HD
HETATM    3  C   UNK N   1      27.764  19.504   7.330  0.00  0.00     0.141 A 
HETATM    4  N   UNK N   1      26.926  20.460   7.793  0.00  0.00    -0.302 N 
ATOM      5  HN  UNK N   1      26.781  20.592   8.793  1.00  0.00     0.171 HD
HETATM    6  C   UNK N   1      26.277  21.244   6.878  0.00  0.00     0.269 A 
HETATM    7  N   UNK N   1      26.464  21.041   5.531  0.00  0.00    -0.303 N 
ATOM      8  HN  UNK N   1      25.961  21.622   4.860  1.00  0.00     0.171 HD
HETATM    9  C   UNK N   1      27.984  19.304   6.016  0.00  0.00     0.122 A 
HETATM   10  C   UNK N   1      27.313  20.072   5.076  0.00  0.00     0.133 A 
HETATM   11  N   UNK N   1      28.884  18.321   5.852  0.00  0.00    -0.340 N 
HETATM   12  C   UNK N   1      29.187  17.949   7.126  0.00  0.00     0.087 A 
HETATM   13  F   UNK N   1      25.451  22.230   7.304  0.00  0.00    -0.165 F 
HETATM   14  H   UNK N   1      29.238  17.955   5.009  0.00  0.00     0.167 HD
ENDROOT
BRANCH  12  15
HETATM   15  C   UNK N   1      30.144  16.839   7.445  0.00  0.00     0.118 C 
BRANCH  15  16
HETATM   16  C   UNK N   1      31.646  17.013   7.274  0.00  0.00    -0.015 A 
HETATM   17  C   UNK N   1      32.342  17.101   6.034  0.00  0.00     0.075 A 
HETATM   18  C   UNK N   1      33.735  17.303   6.041  0.00  0.00     0.040 A 
HETATM   19  C   UNK N   1      34.439  17.411   7.238  0.00  0.00     0.039 A 
HETATM   20  C   UNK N   1      33.770  17.318   8.455  0.00  0.00     0.068 A 
HETATM   21  C   UNK N   1      32.379  17.124   8.464  0.00  0.00     0.047 A 
BRANCH  17  22
HETATM   22  O   UNK N   1      31.685  17.005   4.857  0.00  0.00    -0.355 OA
HETATM   23  C   UNK N   1      31.781  15.921   4.013  0.00  0.00     0.210 C 
ENDBRANCH  17  22
BRANCH  20  24
HETATM   24  O   UNK N   1      34.483  17.416   9.601  0.00  0.00    -0.356 OA
HETATM   25  C   UNK N   1      34.999  16.327  10.266  0.00  0.00     0.210 C 
ENDBRANCH  20  24
ENDBRANCH  15  16
ENDBRANCH  12  15
BRANCH  10  26
HETATM   26  N   UNK N   1      27.495  19.865   3.694  0.00  0.00    -0.383 N 
HETATM   27  H   UNK N   1      26.835  19.696   2.983  0.00  0.00     0.157 HD
HETATM   28  H   UNK N   1      28.431  19.893   3.391  0.00  0.00     0.157 HD
ENDBRANCH  10  26
TORSDOF 5
ENDMDL
MODEL 6
REMARK VINA RESULT:      -6.6      9.468     11.229
REMARK  5 active torsions:
REMARK  status: ('A' for Active; 'I' for Inactive)
REMARK    1  A    between atoms: C_8  and  C_15 
REMARK    2  A    between atoms: C_8  and  C_17 
REMARK    3  A    between atoms: C_12  and  N_13 
REMARK    4  A    between atoms: C_16  and  O_24 
REMARK    5  A    between atoms: C_21  and  O_23 
ROOT
HETATM    1  N   UNK N   1      20.986  12.941   9.371  0.00  0.00    -0.330 N 
ATOM      2  HN  UNK N   1      19.983  12.780   9.446  1.00  0.00     0.168 HD
HETATM    3  C   UNK N   1      21.938  12.666  10.269  0.00  0.00     0.141 A 
HETATM    4  N   UNK N   1      21.775  12.063  11.470  0.00  0.00    -0.302 N 
ATOM      5  HN  UNK N   1      20.852  11.766  11.786  1.00  0.00     0.171 HD
HETATM    6  C   UNK N   1      22.884  11.866  12.247  0.00  0.00     0.269 A 
HETATM    7  N   UNK N   1      24.119  12.292  11.818  0.00  0.00    -0.303 N 
ATOM      8  HN  UNK N   1      24.934  12.153  12.415  1.00  0.00     0.171 HD
HETATM    9  C   UNK N   1      23.142  13.067   9.816  0.00  0.00     0.122 A 
HETATM   10  C   UNK N   1      24.271  12.899  10.604  0.00  0.00     0.133 A 
HETATM   11  N   UNK N   1      23.010  13.595   8.588  0.00  0.00    -0.340 N 
HETATM   12  C   UNK N   1      21.676  13.487   8.335  0.00  0.00     0.087 A 
HETATM   13  F   UNK N   1      22.763  11.242  13.443  0.00  0.00    -0.165 F 
HETATM   14  H   UNK N   1      23.712  13.972   8.010  0.00  0.00     0.167 HD
ENDROOT
BRANCH  12  15
HETATM   15  C   UNK N   1      21.044  13.987   7.070  0.00  0.00     0.118 C 
BRANCH  15  16
HETATM   16  C   UNK N   1      21.239  15.419   6.599  0.00  0.00    -0.015 A 
HETATM   17  C   UNK N   1      21.807  15.822   5.356  0.00  0.00     0.075 A 
HETATM   18  C   UNK N   1      21.883  17.192   5.046  0.00  0.00     0.040 A 
HETATM   19  C   UNK N   1      21.418  18.156   5.936  0.00  0.00     0.039 A 
HETATM   20  C   UNK N   1      20.869  17.776   7.157  0.00  0.00     0.068 A 
HETATM   21  C   UNK N   1      20.779  16.411   7.477  0.00  0.00     0.047 A 
BRANCH  17  22
HETATM   22  O   UNK N   1      22.262  14.908   4.468  0.00  0.00    -0.355 OA
HETATM   23  C   UNK N   1      22.416  15.159   3.123  0.00  0.00     0.210 C 
ENDBRANCH  17  22
BRANCH  20  24
HETATM   24  O   UNK N   1      20.435  18.736   8.007  0.00  0.00    -0.356 OA
HETATM   25  C   UNK N   1      19.656  18.473   9.110  0.00  0.00     0.210 C 
ENDBRANCH  20  24
ENDBRANCH  15  16
ENDBRANCH  12  15
BRANCH  10  26
HETATM   26  N   UNK N   1      25.539  13.339  10.173  0.00  0.00    -0.383 N 
HETATM   27  H   UNK N   1      26.156  13.993  10.573  0.00  0.00     0.157 HD
HETATM   28  H   UNK N   1      25.858  12.927   9.338  0.00  0.00     0.157 HD
ENDBRANCH  10  26
TORSDOF 5
ENDMDL
MODEL 7
REMARK VINA RESULT:      -6.5      4.024      7.090
REMARK  5 active torsions:
REMARK  status: ('A' for Active; 'I' for Inactive)
REMARK    1  A    between atoms: C_8  and  C_15 
REMARK    2  A    between atoms: C_8  and  C_17 
REMARK    3  A    between atoms: C_12  and  N_13 
REMARK    4  A    between atoms: C_16  and  O_24 
REMARK    5  A    between atoms: C_21  and  O_23 
ROOT
HETATM    1  N   UNK N   1      30.838  17.479   8.815  0.00  0.00    -0.330 N 
ATOM      2  HN  UNK N   1      30.435  17.662   9.733  1.00  0.00     0.168 HD
HETATM    3  C   UNK N   1      32.118  17.242   8.505  0.00  0.00     0.141 A 
HETATM    4  N   UNK N   1      33.159  17.147   9.364  0.00  0.00    -0.302 N 
ATOM      5  HN  UNK N   1      33.023  17.263  10.368  1.00  0.00     0.171 HD
HETATM    6  C   UNK N   1      34.399  16.893   8.845  0.00  0.00     0.269 A 
HETATM    7  N   UNK N   1      34.572  16.760   7.488  0.00  0.00    -0.303 N 
ATOM      8  HN  UNK N   1      35.505  16.587   7.114  1.00  0.00     0.171 HD
HETATM    9  C   UNK N   1      32.257  17.089   7.174  0.00  0.00     0.122 A 
HETATM   10  C   UNK N   1      33.513  16.858   6.631  0.00  0.00     0.133 A 
HETATM   11  N   UNK N   1      31.060  17.197   6.577  0.00  0.00    -0.340 N 
HETATM   12  C   UNK N   1      30.205  17.418   7.614  0.00  0.00     0.087 A 
HETATM   13  F   UNK N   1      35.462  16.764   9.677  0.00  0.00    -0.165 F 
HETATM   14  H   UNK N   1      30.850  17.132   5.617  0.00  0.00     0.167 HD
ENDROOT
BRANCH  12  15
HETATM   15  C   UNK N   1      28.733  17.639   7.424  0.00  0.00     0.118 C 
BRANCH  15  16
HETATM   16  C   UNK N   1      28.208  18.712   6.482  0.00  0.00    -0.015 A 
HETATM   17  C   UNK N   1      28.293  18.692   5.060  0.00  0.00     0.075 A 
HETATM   18  C   UNK N   1      27.721  19.745   4.323  0.00  0.00     0.040 A 
HETATM   19  C   UNK N   1      27.081  20.804   4.961  0.00  0.00     0.039 A 
HETATM   20  C   UNK N   1      26.999  20.838   6.350  0.00  0.00     0.068 A 
HETATM   21  C   UNK N   1      27.559  19.790   7.099  0.00  0.00     0.047 A 
BRANCH  17  22
HETATM   22  O   UNK N   1      28.904  17.675   4.412  0.00  0.00    -0.355 OA
HETATM   23  C   UNK N   1      28.229  16.639   3.805  0.00  0.00     0.210 C 
ENDBRANCH  17  22
BRANCH  20  24
HETATM   24  O   UNK N   1      26.380  21.886   6.943  0.00  0.00    -0.356 OA
HETATM   25  C   UNK N   1      25.657  21.775   8.108  0.00  0.00     0.210 C 
ENDBRANCH  20  24
ENDBRANCH  15  16
ENDBRANCH  12  15
BRANCH  10  26
HETATM   26  N   UNK N   1      33.698  16.728   5.239  0.00  0.00    -0.383 N 
HETATM   27  H   UNK N   1      34.384  16.239   4.732  0.00  0.00     0.157 HD
HETATM   28  H   UNK N   1      33.035  17.203   4.688  0.00  0.00     0.157 HD
ENDBRANCH  10  26
TORSDOF 5
ENDMDL
MODEL 8
REMARK VINA RESULT:      -6.4     11.197     14.045
REMARK  5 active torsions:
REMARK  status: ('A' for Active; 'I' for Inactive)
REMARK    1  A    between atoms: C_8  and  C_15 
REMARK    2  A    between atoms: C_8  and  C_17 
REMARK    3  A    between atoms: C_12  and  N_13 
REMARK    4  A    between atoms: C_16  and  O_24 
REMARK    5  A    between atoms: C_21  and  O_23 
ROOT
HETATM    1  N   UNK N   1      28.997  22.996  -2.446  0.00  0.00    -0.330 N 
ATOM      2  HN  UNK N   1      28.714  22.652  -1.529  1.00  0.00     0.168 HD
HETATM    3  C   UNK N   1      30.168  22.823  -3.070  0.00  0.00     0.141 A 
HETATM    4  N   UNK N   1      31.227  22.105  -2.628  0.00  0.00    -0.302 N 
ATOM      5  HN  UNK N   1      31.197  21.623  -1.731  1.00  0.00     0.171 HD
HETATM    6  C   UNK N   1      32.340  22.047  -3.422  0.00  0.00     0.269 A 
HETATM    7  N   UNK N   1      32.376  22.719  -4.621  0.00  0.00    -0.303 N 
ATOM      8  HN  UNK N   1      33.219  22.680  -5.194  1.00  0.00     0.171 HD
HETATM    9  C   UNK N   1      30.169  23.467  -4.253  0.00  0.00     0.122 A 
HETATM   10  C   UNK N   1      31.300  23.441  -5.055  0.00  0.00     0.133 A 
HETATM   11  N   UNK N   1      28.981  24.061  -4.447  0.00  0.00    -0.340 N 
HETATM   12  C   UNK N   1      28.276  23.738  -3.327  0.00  0.00     0.087 A 
HETATM   13  F   UNK N   1      33.410  21.316  -3.026  0.00  0.00    -0.165 F 
HETATM   14  H   UNK N   1      28.690  24.604  -5.215  0.00  0.00     0.167 HD
ENDROOT
BRANCH  12  15
HETATM   15  C   UNK N   1      26.876  24.218  -3.079  0.00  0.00     0.118 C 
BRANCH  15  16
HETATM   16  C   UNK N   1      26.280  25.368  -3.875  0.00  0.00    -0.015 A 
HETATM   17  C   UNK N   1      25.612  25.261  -5.128  0.00  0.00     0.075 A 
HETATM   18  C   UNK N   1      25.077  26.419  -5.723  0.00  0.00     0.040 A 
HETATM   19  C   UNK N   1      25.197  27.663  -5.109  0.00  0.00     0.039 A 
HETATM   20  C   UNK N   1      25.855  27.781  -3.888  0.00  0.00     0.068 A 
HETATM   21  C   UNK N   1      26.387  26.633  -3.279  0.00  0.00     0.047 A 
BRANCH  17  22
HETATM   22  O   UNK N   1      25.475  24.066  -5.746  0.00  0.00    -0.355 OA
HETATM   23  C   UNK N   1      26.150  23.717  -6.895  0.00  0.00     0.210 C 
ENDBRANCH  17  22
BRANCH  20  24
HETATM   24  O   UNK N   1      25.965  29.005  -3.321  0.00  0.00    -0.356 OA
HETATM   25  C   UNK N   1      26.777  29.998  -3.817  0.00  0.00     0.210 C 
ENDBRANCH  20  24
ENDBRANCH  15  16
ENDBRANCH  12  15
BRANCH  10  26
HETATM   26  N   UNK N   1      31.346  24.134  -6.283  0.00  0.00    -0.383 N 
HETATM   27  H   UNK N   1      32.116  24.463  -6.799  0.00  0.00     0.157 HD
HETATM   28  H   UNK N   1      30.468  24.317  -6.687  0.00  0.00     0.157 HD
ENDBRANCH  10  26
TORSDOF 5
ENDMDL
MODEL 9
REMARK VINA RESULT:      -6.4      1.955      2.801
REMARK  5 active torsions:
REMARK  status: ('A' for Active; 'I' for Inactive)
REMARK    1  A    between atoms: C_8  and  C_15 
REMARK    2  A    between atoms: C_8  and  C_17 
REMARK    3  A    between atoms: C_12  and  N_13 
REMARK    4  A    between atoms: C_16  and  O_24 
REMARK    5  A    between atoms: C_21  and  O_23 
ROOT
HETATM    1  N   UNK N   1      28.982  18.302   4.663  0.00  0.00    -0.330 N 
ATOM      2  HN  UNK N   1      29.905  18.640   4.394  1.00  0.00     0.168 HD
HETATM    3  C   UNK N   1      27.787  18.808   4.337  0.00  0.00     0.141 A 
HETATM    4  N   UNK N   1      27.544  19.868   3.532  0.00  0.00    -0.302 N 
ATOM      5  HN  UNK N   1      28.309  20.383   3.097  1.00  0.00     0.171 HD
HETATM    6  C   UNK N   1      26.241  20.228   3.319  0.00  0.00     0.269 A 
HETATM    7  N   UNK N   1      25.220  19.539   3.929  0.00  0.00    -0.303 N 
ATOM      8  HN  UNK N   1      24.254  19.830   3.774  1.00  0.00     0.171 HD
HETATM    9  C   UNK N   1      26.802  18.100   4.924  0.00  0.00     0.122 A 
HETATM   10  C   UNK N   1      25.478  18.471   4.740  0.00  0.00     0.133 A 
HETATM   11  N   UNK N   1      27.330  17.089   5.632  0.00  0.00    -0.340 N 
HETATM   12  C   UNK N   1      28.671  17.229   5.437  0.00  0.00     0.087 A 
HETATM   13  F   UNK N   1      25.958  21.267   2.497  0.00  0.00    -0.165 F 
HETATM   14  H   UNK N   1      26.860  16.410   6.167  0.00  0.00     0.167 HD
ENDROOT
BRANCH  12  15
HETATM   15  C   UNK N   1      29.685  16.326   6.074  0.00  0.00     0.118 C 
BRANCH  15  16
HETATM   16  C   UNK N   1      30.924  16.883   6.759  0.00  0.00    -0.015 A 
HETATM   17  C   UNK N   1      30.945  17.625   7.974  0.00  0.00     0.075 A 
HETATM   18  C   UNK N   1      32.181  18.040   8.505  0.00  0.00     0.040 A 
HETATM   19  C   UNK N   1      33.376  17.741   7.858  0.00  0.00     0.039 A 
HETATM   20  C   UNK N   1      33.368  17.024   6.666  0.00  0.00     0.068 A 
HETATM   21  C   UNK N   1      32.142  16.596   6.128  0.00  0.00     0.047 A 
BRANCH  17  22
HETATM   22  O   UNK N   1      29.800  17.926   8.628  0.00  0.00    -0.355 OA
HETATM   23  C   UNK N   1      29.753  18.668   9.788  0.00  0.00     0.210 C 
ENDBRANCH  17  22
BRANCH  20  24
HETATM   24  O   UNK N   1      34.545  16.757   6.054  0.00  0.00    -0.356 OA
HETATM   25  C   UNK N   1      34.910  15.499   5.633  0.00  0.00     0.210 C 
ENDBRANCH  20  24
ENDBRANCH  15  16
ENDBRANCH  12  15
BRANCH  10  26
HETATM   26  N   UNK N   1      24.426  17.772   5.368  0.00  0.00    -0.383 N 
HETATM   27  H   UNK N   1      23.907  16.995   5.062  0.00  0.00     0.157 HD
HETATM   28  H   UNK N   1      24.170  18.119   6.253  0.00  0.00     0.157 HD
ENDBRANCH  10  26
TORSDOF 5
ENDMDL
