REMARK  9 active torsions:
REMARK  status: ('A' for Active; 'I' for Inactive)
REMARK    1  A    between atoms: O_2  and  C_3 
REMARK    2  A    between atoms: C_5  and  O_6 
REMARK    3  A    between atoms: C_8  and  O_9 
REMARK    4  A    between atoms: C_12  and  C_13 
REMARK    5  A    between atoms: C_13  and  C_14 
REMARK    6  A    between atoms: C_18  and  N_19 
REMARK    7  A    between atoms: N_26  and  C_27 
REMARK    8  A    between atoms: C_27  and  C_28 
REMARK    9  A    between atoms: C_28  and  C_29 
ROOT
HETATM    1  C   UNK N   1       1.198  -0.706   0.096  0.00  0.00     0.089 A 
HETATM    2  N   UNK N   1       1.878   0.440   0.380  0.00  0.00    -0.339 N 
ATOM      3  HN  UNK N   1       1.497   1.339   0.675  1.00  0.00     0.167 HD
HETATM    4  C   UNK N   1       3.165   0.113   0.183  0.00  0.00     0.122 A 
HETATM    5  C   UNK N   1       4.301   0.892   0.300  0.00  0.00     0.131 A 
HETATM    6  C   UNK N   1       3.260  -1.181  -0.191  0.00  0.00     0.141 A 
HETATM    7  N   UNK N   1       4.447  -1.771  -0.469  0.00  0.00    -0.336 N 
ATOM      8  HN  UNK N   1       4.495  -2.751  -0.749  1.00  0.00     0.168 HD
HETATM    9  C   UNK N   1       5.582  -1.009  -0.361  0.00  0.00     0.183 A 
HETATM   10  N   UNK N   1       5.505   0.310   0.021  0.00  0.00    -0.337 N 
ATOM     11  HN  UNK N   1       6.360   0.862   0.096  1.00  0.00     0.168 HD
HETATM   12  N   UNK N   1       2.034  -1.720  -0.245  0.00  0.00    -0.320 N 
ENDROOT
BRANCH   1  13
HETATM   13  C   UNK N   1      -0.305  -0.842   0.152  0.00  0.00     0.115 C 
BRANCH  13  14
HETATM   14  C   UNK N   1      -1.105   0.434   0.051  0.00  0.00    -0.046 A 
HETATM   15  C   UNK N   1      -0.500   1.676  -0.153  0.00  0.00     0.047 A 
HETATM   16  C   UNK N   1      -1.241   2.852  -0.226  0.00  0.00     0.104 A 
HETATM   17  C   UNK N   1      -2.664   2.788  -0.122  0.00  0.00     0.135 A 
HETATM   18  C   UNK N   1      -3.276   1.534   0.072  0.00  0.00     0.104 A 
HETATM   19  C   UNK N   1      -2.491   0.370   0.161  0.00  0.00     0.047 A 
BRANCH  16  20
HETATM   20  O   UNK N   1      -0.555   4.004  -0.387  0.00  0.00    -0.353 OA
HETATM   21  C   UNK N   1      -0.544   4.984   0.578  0.00  0.00     0.210 C 
ENDBRANCH  16  20
BRANCH  17  22
HETATM   22  O   UNK N   1      -3.481   3.872  -0.224  0.00  0.00    -0.351 OA
HETATM   23  C   UNK N   1      -3.123   5.119  -0.676  0.00  0.00     0.210 C 
ENDBRANCH  17  22
BRANCH  18  24
HETATM   24  O   UNK N   1      -4.628   1.470   0.157  0.00  0.00    -0.353 OA
HETATM   25  C   UNK N   1      -5.324   0.289   0.296  0.00  0.00     0.210 C 
ENDBRANCH  18  24
ENDBRANCH  13  14
ENDBRANCH   1  13
BRANCH  12  26
HETATM   26  C   UNK N   1       1.663  -3.082  -0.604  0.00  0.00     0.132 C 
BRANCH  26  27
HETATM   27  C   UNK N   1       1.984  -4.023   0.544  0.00  0.00     0.020 C 
BRANCH  27  28
HETATM   28  C   UNK N   1       1.433  -5.405   0.256  0.00  0.00    -0.003 C 
HETATM   29  C   UNK N   1       2.537  -6.297  -0.273  0.00  0.00     0.005 C 
ENDBRANCH  27  28
ENDBRANCH  26  27
ENDBRANCH  12  26
BRANCH   5  30
HETATM   30  N   UNK N   1       4.224   2.246   0.686  0.00  0.00    -0.383 N 
HETATM   31  H   UNK N   1       5.017   2.765   0.955  0.00  0.00     0.157 HD
HETATM   32  H   UNK N   1       3.346   2.689   0.686  0.00  0.00     0.157 HD
ENDBRANCH   5  30
TORSDOF 9
