MODEL 1
REMARK VINA RESULT:      -6.7      0.000      0.000
REMARK  9 active torsions:
REMARK  status: ('A' for Active; 'I' for Inactive)
REMARK    1  A    between atoms: O_2  and  C_3 
REMARK    2  A    between atoms: C_5  and  O_6 
REMARK    3  A    between atoms: C_8  and  O_9 
REMARK    4  A    between atoms: C_12  and  C_13 
REMARK    5  A    between atoms: C_13  and  C_14 
REMARK    6  A    between atoms: C_18  and  N_19 
REMARK    7  A    between atoms: N_26  and  C_27 
REMARK    8  A    between atoms: C_27  and  C_28 
REMARK    9  A    between atoms: C_28  and  C_29 
ROOT
HETATM    1  C   UNK N   1      22.381  17.313   4.139  0.00  0.00     0.089 A 
HETATM    2  N   UNK N   1      21.170  17.232   3.520  0.00  0.00    -0.339 N 
ATOM      3  HN  UNK N   1      20.525  16.442   3.506  1.00  0.00     0.167 HD
HETATM    4  C   UNK N   1      21.021  18.431   2.936  0.00  0.00     0.122 A 
HETATM    5  C   UNK N   1      19.987  18.908   2.152  0.00  0.00     0.131 A 
HETATM    6  C   UNK N   1      22.092  19.210   3.202  0.00  0.00     0.141 A 
HETATM    7  N   UNK N   1      22.209  20.471   2.722  0.00  0.00    -0.336 N 
ATOM      8  HN  UNK N   1      23.027  21.042   2.937  1.00  0.00     0.168 HD
HETATM    9  C   UNK N   1      21.193  20.956   1.939  0.00  0.00     0.183 A 
HETATM   10  N   UNK N   1      20.093  20.178   1.660  0.00  0.00    -0.337 N 
ATOM     11  HN  UNK N   1      19.347  20.555   1.075  1.00  0.00     0.168 HD
HETATM   12  N   UNK N   1      22.958  18.529   3.965  0.00  0.00    -0.320 N 
ENDROOT
BRANCH   1  13
HETATM   13  C   UNK N   1      23.014  16.190   4.926  0.00  0.00     0.115 C 
BRANCH  13  14
HETATM   14  C   UNK N   1      22.184  15.589   6.034  0.00  0.00    -0.046 A 
HETATM   15  C   UNK N   1      21.888  14.225   6.084  0.00  0.00     0.047 A 
HETATM   16  C   UNK N   1      21.106  13.678   7.098  0.00  0.00     0.104 A 
HETATM   17  C   UNK N   1      20.617  14.528   8.137  0.00  0.00     0.135 A 
HETATM   18  C   UNK N   1      20.925  15.902   8.094  0.00  0.00     0.104 A 
HETATM   19  C   UNK N   1      21.701  16.420   7.041  0.00  0.00     0.047 A 
BRANCH  16  20
HETATM   20  O   UNK N   1      20.848  12.355   7.031  0.00  0.00    -0.353 OA
HETATM   21  C   UNK N   1      21.842  11.430   6.808  0.00  0.00     0.210 C 
ENDBRANCH  16  20
BRANCH  17  22
HETATM   22  O   UNK N   1      19.882  14.086   9.194  0.00  0.00    -0.351 OA
HETATM   23  C   UNK N   1      20.356  13.383  10.275  0.00  0.00     0.210 C 
ENDBRANCH  17  22
BRANCH  18  24
HETATM   24  O   UNK N   1      20.472  16.707   9.087  0.00  0.00    -0.353 OA
HETATM   25  C   UNK N   1      19.545  17.706   8.889  0.00  0.00     0.210 C 
ENDBRANCH  18  24
ENDBRANCH  13  14
ENDBRANCH   1  13
BRANCH  12  26
HETATM   26  C   UNK N   1      24.244  18.975   4.485  0.00  0.00     0.132 C 
BRANCH  26  27
HETATM   27  C   UNK N   1      25.294  18.906   3.390  0.00  0.00     0.020 C 
BRANCH  27  28
HETATM   28  C   UNK N   1      26.040  20.222   3.298  0.00  0.00    -0.003 C 
HETATM   29  C   UNK N   1      26.895  20.414   4.534  0.00  0.00     0.005 C 
ENDBRANCH  27  28
ENDBRANCH  26  27
ENDBRANCH  12  26
BRANCH   5  30
HETATM   30  N   UNK N   1      18.862  18.110   1.859  0.00  0.00    -0.383 N 
HETATM   31  H   UNK N   1      18.098  18.446   1.335  0.00  0.00     0.157 HD
HETATM   32  H   UNK N   1      18.839  17.185   2.190  0.00  0.00     0.157 HD
ENDBRANCH   5  30
TORSDOF 9
ENDMDL
MODEL 2
REMARK VINA RESULT:      -6.4     15.470     17.151
REMARK  9 active torsions:
REMARK  status: ('A' for Active; 'I' for Inactive)
REMARK    1  A    between atoms: O_2  and  C_3 
REMARK    2  A    between atoms: C_5  and  O_6 
REMARK    3  A    between atoms: C_8  and  O_9 
REMARK    4  A    between atoms: C_12  and  C_13 
REMARK    5  A    between atoms: C_13  and  C_14 
REMARK    6  A    between atoms: C_18  and  N_19 
REMARK    7  A    between atoms: N_26  and  C_27 
REMARK    8  A    between atoms: C_27  and  C_28 
REMARK    9  A    between atoms: C_28  and  C_29 
ROOT
HETATM    1  C   UNK N   1      36.470  13.173  12.408  0.00  0.00     0.089 A 
HETATM    2  N   UNK N   1      36.331  14.517  12.233  0.00  0.00    -0.339 N 
ATOM      3  HN  UNK N   1      36.846  15.267  12.694  1.00  0.00     0.167 HD
HETATM    4  C   UNK N   1      35.359  14.627  11.313  0.00  0.00     0.122 A 
HETATM    5  C   UNK N   1      34.786  15.760  10.767  0.00  0.00     0.131 A 
HETATM    6  C   UNK N   1      34.939  13.400  10.938  0.00  0.00     0.141 A 
HETATM    7  N   UNK N   1      33.952  13.218  10.029  0.00  0.00    -0.336 N 
ATOM      8  HN  UNK N   1      33.651  12.281   9.759  1.00  0.00     0.168 HD
HETATM    9  C   UNK N   1      33.371  14.333   9.481  0.00  0.00     0.183 A 
HETATM   10  N   UNK N   1      33.788  15.591   9.849  0.00  0.00    -0.337 N 
ATOM     11  HN  UNK N   1      33.345  16.409   9.431  1.00  0.00     0.168 HD
HETATM   12  N   UNK N   1      35.630  12.468  11.609  0.00  0.00    -0.320 N 
ENDROOT
BRANCH   1  13
HETATM   13  C   UNK N   1      37.441  12.535  13.373  0.00  0.00     0.115 C 
BRANCH  13  14
HETATM   14  C   UNK N   1      36.882  12.092  14.703  0.00  0.00    -0.046 A 
HETATM   15  C   UNK N   1      37.123  10.819  15.223  0.00  0.00     0.047 A 
HETATM   16  C   UNK N   1      36.589  10.408  16.441  0.00  0.00     0.104 A 
HETATM   17  C   UNK N   1      35.798  11.324  17.200  0.00  0.00     0.135 A 
HETATM   18  C   UNK N   1      35.564  12.613  16.682  0.00  0.00     0.104 A 
HETATM   19  C   UNK N   1      36.105  12.983  15.437  0.00  0.00     0.047 A 
BRANCH  16  20
HETATM   20  O   UNK N   1      36.852   9.143  16.835  0.00  0.00    -0.353 OA
HETATM   21  C   UNK N   1      36.013   8.098  16.527  0.00  0.00     0.210 C 
ENDBRANCH  16  20
BRANCH  17  22
HETATM   22  O   UNK N   1      35.268  11.036  18.421  0.00  0.00    -0.351 OA
HETATM   23  C   UNK N   1      35.951  10.986  19.612  0.00  0.00     0.210 C 
ENDBRANCH  17  22
BRANCH  18  24
HETATM   24  O   UNK N   1      34.825  13.487  17.408  0.00  0.00    -0.353 OA
HETATM   25  C   UNK N   1      35.374  14.508  18.154  0.00  0.00     0.210 C 
ENDBRANCH  18  24
ENDBRANCH  13  14
ENDBRANCH   1  13
BRANCH  12  26
HETATM   26  C   UNK N   1      35.507  11.019  11.523  0.00  0.00     0.132 C 
BRANCH  26  27
HETATM   27  C   UNK N   1      34.143  10.587  12.032  0.00  0.00     0.020 C 
BRANCH  27  28
HETATM   28  C   UNK N   1      34.276   9.933  13.393  0.00  0.00    -0.003 C 
HETATM   29  C   UNK N   1      33.461  10.702  14.412  0.00  0.00     0.005 C 
ENDBRANCH  27  28
ENDBRANCH  26  27
ENDBRANCH  12  26
BRANCH   5  30
HETATM   30  N   UNK N   1      35.208  17.051  11.147  0.00  0.00    -0.383 N 
HETATM   31  H   UNK N   1      34.856  17.508  11.945  0.00  0.00     0.157 HD
HETATM   32  H   UNK N   1      35.879  17.511  10.595  0.00  0.00     0.157 HD
ENDBRANCH   5  30
TORSDOF 9
ENDMDL
MODEL 3
REMARK VINA RESULT:      -6.4      0.582      2.508
REMARK  9 active torsions:
REMARK  status: ('A' for Active; 'I' for Inactive)
REMARK    1  A    between atoms: O_2  and  C_3 
REMARK    2  A    between atoms: C_5  and  O_6 
REMARK    3  A    between atoms: C_8  and  O_9 
REMARK    4  A    between atoms: C_12  and  C_13 
REMARK    5  A    between atoms: C_13  and  C_14 
REMARK    6  A    between atoms: C_18  and  N_19 
REMARK    7  A    between atoms: N_26  and  C_27 
REMARK    8  A    between atoms: C_27  and  C_28 
REMARK    9  A    between atoms: C_28  and  C_29 
ROOT
HETATM    1  C   UNK N   1      22.566  17.145   4.086  0.00  0.00     0.089 A 
HETATM    2  N   UNK N   1      21.359  17.035   3.464  0.00  0.00    -0.339 N 
ATOM      3  HN  UNK N   1      20.765  16.209   3.389  1.00  0.00     0.167 HD
HETATM    4  C   UNK N   1      21.132  18.263   2.973  0.00  0.00     0.122 A 
HETATM    5  C   UNK N   1      20.066  18.732   2.228  0.00  0.00     0.131 A 
HETATM    6  C   UNK N   1      22.153  19.085   3.297  0.00  0.00     0.141 A 
HETATM    7  N   UNK N   1      22.188  20.384   2.914  0.00  0.00    -0.336 N 
ATOM      8  HN  UNK N   1      22.970  20.988   3.172  1.00  0.00     0.168 HD
HETATM    9  C   UNK N   1      21.139  20.862   2.172  0.00  0.00     0.183 A 
HETATM   10  N   UNK N   1      20.089  20.040   1.834  0.00  0.00    -0.337 N 
ATOM     11  HN  UNK N   1      19.317  20.413   1.281  1.00  0.00     0.168 HD
HETATM   12  N   UNK N   1      23.065  18.405   4.005  0.00  0.00    -0.320 N 
ENDROOT
BRANCH   1  13
HETATM   13  C   UNK N   1      23.272  16.007   4.785  0.00  0.00     0.115 C 
BRANCH  13  14
HETATM   14  C   UNK N   1      22.531  15.345   5.921  0.00  0.00    -0.046 A 
HETATM   15  C   UNK N   1      21.837  16.081   6.884  0.00  0.00     0.047 A 
HETATM   16  C   UNK N   1      21.171  15.467   7.940  0.00  0.00     0.104 A 
HETATM   17  C   UNK N   1      21.167  14.041   8.028  0.00  0.00     0.135 A 
HETATM   18  C   UNK N   1      21.857  13.298   7.051  0.00  0.00     0.104 A 
HETATM   19  C   UNK N   1      22.536  13.956   6.009  0.00  0.00     0.047 A 
BRANCH  16  20
HETATM   20  O   UNK N   1      20.563  16.272   8.838  0.00  0.00    -0.353 OA
HETATM   21  C   UNK N   1      19.307  16.787   8.618  0.00  0.00     0.210 C 
ENDBRANCH  16  20
BRANCH  17  22
HETATM   22  O   UNK N   1      20.511  13.343   8.995  0.00  0.00    -0.351 OA
HETATM   23  C   UNK N   1      20.969  13.089  10.265  0.00  0.00     0.210 C 
ENDBRANCH  17  22
BRANCH  18  24
HETATM   24  O   UNK N   1      21.843  11.944   7.125  0.00  0.00    -0.353 OA
HETATM   25  C   UNK N   1      22.959  11.188   7.415  0.00  0.00     0.210 C 
ENDBRANCH  18  24
ENDBRANCH  13  14
ENDBRANCH   1  13
BRANCH  12  26
HETATM   26  C   UNK N   1      24.323  18.889   4.557  0.00  0.00     0.132 C 
BRANCH  26  27
HETATM   27  C   UNK N   1      25.411  18.815   3.500  0.00  0.00     0.020 C 
BRANCH  27  28
HETATM   28  C   UNK N   1      26.162  20.130   3.430  0.00  0.00    -0.003 C 
HETATM   29  C   UNK N   1      27.428  20.042   4.256  0.00  0.00     0.005 C 
ENDBRANCH  27  28
ENDBRANCH  26  27
ENDBRANCH  12  26
BRANCH   5  30
HETATM   30  N   UNK N   1      18.991  17.890   1.876  0.00  0.00    -0.383 N 
HETATM   31  H   UNK N   1      18.264  17.670   2.504  0.00  0.00     0.157 HD
HETATM   32  H   UNK N   1      18.966  17.508   0.970  0.00  0.00     0.157 HD
ENDBRANCH   5  30
TORSDOF 9
ENDMDL
MODEL 4
REMARK VINA RESULT:      -6.3      8.715     10.925
REMARK  9 active torsions:
REMARK  status: ('A' for Active; 'I' for Inactive)
REMARK    1  A    between atoms: O_2  and  C_3 
REMARK    2  A    between atoms: C_5  and  O_6 
REMARK    3  A    between atoms: C_8  and  O_9 
REMARK    4  A    between atoms: C_12  and  C_13 
REMARK    5  A    between atoms: C_13  and  C_14 
REMARK    6  A    between atoms: C_18  and  N_19 
REMARK    7  A    between atoms: N_26  and  C_27 
REMARK    8  A    between atoms: C_27  and  C_28 
REMARK    9  A    between atoms: C_28  and  C_29 
ROOT
HETATM    1  C   UNK N   1      30.367  16.275   6.393  0.00  0.00     0.089 A 
HETATM    2  N   UNK N   1      29.625  16.758   7.428  0.00  0.00    -0.339 N 
ATOM      3  HN  UNK N   1      29.592  16.417   8.389  1.00  0.00     0.167 HD
HETATM    4  C   UNK N   1      28.948  17.785   6.892  0.00  0.00     0.122 A 
HETATM    5  C   UNK N   1      28.023  18.632   7.475  0.00  0.00     0.131 A 
HETATM    6  C   UNK N   1      29.278  17.927   5.590  0.00  0.00     0.141 A 
HETATM    7  N   UNK N   1      28.729  18.882   4.802  0.00  0.00    -0.336 N 
ATOM      8  HN  UNK N   1      28.995  18.971   3.821  1.00  0.00     0.168 HD
HETATM    9  C   UNK N   1      27.807  19.726   5.366  0.00  0.00     0.183 A 
HETATM   10  N   UNK N   1      27.461  19.599   6.691  0.00  0.00    -0.337 N 
ATOM     11  HN  UNK N   1      26.773  20.236   7.093  1.00  0.00     0.168 HD
HETATM   12  N   UNK N   1      30.176  16.991   5.255  0.00  0.00    -0.320 N 
ENDROOT
BRANCH   1  13
HETATM   13  C   UNK N   1      31.294  15.086   6.489  0.00  0.00     0.115 C 
BRANCH  13  14
HETATM   14  C   UNK N   1      32.354  15.139   7.563  0.00  0.00    -0.046 A 
HETATM   15  C   UNK N   1      32.774  13.998   8.249  0.00  0.00     0.047 A 
HETATM   16  C   UNK N   1      33.737  14.055   9.252  0.00  0.00     0.104 A 
HETATM   17  C   UNK N   1      34.339  15.310   9.570  0.00  0.00     0.135 A 
HETATM   18  C   UNK N   1      33.924  16.461   8.871  0.00  0.00     0.104 A 
HETATM   19  C   UNK N   1      32.933  16.365   7.878  0.00  0.00     0.047 A 
BRANCH  16  20
HETATM   20  O   UNK N   1      34.045  12.899   9.878  0.00  0.00    -0.353 OA
HETATM   21  C   UNK N   1      34.514  11.803   9.192  0.00  0.00     0.210 C 
ENDBRANCH  16  20
BRANCH  17  22
HETATM   22  O   UNK N   1      35.320  15.466  10.502  0.00  0.00    -0.351 OA
HETATM   23  C   UNK N   1      36.634  15.088  10.369  0.00  0.00     0.210 C 
ENDBRANCH  17  22
BRANCH  18  24
HETATM   24  O   UNK N   1      34.505  17.651   9.163  0.00  0.00    -0.353 OA
HETATM   25  C   UNK N   1      34.682  18.656   8.237  0.00  0.00     0.210 C 
ENDBRANCH  18  24
ENDBRANCH  13  14
ENDBRANCH   1  13
BRANCH  12  26
HETATM   26  C   UNK N   1      30.805  16.768   3.960  0.00  0.00     0.132 C 
BRANCH  26  27
HETATM   27  C   UNK N   1      32.067  17.605   3.849  0.00  0.00     0.020 C 
BRANCH  27  28
HETATM   28  C   UNK N   1      33.291  16.711   3.880  0.00  0.00    -0.003 C 
HETATM   29  C   UNK N   1      33.046  15.477   3.037  0.00  0.00     0.005 C 
ENDBRANCH  27  28
ENDBRANCH  26  27
ENDBRANCH  12  26
BRANCH   5  30
HETATM   30  N   UNK N   1      27.662  18.500   8.831  0.00  0.00    -0.383 N 
HETATM   31  H   UNK N   1      27.934  17.727   9.378  0.00  0.00     0.157 HD
HETATM   32  H   UNK N   1      27.118  19.206   9.247  0.00  0.00     0.157 HD
ENDBRANCH   5  30
TORSDOF 9
ENDMDL
MODEL 5
REMARK VINA RESULT:      -6.2      8.713     11.128
REMARK  9 active torsions:
REMARK  status: ('A' for Active; 'I' for Inactive)
REMARK    1  A    between atoms: O_2  and  C_3 
REMARK    2  A    between atoms: C_5  and  O_6 
REMARK    3  A    between atoms: C_8  and  O_9 
REMARK    4  A    between atoms: C_12  and  C_13 
REMARK    5  A    between atoms: C_13  and  C_14 
REMARK    6  A    between atoms: C_18  and  N_19 
REMARK    7  A    between atoms: N_26  and  C_27 
REMARK    8  A    between atoms: C_27  and  C_28 
REMARK    9  A    between atoms: C_28  and  C_29 
ROOT
HETATM    1  C   UNK N   1      30.294  16.242   6.354  0.00  0.00     0.089 A 
HETATM    2  N   UNK N   1      29.573  16.748   7.393  0.00  0.00    -0.339 N 
ATOM      3  HN  UNK N   1      29.539  16.412   8.356  1.00  0.00     0.167 HD
HETATM    4  C   UNK N   1      28.917  17.790   6.858  0.00  0.00     0.122 A 
HETATM    5  C   UNK N   1      28.018  18.661   7.444  0.00  0.00     0.131 A 
HETATM    6  C   UNK N   1      29.239  17.917   5.553  0.00  0.00     0.141 A 
HETATM    7  N   UNK N   1      28.708  18.882   4.765  0.00  0.00    -0.336 N 
ATOM      8  HN  UNK N   1      28.968  18.960   3.781  1.00  0.00     0.168 HD
HETATM    9  C   UNK N   1      27.812  19.751   5.332  0.00  0.00     0.183 A 
HETATM   10  N   UNK N   1      27.473  19.639   6.660  0.00  0.00    -0.337 N 
ATOM     11  HN  UNK N   1      26.805  20.294   7.066  1.00  0.00     0.168 HD
HETATM   12  N   UNK N   1      30.112  16.958   5.215  0.00  0.00    -0.320 N 
ENDROOT
BRANCH   1  13
HETATM   13  C   UNK N   1      31.193  15.032   6.449  0.00  0.00     0.115 C 
BRANCH  13  14
HETATM   14  C   UNK N   1      32.368  15.132   7.390  0.00  0.00    -0.046 A 
HETATM   15  C   UNK N   1      32.824  16.358   7.881  0.00  0.00     0.047 A 
HETATM   16  C   UNK N   1      33.920  16.446   8.734  0.00  0.00     0.104 A 
HETATM   17  C   UNK N   1      34.581  15.249   9.148  0.00  0.00     0.135 A 
HETATM   18  C   UNK N   1      34.114  14.012   8.663  0.00  0.00     0.104 A 
HETATM   19  C   UNK N   1      33.015  13.965   7.786  0.00  0.00     0.047 A 
BRANCH  16  20
HETATM   20  O   UNK N   1      34.303  17.682   9.120  0.00  0.00    -0.353 OA
HETATM   21  C   UNK N   1      34.665  18.648   8.210  0.00  0.00     0.210 C 
ENDBRANCH  16  20
BRANCH  17  22
HETATM   22  O   UNK N   1      35.633  15.224  10.012  0.00  0.00    -0.351 OA
HETATM   23  C   UNK N   1      35.563  15.344  11.379  0.00  0.00     0.210 C 
ENDBRANCH  17  22
BRANCH  18  24
HETATM   24  O   UNK N   1      34.732  12.874   9.066  0.00  0.00    -0.353 OA
HETATM   25  C   UNK N   1      34.073  11.828   9.675  0.00  0.00     0.210 C 
ENDBRANCH  18  24
ENDBRANCH  13  14
ENDBRANCH   1  13
BRANCH  12  26
HETATM   26  C   UNK N   1      30.724  16.713   3.916  0.00  0.00     0.132 C 
BRANCH  26  27
HETATM   27  C   UNK N   1      32.033  17.476   3.811  0.00  0.00     0.020 C 
BRANCH  27  28
HETATM   28  C   UNK N   1      33.193  16.508   3.691  0.00  0.00    -0.003 C 
HETATM   29  C   UNK N   1      32.718  15.215   3.060  0.00  0.00     0.005 C 
ENDBRANCH  27  28
ENDBRANCH  26  27
ENDBRANCH  12  26
BRANCH   5  30
HETATM   30  N   UNK N   1      27.665  18.544   8.804  0.00  0.00    -0.383 N 
HETATM   31  H   UNK N   1      28.259  18.840   9.532  0.00  0.00     0.157 HD
HETATM   32  H   UNK N   1      26.792  18.153   9.035  0.00  0.00     0.157 HD
ENDBRANCH   5  30
TORSDOF 9
ENDMDL
MODEL 6
REMARK VINA RESULT:      -6.2     13.219     15.853
REMARK  9 active torsions:
REMARK  status: ('A' for Active; 'I' for Inactive)
REMARK    1  A    between atoms: O_2  and  C_3 
REMARK    2  A    between atoms: C_5  and  O_6 
REMARK    3  A    between atoms: C_8  and  O_9 
REMARK    4  A    between atoms: C_12  and  C_13 
REMARK    5  A    between atoms: C_13  and  C_14 
REMARK    6  A    between atoms: C_18  and  N_19 
REMARK    7  A    between atoms: N_26  and  C_27 
REMARK    8  A    between atoms: C_27  and  C_28 
REMARK    9  A    between atoms: C_28  and  C_29 
ROOT
HETATM    1  C   UNK N   1      26.554  23.925  -5.221  0.00  0.00     0.089 A 
HETATM    2  N   UNK N   1      25.435  23.440  -5.828  0.00  0.00    -0.339 N 
ATOM      3  HN  UNK N   1      24.461  23.642  -5.602  1.00  0.00     0.167 HD
HETATM    4  C   UNK N   1      25.909  22.637  -6.794  0.00  0.00     0.122 A 
HETATM    5  C   UNK N   1      25.225  21.862  -7.711  0.00  0.00     0.131 A 
HETATM    6  C   UNK N   1      27.259  22.646  -6.780  0.00  0.00     0.141 A 
HETATM    7  N   UNK N   1      27.999  21.910  -7.642  0.00  0.00    -0.336 N 
ATOM      8  HN  UNK N   1      29.019  21.933  -7.614  1.00  0.00     0.168 HD
HETATM    9  C   UNK N   1      27.334  21.133  -8.555  0.00  0.00     0.183 A 
HETATM   10  N   UNK N   1      25.959  21.112  -8.586  0.00  0.00    -0.337 N 
ATOM     11  HN  UNK N   1      25.480  20.528  -9.273  1.00  0.00     0.168 HD
HETATM   12  N   UNK N   1      27.688  23.457  -5.802  0.00  0.00    -0.320 N 
ENDROOT
BRANCH   1  13
HETATM   13  C   UNK N   1      26.544  24.869  -4.043  0.00  0.00     0.115 C 
BRANCH  13  14
HETATM   14  C   UNK N   1      26.785  26.329  -4.343  0.00  0.00    -0.046 A 
HETATM   15  C   UNK N   1      27.011  26.793  -5.641  0.00  0.00     0.047 A 
HETATM   16  C   UNK N   1      27.252  28.138  -5.909  0.00  0.00     0.104 A 
HETATM   17  C   UNK N   1      27.237  29.078  -4.834  0.00  0.00     0.135 A 
HETATM   18  C   UNK N   1      26.998  28.612  -3.527  0.00  0.00     0.104 A 
HETATM   19  C   UNK N   1      26.779  27.242  -3.293  0.00  0.00     0.047 A 
BRANCH  16  20
HETATM   20  O   UNK N   1      27.496  28.475  -7.194  0.00  0.00    -0.353 OA
HETATM   21  C   UNK N   1      28.752  28.372  -7.746  0.00  0.00     0.210 C 
ENDBRANCH  16  20
BRANCH  17  22
HETATM   22  O   UNK N   1      27.418  30.417  -4.996  0.00  0.00    -0.351 OA
HETATM   23  C   UNK N   1      28.621  31.061  -5.156  0.00  0.00     0.210 C 
ENDBRANCH  17  22
BRANCH  18  24
HETATM   24  O   UNK N   1      26.970  29.505  -2.507  0.00  0.00    -0.353 OA
HETATM   25  C   UNK N   1      28.029  29.712  -1.650  0.00  0.00     0.210 C 
ENDBRANCH  18  24
ENDBRANCH  13  14
ENDBRANCH   1  13
BRANCH  12  26
HETATM   26  C   UNK N   1      29.061  23.764  -5.424  0.00  0.00     0.132 C 
BRANCH  26  27
HETATM   27  C   UNK N   1      29.567  22.729  -4.435  0.00  0.00     0.020 C 
BRANCH  27  28
HETATM   28  C   UNK N   1      29.986  23.402  -3.143  0.00  0.00    -0.003 C 
HETATM   29  C   UNK N   1      29.047  22.997  -2.026  0.00  0.00     0.005 C 
ENDBRANCH  27  28
ENDBRANCH  26  27
ENDBRANCH  12  26
BRANCH   5  30
HETATM   30  N   UNK N   1      23.815  21.835  -7.741  0.00  0.00    -0.383 N 
HETATM   31  H   UNK N   1      23.298  21.019  -7.549  0.00  0.00     0.157 HD
HETATM   32  H   UNK N   1      23.331  22.662  -7.961  0.00  0.00     0.157 HD
ENDBRANCH   5  30
TORSDOF 9
ENDMDL
MODEL 7
REMARK VINA RESULT:      -6.2      4.160      6.983
REMARK  9 active torsions:
REMARK  status: ('A' for Active; 'I' for Inactive)
REMARK    1  A    between atoms: O_2  and  C_3 
REMARK    2  A    between atoms: C_5  and  O_6 
REMARK    3  A    between atoms: C_8  and  O_9 
REMARK    4  A    between atoms: C_12  and  C_13 
REMARK    5  A    between atoms: C_13  and  C_14 
REMARK    6  A    between atoms: C_18  and  N_19 
REMARK    7  A    between atoms: N_26  and  C_27 
REMARK    8  A    between atoms: C_27  and  C_28 
REMARK    9  A    between atoms: C_28  and  C_29 
ROOT
HETATM    1  C   UNK N   1      27.129  18.328   4.808  0.00  0.00     0.089 A 
HETATM    2  N   UNK N   1      27.036  18.679   6.121  0.00  0.00    -0.339 N 
ATOM      3  HN  UNK N   1      26.341  19.282   6.561  1.00  0.00     0.167 HD
HETATM    4  C   UNK N   1      28.068  18.048   6.702  0.00  0.00     0.122 A 
HETATM    5  C   UNK N   1      28.480  18.059   8.021  0.00  0.00     0.131 A 
HETATM    6  C   UNK N   1      28.750  17.333   5.780  0.00  0.00     0.141 A 
HETATM    7  N   UNK N   1      29.850  16.608   6.092  0.00  0.00    -0.336 N 
ATOM      8  HN  UNK N   1      30.349  16.075   5.379  1.00  0.00     0.168 HD
HETATM    9  C   UNK N   1      30.272  16.613   7.397  0.00  0.00     0.183 A 
HETATM   10  N   UNK N   1      29.589  17.333   8.350  0.00  0.00    -0.337 N 
ATOM     11  HN  UNK N   1      29.918  17.325   9.316  1.00  0.00     0.168 HD
HETATM   12  N   UNK N   1      28.172  17.488   4.581  0.00  0.00    -0.320 N 
ENDROOT
BRANCH   1  13
HETATM   13  C   UNK N   1      26.190  18.809   3.727  0.00  0.00     0.115 C 
BRANCH  13  14
HETATM   14  C   UNK N   1      24.723  18.514   3.924  0.00  0.00    -0.046 A 
HETATM   15  C   UNK N   1      24.272  17.293   4.429  0.00  0.00     0.047 A 
HETATM   16  C   UNK N   1      22.917  17.018   4.590  0.00  0.00     0.104 A 
HETATM   17  C   UNK N   1      21.958  18.024   4.261  0.00  0.00     0.135 A 
HETATM   18  C   UNK N   1      22.412  19.261   3.762  0.00  0.00     0.104 A 
HETATM   19  C   UNK N   1      23.790  19.492   3.595  0.00  0.00     0.047 A 
BRANCH  16  20
HETATM   20  O   UNK N   1      22.586  15.793   5.050  0.00  0.00    -0.353 OA
HETATM   21  C   UNK N   1      22.553  15.506   6.395  0.00  0.00     0.210 C 
ENDBRANCH  16  20
BRANCH  17  22
HETATM   22  O   UNK N   1      20.615  17.872   4.423  0.00  0.00    -0.351 OA
HETATM   23  C   UNK N   1      19.765  17.204   3.575  0.00  0.00     0.210 C 
ENDBRANCH  17  22
BRANCH  18  24
HETATM   24  O   UNK N   1      21.503  20.221   3.463  0.00  0.00    -0.353 OA
HETATM   25  C   UNK N   1      21.163  20.567   2.173  0.00  0.00     0.210 C 
ENDBRANCH  18  24
ENDBRANCH  13  14
ENDBRANCH   1  13
BRANCH  12  26
HETATM   26  C   UNK N   1      28.570  16.906   3.306  0.00  0.00     0.132 C 
BRANCH  26  27
HETATM   27  C   UNK N   1      27.968  15.520   3.162  0.00  0.00     0.020 C 
BRANCH  27  28
HETATM   28  C   UNK N   1      26.814  15.551   2.180  0.00  0.00    -0.003 C 
HETATM   29  C   UNK N   1      25.817  14.465   2.525  0.00  0.00     0.005 C 
ENDBRANCH  27  28
ENDBRANCH  26  27
ENDBRANCH  12  26
BRANCH   5  30
HETATM   30  N   UNK N   1      27.785  18.801   8.999  0.00  0.00    -0.383 N 
HETATM   31  H   UNK N   1      27.561  18.430   9.884  0.00  0.00     0.157 HD
HETATM   32  H   UNK N   1      27.514  19.723   8.789  0.00  0.00     0.157 HD
ENDBRANCH   5  30
TORSDOF 9
ENDMDL
MODEL 8
REMARK VINA RESULT:      -6.1     13.995     16.014
REMARK  9 active torsions:
REMARK  status: ('A' for Active; 'I' for Inactive)
REMARK    1  A    between atoms: O_2  and  C_3 
REMARK    2  A    between atoms: C_5  and  O_6 
REMARK    3  A    between atoms: C_8  and  O_9 
REMARK    4  A    between atoms: C_12  and  C_13 
REMARK    5  A    between atoms: C_13  and  C_14 
REMARK    6  A    between atoms: C_18  and  N_19 
REMARK    7  A    between atoms: N_26  and  C_27 
REMARK    8  A    between atoms: C_27  and  C_28 
REMARK    9  A    between atoms: C_28  and  C_29 
ROOT
HETATM    1  C   UNK N   1      26.563  23.967  -5.170  0.00  0.00     0.089 A 
HETATM    2  N   UNK N   1      25.455  23.485  -5.800  0.00  0.00    -0.339 N 
ATOM      3  HN  UNK N   1      24.477  23.683  -5.589  1.00  0.00     0.167 HD
HETATM    4  C   UNK N   1      25.948  22.689  -6.762  0.00  0.00     0.122 A 
HETATM    5  C   UNK N   1      25.281  21.919  -7.697  0.00  0.00     0.131 A 
HETATM    6  C   UNK N   1      27.298  22.701  -6.725  0.00  0.00     0.141 A 
HETATM    7  N   UNK N   1      28.054  21.973  -7.580  0.00  0.00    -0.336 N 
ATOM      8  HN  UNK N   1      29.073  21.998  -7.534  1.00  0.00     0.168 HD
HETATM    9  C   UNK N   1      27.406  21.200  -8.510  0.00  0.00     0.183 A 
HETATM   10  N   UNK N   1      26.032  21.178  -8.565  0.00  0.00    -0.337 N 
ATOM     11  HN  UNK N   1      25.567  20.597  -9.263  1.00  0.00     0.168 HD
HETATM   12  N   UNK N   1      27.708  23.506  -5.735  0.00  0.00    -0.320 N 
ENDROOT
BRANCH   1  13
HETATM   13  C   UNK N   1      26.531  24.904  -3.986  0.00  0.00     0.115 C 
BRANCH  13  14
HETATM   14  C   UNK N   1      26.787  26.364  -4.269  0.00  0.00    -0.046 A 
HETATM   15  C   UNK N   1      26.800  27.326  -3.258  0.00  0.00     0.047 A 
HETATM   16  C   UNK N   1      27.017  28.674  -3.527  0.00  0.00     0.104 A 
HETATM   17  C   UNK N   1      27.267  29.086  -4.872  0.00  0.00     0.135 A 
HETATM   18  C   UNK N   1      27.266  28.114  -5.892  0.00  0.00     0.104 A 
HETATM   19  C   UNK N   1      27.022  26.763  -5.582  0.00  0.00     0.047 A 
BRANCH  16  20
HETATM   20  O   UNK N   1      26.971  29.528  -2.482  0.00  0.00    -0.353 OA
HETATM   21  C   UNK N   1      28.054  29.727  -1.658  0.00  0.00     0.210 C 
ENDBRANCH  16  20
BRANCH  17  22
HETATM   22  O   UNK N   1      27.534  30.370  -5.235  0.00  0.00    -0.351 OA
HETATM   23  C   UNK N   1      28.743  31.012  -5.120  0.00  0.00     0.210 C 
ENDBRANCH  17  22
BRANCH  18  24
HETATM   24  O   UNK N   1      27.517  28.501  -7.167  0.00  0.00    -0.353 OA
HETATM   25  C   UNK N   1      28.695  28.224  -7.826  0.00  0.00     0.210 C 
ENDBRANCH  18  24
ENDBRANCH  13  14
ENDBRANCH   1  13
BRANCH  12  26
HETATM   26  C   UNK N   1      29.073  23.813  -5.331  0.00  0.00     0.132 C 
BRANCH  26  27
HETATM   27  C   UNK N   1      29.480  22.924  -4.169  0.00  0.00     0.020 C 
BRANCH  27  28
HETATM   28  C   UNK N   1      29.992  23.767  -3.019  0.00  0.00    -0.003 C 
HETATM   29  C   UNK N   1      30.409  25.131  -3.530  0.00  0.00     0.005 C 
ENDBRANCH  27  28
ENDBRANCH  26  27
ENDBRANCH  12  26
BRANCH   5  30
HETATM   30  N   UNK N   1      23.873  21.890  -7.751  0.00  0.00    -0.383 N 
HETATM   31  H   UNK N   1      23.347  21.120  -7.432  0.00  0.00     0.157 HD
HETATM   32  H   UNK N   1      23.397  22.667  -8.121  0.00  0.00     0.157 HD
ENDBRANCH   5  30
TORSDOF 9
ENDMDL
MODEL 9
REMARK VINA RESULT:      -6.1     13.364     16.221
REMARK  9 active torsions:
REMARK  status: ('A' for Active; 'I' for Inactive)
REMARK    1  A    between atoms: O_2  and  C_3 
REMARK    2  A    between atoms: C_5  and  O_6 
REMARK    3  A    between atoms: C_8  and  O_9 
REMARK    4  A    between atoms: C_12  and  C_13 
REMARK    5  A    between atoms: C_13  and  C_14 
REMARK    6  A    between atoms: C_18  and  N_19 
REMARK    7  A    between atoms: N_26  and  C_27 
REMARK    8  A    between atoms: C_27  and  C_28 
REMARK    9  A    between atoms: C_28  and  C_29 
ROOT
HETATM    1  C   UNK N   1      26.940  29.233  -3.503  0.00  0.00     0.089 A 
HETATM    2  N   UNK N   1      27.066  29.179  -2.147  0.00  0.00    -0.339 N 
ATOM      3  HN  UNK N   1      26.416  28.777  -1.472  1.00  0.00     0.167 HD
HETATM    4  C   UNK N   1      28.244  29.776  -1.905  0.00  0.00     0.122 A 
HETATM    5  C   UNK N   1      28.875  30.026  -0.701  0.00  0.00     0.131 A 
HETATM    6  C   UNK N   1      28.812  30.162  -3.068  0.00  0.00     0.141 A 
HETATM    7  N   UNK N   1      30.004  30.804  -3.115  0.00  0.00    -0.336 N 
ATOM      8  HN  UNK N   1      30.415  31.086  -4.005  1.00  0.00     0.168 HD
HETATM    9  C   UNK N   1      30.640  31.062  -1.927  0.00  0.00     0.183 A 
HETATM   10  N   UNK N   1      30.077  30.674  -0.734  0.00  0.00    -0.337 N 
ATOM     11  HN  UNK N   1      30.564  30.875   0.140  1.00  0.00     0.168 HD
HETATM   12  N   UNK N   1      28.013  29.823  -4.089  0.00  0.00    -0.320 N 
ENDROOT
BRANCH   1  13
HETATM   13  C   UNK N   1      25.753  28.701  -4.271  0.00  0.00     0.115 C 
BRANCH  13  14
HETATM   14  C   UNK N   1      25.833  27.267  -4.734  0.00  0.00    -0.046 A 
HETATM   15  C   UNK N   1      25.545  26.893  -6.048  0.00  0.00     0.047 A 
HETATM   16  C   UNK N   1      25.601  25.566  -6.465  0.00  0.00     0.104 A 
HETATM   17  C   UNK N   1      25.996  24.558  -5.533  0.00  0.00     0.135 A 
HETATM   18  C   UNK N   1      26.298  24.936  -4.210  0.00  0.00     0.104 A 
HETATM   19  C   UNK N   1      26.209  26.285  -3.822  0.00  0.00     0.047 A 
BRANCH  16  20
HETATM   20  O   UNK N   1      25.266  25.308  -7.747  0.00  0.00    -0.353 OA
HETATM   21  C   UNK N   1      25.983  25.822  -8.803  0.00  0.00     0.210 C 
ENDBRANCH  16  20
BRANCH  17  22
HETATM   22  O   UNK N   1      26.124  23.241  -5.851  0.00  0.00    -0.351 OA
HETATM   23  C   UNK N   1      27.085  22.692  -6.666  0.00  0.00     0.210 C 
ENDBRANCH  17  22
BRANCH  18  24
HETATM   24  O   UNK N   1      26.686  23.982  -3.328  0.00  0.00    -0.353 OA
HETATM   25  C   UNK N   1      27.980  23.852  -2.872  0.00  0.00     0.210 C 
ENDBRANCH  18  24
ENDBRANCH  13  14
ENDBRANCH   1  13
BRANCH  12  26
HETATM   26  C   UNK N   1      28.225  30.047  -5.512  0.00  0.00     0.132 C 
BRANCH  26  27
HETATM   27  C   UNK N   1      28.830  28.806  -6.144  0.00  0.00     0.020 C 
BRANCH  27  28
HETATM   28  C   UNK N   1      28.591  28.813  -7.641  0.00  0.00    -0.003 C 
HETATM   29  C   UNK N   1      29.173  27.558  -8.258  0.00  0.00     0.005 C 
ENDBRANCH  27  28
ENDBRANCH  26  27
ENDBRANCH  12  26
BRANCH   5  30
HETATM   30  N   UNK N   1      28.298  29.634   0.524  0.00  0.00    -0.383 N 
HETATM   31  H   UNK N   1      28.105  28.692   0.740  0.00  0.00     0.157 HD
HETATM   32  H   UNK N   1      28.080  30.326   1.187  0.00  0.00     0.157 HD
ENDBRANCH   5  30
TORSDOF 9
ENDMDL
