MODEL 1
REMARK VINA RESULT:      -6.6      0.000      0.000
REMARK  8 active torsions:
REMARK  status: ('A' for Active; 'I' for Inactive)
REMARK    1  A    between atoms: O_3  and  C_4 
REMARK    2  A    between atoms: C_6  and  O_7 
REMARK    3  A    between atoms: C_10  and  C_11 
REMARK    4  A    between atoms: C_11  and  C_12 
REMARK    5  A    between atoms: C_16  and  N_17 
REMARK    6  A    between atoms: N_24  and  C_25 
REMARK    7  A    between atoms: C_25  and  C_26 
REMARK    8  A    between atoms: C_26  and  C_27 
ROOT
HETATM    1  C   UNK N   1      22.057  17.494   4.774  0.00  0.00     0.090 A 
HETATM    2  N   UNK N   1      20.839  17.493   4.178  0.00  0.00    -0.339 N 
ATOM      3  HN  UNK N   1      20.076  16.831   4.319  1.00  0.00     0.167 HD
HETATM    4  C   UNK N   1      20.867  18.556   3.363  0.00  0.00     0.122 A 
HETATM    5  C   UNK N   1      19.894  19.027   2.501  0.00  0.00     0.131 A 
HETATM    6  C   UNK N   1      22.054  19.186   3.465  0.00  0.00     0.141 A 
HETATM    7  N   UNK N   1      22.348  20.293   2.741  0.00  0.00    -0.336 N 
ATOM      8  HN  UNK N   1      23.253  20.755   2.833  1.00  0.00     0.168 HD
HETATM    9  C   UNK N   1      21.395  20.773   1.881  0.00  0.00     0.183 A 
HETATM   10  N   UNK N   1      20.179  20.141   1.764  0.00  0.00    -0.337 N 
ATOM     11  HN  UNK N   1      19.480  20.511   1.119  1.00  0.00     0.168 HD
HETATM   12  N   UNK N   1      22.827  18.534   4.353  0.00  0.00    -0.320 N 
ENDROOT
BRANCH   1  13
HETATM   13  C   UNK N   1      22.541  16.489   5.788  0.00  0.00     0.118 C 
BRANCH  13  14
HETATM   14  C   UNK N   1      21.771  15.911   6.961  0.00  0.00    -0.015 A 
HETATM   15  C   UNK N   1      21.876  14.601   7.517  0.00  0.00     0.075 A 
HETATM   16  C   UNK N   1      21.051  14.249   8.602  0.00  0.00     0.040 A 
HETATM   17  C   UNK N   1      20.137  15.155   9.131  0.00  0.00     0.039 A 
HETATM   18  C   UNK N   1      20.032  16.441   8.591  0.00  0.00     0.068 A 
HETATM   19  C   UNK N   1      20.849  16.801   7.523  0.00  0.00     0.047 A 
BRANCH  15  20
HETATM   20  O   UNK N   1      22.748  13.694   7.027  0.00  0.00    -0.355 OA
HETATM   21  C   UNK N   1      24.033  13.528   7.496  0.00  0.00     0.210 C 
ENDBRANCH  15  20
BRANCH  18  22
HETATM   22  O   UNK N   1      19.144  17.344   9.069  0.00  0.00    -0.356 OA
HETATM   23  C   UNK N   1      17.804  17.072   9.227  0.00  0.00     0.210 C 
ENDBRANCH  18  22
ENDBRANCH  13  14
ENDBRANCH   1  13
BRANCH  12  24
HETATM   24  C   UNK N   1      24.194  18.811   4.809  0.00  0.00     0.132 C 
BRANCH  24  25
HETATM   25  C   UNK N   1      25.266  18.281   3.873  0.00  0.00     0.020 C 
BRANCH  25  26
HETATM   26  C   UNK N   1      26.403  19.277   3.788  0.00  0.00    -0.003 C 
HETATM   27  C   UNK N   1      25.947  20.484   2.995  0.00  0.00     0.005 C 
ENDBRANCH  25  26
ENDBRANCH  24  25
ENDBRANCH  12  24
BRANCH   5  28
HETATM   28  N   UNK N   1      18.650  18.377   2.376  0.00  0.00    -0.383 N 
HETATM   29  H   UNK N   1      18.198  18.005   3.167  0.00  0.00     0.157 HD
HETATM   30  H   UNK N   1      18.230  18.294   1.489  0.00  0.00     0.157 HD
ENDBRANCH   5  28
TORSDOF 8
ENDMDL
MODEL 2
REMARK VINA RESULT:      -6.3      6.878      9.744
REMARK  8 active torsions:
REMARK  status: ('A' for Active; 'I' for Inactive)
REMARK    1  A    between atoms: O_3  and  C_4 
REMARK    2  A    between atoms: C_6  and  O_7 
REMARK    3  A    between atoms: C_10  and  C_11 
REMARK    4  A    between atoms: C_11  and  C_12 
REMARK    5  A    between atoms: C_16  and  N_17 
REMARK    6  A    between atoms: N_24  and  C_25 
REMARK    7  A    between atoms: C_25  and  C_26 
REMARK    8  A    between atoms: C_26  and  C_27 
ROOT
HETATM    1  C   UNK N   1      28.901  17.819   5.969  0.00  0.00     0.090 A 
HETATM    2  N   UNK N   1      28.313  18.496   4.952  0.00  0.00    -0.339 N 
ATOM      3  HN  UNK N   1      28.409  18.327   3.950  1.00  0.00     0.167 HD
HETATM    4  C   UNK N   1      27.577  19.437   5.560  0.00  0.00     0.122 A 
HETATM    5  C   UNK N   1      26.778  20.420   5.008  0.00  0.00     0.131 A 
HETATM    6  C   UNK N   1      27.706  19.331   6.898  0.00  0.00     0.141 A 
HETATM    7  N   UNK N   1      27.070  20.168   7.752  0.00  0.00    -0.336 N 
ATOM      8  HN  UNK N   1      27.181  20.071   8.761  1.00  0.00     0.168 HD
HETATM    9  C   UNK N   1      26.273  21.148   7.221  0.00  0.00     0.183 A 
HETATM   10  N   UNK N   1      26.132  21.271   5.858  0.00  0.00    -0.337 N 
ATOM     11  HN  UNK N   1      25.536  22.006   5.478  1.00  0.00     0.168 HD
HETATM   12  N   UNK N   1      28.539  18.312   7.184  0.00  0.00    -0.320 N 
ENDROOT
BRANCH   1  13
HETATM   13  C   UNK N   1      29.843  16.652   5.819  0.00  0.00     0.118 C 
BRANCH  13  14
HETATM   14  C   UNK N   1      31.031  16.532   4.881  0.00  0.00    -0.015 A 
HETATM   15  C   UNK N   1      31.017  16.458   3.457  0.00  0.00     0.075 A 
HETATM   16  C   UNK N   1      32.237  16.327   2.766  0.00  0.00     0.040 A 
HETATM   17  C   UNK N   1      33.446  16.264   3.452  0.00  0.00     0.039 A 
HETATM   18  C   UNK N   1      33.464  16.337   4.848  0.00  0.00     0.068 A 
HETATM   19  C   UNK N   1      32.264  16.475   5.540  0.00  0.00     0.047 A 
BRANCH  15  20
HETATM   20  O   UNK N   1      29.863  16.512   2.758  0.00  0.00    -0.355 OA
HETATM   21  C   UNK N   1      29.091  15.411   2.459  0.00  0.00     0.210 C 
ENDBRANCH  15  20
BRANCH  18  22
HETATM   22  O   UNK N   1      34.619  16.263   5.550  0.00  0.00    -0.356 OA
HETATM   23  C   UNK N   1      34.789  15.433   6.635  0.00  0.00     0.210 C 
ENDBRANCH  18  22
ENDBRANCH  13  14
ENDBRANCH   1  13
BRANCH  12  24
HETATM   24  C   UNK N   1      29.004  17.799   8.477  0.00  0.00     0.132 C 
BRANCH  24  25
HETATM   25  C   UNK N   1      30.113  18.630   9.097  0.00  0.00     0.020 C 
BRANCH  25  26
HETATM   26  C   UNK N   1      31.456  18.024   8.750  0.00  0.00    -0.003 C 
HETATM   27  C   UNK N   1      31.403  16.529   8.991  0.00  0.00     0.005 C 
ENDBRANCH  25  26
ENDBRANCH  24  25
ENDBRANCH  12  24
BRANCH   5  28
HETATM   28  N   UNK N   1      26.637  20.550   3.611  0.00  0.00    -0.383 N 
HETATM   29  H   UNK N   1      26.368  19.779   3.061  0.00  0.00     0.157 HD
HETATM   30  H   UNK N   1      26.809  21.420   3.183  0.00  0.00     0.157 HD
ENDBRANCH   5  28
TORSDOF 8
ENDMDL
MODEL 3
REMARK VINA RESULT:      -6.3     16.316     18.255
REMARK  8 active torsions:
REMARK  status: ('A' for Active; 'I' for Inactive)
REMARK    1  A    between atoms: O_3  and  C_4 
REMARK    2  A    between atoms: C_6  and  O_7 
REMARK    3  A    between atoms: C_10  and  C_11 
REMARK    4  A    between atoms: C_11  and  C_12 
REMARK    5  A    between atoms: C_16  and  N_17 
REMARK    6  A    between atoms: N_24  and  C_25 
REMARK    7  A    between atoms: C_25  and  C_26 
REMARK    8  A    between atoms: C_26  and  C_27 
ROOT
HETATM    1  C   UNK N   1      35.454  12.587  13.571  0.00  0.00     0.090 A 
HETATM    2  N   UNK N   1      35.270  13.769  12.933  0.00  0.00    -0.339 N 
ATOM      3  HN  UNK N   1      34.536  14.459  13.095  1.00  0.00     0.167 HD
HETATM    4  C   UNK N   1      36.269  13.826  12.041  0.00  0.00     0.122 A 
HETATM    5  C   UNK N   1      36.562  14.805  11.112  0.00  0.00     0.131 A 
HETATM    6  C   UNK N   1      37.038  12.723  12.139  0.00  0.00     0.141 A 
HETATM    7  N   UNK N   1      38.117  12.523  11.345  0.00  0.00    -0.336 N 
ATOM      8  HN  UNK N   1      38.686  11.682  11.434  1.00  0.00     0.168 HD
HETATM    9  C   UNK N   1      38.422  13.485  10.418  0.00  0.00     0.183 A 
HETATM   10  N   UNK N   1      37.647  14.616  10.304  0.00  0.00    -0.337 N 
ATOM     11  HN  UNK N   1      37.886  15.323   9.608  1.00  0.00     0.168 HD
HETATM   12  N   UNK N   1      36.544  11.921  13.101  0.00  0.00    -0.320 N 
ENDROOT
BRANCH   1  13
HETATM   13  C   UNK N   1      34.587  12.039  14.675  0.00  0.00     0.118 C 
BRANCH  13  14
HETATM   14  C   UNK N   1      34.877  12.026  16.164  0.00  0.00    -0.015 A 
HETATM   15  C   UNK N   1      35.009  10.894  17.021  0.00  0.00     0.075 A 
HETATM   16  C   UNK N   1      35.261  11.097  18.391  0.00  0.00     0.040 A 
HETATM   17  C   UNK N   1      35.377  12.379  18.917  0.00  0.00     0.039 A 
HETATM   18  C   UNK N   1      35.250  13.493  18.081  0.00  0.00     0.068 A 
HETATM   19  C   UNK N   1      35.009  13.303  16.722  0.00  0.00     0.047 A 
BRANCH  15  20
HETATM   20  O   UNK N   1      34.898   9.634  16.548  0.00  0.00    -0.355 OA
HETATM   21  C   UNK N   1      35.376   8.519  17.203  0.00  0.00     0.210 C 
ENDBRANCH  15  20
BRANCH  18  22
HETATM   22  O   UNK N   1      35.341  14.756  18.558  0.00  0.00    -0.356 OA
HETATM   23  C   UNK N   1      36.167  15.711  18.008  0.00  0.00     0.210 C 
ENDBRANCH  18  22
ENDBRANCH  13  14
ENDBRANCH   1  13
BRANCH  12  24
HETATM   24  C   UNK N   1      37.010  10.616  13.584  0.00  0.00     0.132 C 
BRANCH  24  25
HETATM   25  C   UNK N   1      38.007  10.711  14.725  0.00  0.00     0.020 C 
BRANCH  25  26
HETATM   26  C   UNK N   1      39.047   9.621  14.581  0.00  0.00    -0.003 C 
HETATM   27  C   UNK N   1      38.625   8.420  15.402  0.00  0.00     0.005 C 
ENDBRANCH  25  26
ENDBRANCH  24  25
ENDBRANCH  12  24
BRANCH   5  28
HETATM   28  N   UNK N   1      35.765  15.962  10.991  0.00  0.00    -0.383 N 
HETATM   29  H   UNK N   1      35.880  16.716  11.613  0.00  0.00     0.157 HD
HETATM   30  H   UNK N   1      35.088  16.015  10.278  0.00  0.00     0.157 HD
ENDBRANCH   5  28
TORSDOF 8
ENDMDL
MODEL 4
REMARK VINA RESULT:      -6.3      1.033      2.822
REMARK  8 active torsions:
REMARK  status: ('A' for Active; 'I' for Inactive)
REMARK    1  A    between atoms: O_3  and  C_4 
REMARK    2  A    between atoms: C_6  and  O_7 
REMARK    3  A    between atoms: C_10  and  C_11 
REMARK    4  A    between atoms: C_11  and  C_12 
REMARK    5  A    between atoms: C_16  and  N_17 
REMARK    6  A    between atoms: N_24  and  C_25 
REMARK    7  A    between atoms: C_25  and  C_26 
REMARK    8  A    between atoms: C_26  and  C_27 
ROOT
HETATM    1  C   UNK N   1      22.487  17.611   4.663  0.00  0.00     0.090 A 
HETATM    2  N   UNK N   1      21.236  17.481   4.158  0.00  0.00    -0.339 N 
ATOM      3  HN  UNK N   1      20.562  16.738   4.343  1.00  0.00     0.167 HD
HETATM    4  C   UNK N   1      21.086  18.548   3.361  0.00  0.00     0.122 A 
HETATM    5  C   UNK N   1      20.007  18.916   2.580  0.00  0.00     0.131 A 
HETATM    6  C   UNK N   1      22.202  19.304   3.386  0.00  0.00     0.141 A 
HETATM    7  N   UNK N   1      22.318  20.443   2.661  0.00  0.00    -0.336 N 
ATOM      8  HN  UNK N   1      23.171  21.001   2.695  1.00  0.00     0.168 HD
HETATM    9  C   UNK N   1      21.257  20.822   1.882  0.00  0.00     0.183 A 
HETATM   10  N   UNK N   1      20.112  20.062   1.844  0.00  0.00    -0.337 N 
ATOM     11  HN  UNK N   1      19.330  20.357   1.258  1.00  0.00     0.168 HD
HETATM   12  N   UNK N   1      23.106  18.733   4.205  0.00  0.00    -0.320 N 
ENDROOT
BRANCH   1  13
HETATM   13  C   UNK N   1      23.152  16.657   5.622  0.00  0.00     0.118 C 
BRANCH  13  14
HETATM   14  C   UNK N   1      22.486  15.757   6.647  0.00  0.00    -0.015 A 
HETATM   15  C   UNK N   1      21.399  16.073   7.515  0.00  0.00     0.075 A 
HETATM   16  C   UNK N   1      20.936  15.096   8.416  0.00  0.00     0.040 A 
HETATM   17  C   UNK N   1      21.526  13.837   8.474  0.00  0.00     0.039 A 
HETATM   18  C   UNK N   1      22.590  13.522   7.625  0.00  0.00     0.068 A 
HETATM   19  C   UNK N   1      23.051  14.479   6.724  0.00  0.00     0.047 A 
BRANCH  15  20
HETATM   20  O   UNK N   1      20.805  17.285   7.490  0.00  0.00    -0.355 OA
HETATM   21  C   UNK N   1      19.838  17.689   8.384  0.00  0.00     0.210 C 
ENDBRANCH  15  20
BRANCH  18  22
HETATM   22  O   UNK N   1      23.199  12.314   7.663  0.00  0.00    -0.356 OA
HETATM   23  C   UNK N   1      23.168  11.489   8.764  0.00  0.00     0.210 C 
ENDBRANCH  18  22
ENDBRANCH  13  14
ENDBRANCH   1  13
BRANCH  12  24
HETATM   24  C   UNK N   1      24.464  19.156   4.564  0.00  0.00     0.132 C 
BRANCH  24  25
HETATM   25  C   UNK N   1      25.466  19.008   3.432  0.00  0.00     0.020 C 
BRANCH  25  26
HETATM   26  C   UNK N   1      26.370  20.221   3.393  0.00  0.00    -0.003 C 
HETATM   27  C   UNK N   1      27.574  19.971   4.277  0.00  0.00     0.005 C 
ENDBRANCH  25  26
ENDBRANCH  24  25
ENDBRANCH  12  24
BRANCH   5  28
HETATM   28  N   UNK N   1      18.834  18.135   2.536  0.00  0.00    -0.383 N 
HETATM   29  H   UNK N   1      18.250  18.064   3.324  0.00  0.00     0.157 HD
HETATM   30  H   UNK N   1      18.599  17.655   1.709  0.00  0.00     0.157 HD
ENDBRANCH   5  28
TORSDOF 8
ENDMDL
MODEL 5
REMARK VINA RESULT:      -6.2      3.837      5.350
REMARK  8 active torsions:
REMARK  status: ('A' for Active; 'I' for Inactive)
REMARK    1  A    between atoms: O_3  and  C_4 
REMARK    2  A    between atoms: C_6  and  O_7 
REMARK    3  A    between atoms: C_10  and  C_11 
REMARK    4  A    between atoms: C_11  and  C_12 
REMARK    5  A    between atoms: C_16  and  N_17 
REMARK    6  A    between atoms: N_24  and  C_25 
REMARK    7  A    between atoms: C_25  and  C_26 
REMARK    8  A    between atoms: C_26  and  C_27 
ROOT
HETATM    1  C   UNK N   1      23.380  17.730   4.252  0.00  0.00     0.090 A 
HETATM    2  N   UNK N   1      22.194  17.244   3.811  0.00  0.00    -0.339 N 
ATOM      3  HN  UNK N   1      21.828  16.298   3.916  1.00  0.00     0.167 HD
HETATM    4  C   UNK N   1      21.612  18.289   3.205  0.00  0.00     0.122 A 
HETATM    5  C   UNK N   1      20.391  18.361   2.561  0.00  0.00     0.131 A 
HETATM    6  C   UNK N   1      22.411  19.372   3.282  0.00  0.00     0.141 A 
HETATM    7  N   UNK N   1      22.063  20.564   2.741  0.00  0.00    -0.336 N 
ATOM      8  HN  UNK N   1      22.682  21.372   2.811  1.00  0.00     0.168 HD
HETATM    9  C   UNK N   1      20.856  20.654   2.099  0.00  0.00     0.183 A 
HETATM   10  N   UNK N   1      20.029  19.558   2.011  0.00  0.00    -0.337 N 
ATOM     11  HN  UNK N   1      19.134  19.640   1.528  1.00  0.00     0.168 HD
HETATM   12  N   UNK N   1      23.538  19.045   3.942  0.00  0.00    -0.320 N 
ENDROOT
BRANCH   1  13
HETATM   13  C   UNK N   1      24.426  16.947   5.005  0.00  0.00     0.118 C 
BRANCH  13  14
HETATM   14  C   UNK N   1      25.897  16.798   4.665  0.00  0.00    -0.015 A 
HETATM   15  C   UNK N   1      26.474  16.458   3.406  0.00  0.00     0.075 A 
HETATM   16  C   UNK N   1      27.874  16.347   3.300  0.00  0.00     0.040 A 
HETATM   17  C   UNK N   1      28.694  16.560   4.403  0.00  0.00     0.039 A 
HETATM   18  C   UNK N   1      28.134  16.894   5.640  0.00  0.00     0.068 A 
HETATM   19  C   UNK N   1      26.750  17.013   5.752  0.00  0.00     0.047 A 
BRANCH  15  20
HETATM   20  O   UNK N   1      25.710  16.240   2.314  0.00  0.00    -0.355 OA
HETATM   21  C   UNK N   1      25.326  14.991   1.877  0.00  0.00     0.210 C 
ENDBRANCH  15  20
BRANCH  18  22
HETATM   22  O   UNK N   1      28.898  17.093   6.739  0.00  0.00    -0.356 OA
HETATM   23  C   UNK N   1      30.273  17.030   6.721  0.00  0.00     0.210 C 
ENDBRANCH  18  22
ENDBRANCH  13  14
ENDBRANCH   1  13
BRANCH  12  24
HETATM   24  C   UNK N   1      24.712  19.859   4.279  0.00  0.00     0.132 C 
BRANCH  24  25
HETATM   25  C   UNK N   1      25.634  20.112   3.101  0.00  0.00     0.020 C 
BRANCH  25  26
HETATM   26  C   UNK N   1      27.070  20.149   3.579  0.00  0.00    -0.003 C 
HETATM   27  C   UNK N   1      27.098  20.577   5.032  0.00  0.00     0.005 C 
ENDBRANCH  25  26
ENDBRANCH  24  25
ENDBRANCH  12  24
BRANCH   5  28
HETATM   28  N   UNK N   1      19.546  17.237   2.464  0.00  0.00    -0.383 N 
HETATM   29  H   UNK N   1      19.923  16.338   2.329  0.00  0.00     0.157 HD
HETATM   30  H   UNK N   1      18.571  17.353   2.531  0.00  0.00     0.157 HD
ENDBRANCH   5  28
TORSDOF 8
ENDMDL
MODEL 6
REMARK VINA RESULT:      -6.2     13.847     15.314
REMARK  8 active torsions:
REMARK  status: ('A' for Active; 'I' for Inactive)
REMARK    1  A    between atoms: O_3  and  C_4 
REMARK    2  A    between atoms: C_6  and  O_7 
REMARK    3  A    between atoms: C_10  and  C_11 
REMARK    4  A    between atoms: C_11  and  C_12 
REMARK    5  A    between atoms: C_16  and  N_17 
REMARK    6  A    between atoms: N_24  and  C_25 
REMARK    7  A    between atoms: C_25  and  C_26 
REMARK    8  A    between atoms: C_26  and  C_27 
ROOT
HETATM    1  C   UNK N   1      26.326  24.224  -5.286  0.00  0.00     0.090 A 
HETATM    2  N   UNK N   1      25.309  23.634  -5.962  0.00  0.00    -0.339 N 
ATOM      3  HN  UNK N   1      24.311  23.825  -5.880  1.00  0.00     0.167 HD
HETATM    4  C   UNK N   1      25.913  22.744  -6.761  0.00  0.00     0.122 A 
HETATM    5  C   UNK N   1      25.358  21.853  -7.660  0.00  0.00     0.131 A 
HETATM    6  C   UNK N   1      27.249  22.796  -6.584  0.00  0.00     0.141 A 
HETATM    7  N   UNK N   1      28.098  21.992  -7.268  0.00  0.00    -0.336 N 
ATOM      8  HN  UNK N   1      29.106  22.047  -7.120  1.00  0.00     0.168 HD
HETATM    9  C   UNK N   1      27.565  21.103  -8.164  0.00  0.00     0.183 A 
HETATM   10  N   UNK N   1      26.204  21.037  -8.355  0.00  0.00    -0.337 N 
ATOM     11  HN  UNK N   1      25.822  20.369  -9.025  1.00  0.00     0.168 HD
HETATM   12  N   UNK N   1      27.537  23.727  -5.656  0.00  0.00    -0.320 N 
ENDROOT
BRANCH   1  13
HETATM   13  C   UNK N   1      26.180  25.308  -4.248  0.00  0.00     0.118 C 
BRANCH  13  14
HETATM   14  C   UNK N   1      26.529  26.778  -4.386  0.00  0.00    -0.015 A 
HETATM   15  C   UNK N   1      26.602  27.552  -5.581  0.00  0.00     0.075 A 
HETATM   16  C   UNK N   1      26.968  28.909  -5.498  0.00  0.00     0.040 A 
HETATM   17  C   UNK N   1      27.263  29.498  -4.273  0.00  0.00     0.039 A 
HETATM   18  C   UNK N   1      27.192  28.744  -3.098  0.00  0.00     0.068 A 
HETATM   19  C   UNK N   1      26.823  27.403  -3.169  0.00  0.00     0.047 A 
BRANCH  15  20
HETATM   20  O   UNK N   1      26.327  27.014  -6.789  0.00  0.00    -0.355 OA
HETATM   21  C   UNK N   1      27.217  26.985  -7.841  0.00  0.00     0.210 C 
ENDBRANCH  15  20
BRANCH  18  22
HETATM   22  O   UNK N   1      27.486  29.277  -1.889  0.00  0.00    -0.356 OA
HETATM   23  C   UNK N   1      28.236  30.421  -1.734  0.00  0.00     0.210 C 
ENDBRANCH  18  22
ENDBRANCH  13  14
ENDBRANCH   1  13
BRANCH  12  24
HETATM   24  C   UNK N   1      28.830  24.156  -5.109  0.00  0.00     0.132 C 
BRANCH  24  25
HETATM   25  C   UNK N   1      29.570  25.137  -6.000  0.00  0.00     0.020 C 
BRANCH  25  26
HETATM   26  C   UNK N   1      30.134  26.261  -5.158  0.00  0.00    -0.003 C 
HETATM   27  C   UNK N   1      30.191  25.817  -3.711  0.00  0.00     0.005 C 
ENDBRANCH  25  26
ENDBRANCH  24  25
ENDBRANCH  12  24
BRANCH   5  28
HETATM   28  N   UNK N   1      23.964  21.780  -7.853  0.00  0.00    -0.383 N 
HETATM   29  H   UNK N   1      23.395  21.293  -7.214  0.00  0.00     0.157 HD
HETATM   30  H   UNK N   1      23.556  22.218  -8.634  0.00  0.00     0.157 HD
ENDBRANCH   5  28
TORSDOF 8
ENDMDL
MODEL 7
REMARK VINA RESULT:      -6.1      9.045     12.472
REMARK  8 active torsions:
REMARK  status: ('A' for Active; 'I' for Inactive)
REMARK    1  A    between atoms: O_3  and  C_4 
REMARK    2  A    between atoms: C_6  and  O_7 
REMARK    3  A    between atoms: C_10  and  C_11 
REMARK    4  A    between atoms: C_11  and  C_12 
REMARK    5  A    between atoms: C_16  and  N_17 
REMARK    6  A    between atoms: N_24  and  C_25 
REMARK    7  A    between atoms: C_25  and  C_26 
REMARK    8  A    between atoms: C_26  and  C_27 
ROOT
HETATM    1  C   UNK N   1      33.724  16.843   6.571  0.00  0.00     0.090 A 
HETATM    2  N   UNK N   1      34.644  15.848   6.531  0.00  0.00    -0.339 N 
ATOM      3  HN  UNK N   1      35.085  15.438   5.708  1.00  0.00     0.167 HD
HETATM    4  C   UNK N   1      34.842  15.526   7.817  0.00  0.00     0.122 A 
HETATM    5  C   UNK N   1      35.669  14.562   8.363  0.00  0.00     0.131 A 
HETATM    6  C   UNK N   1      34.077  16.301   8.611  0.00  0.00     0.141 A 
HETATM    7  N   UNK N   1      34.081  16.178   9.960  0.00  0.00    -0.336 N 
ATOM      8  HN  UNK N   1      33.494  16.775  10.543  1.00  0.00     0.168 HD
HETATM    9  C   UNK N   1      34.895  15.228  10.518  0.00  0.00     0.183 A 
HETATM   10  N   UNK N   1      35.681  14.427   9.722  0.00  0.00    -0.337 N 
ATOM     11  HN  UNK N   1      36.282  13.724  10.153  1.00  0.00     0.168 HD
HETATM   12  N   UNK N   1      33.359  17.146   7.847  0.00  0.00    -0.320 N 
ENDROOT
BRANCH   1  13
HETATM   13  C   UNK N   1      33.151  17.559   5.375  0.00  0.00     0.118 C 
BRANCH  13  14
HETATM   14  C   UNK N   1      31.951  17.155   4.539  0.00  0.00    -0.015 A 
HETATM   15  C   UNK N   1      31.948  16.533   3.255  0.00  0.00     0.075 A 
HETATM   16  C   UNK N   1      30.718  16.256   2.630  0.00  0.00     0.040 A 
HETATM   17  C   UNK N   1      29.513  16.584   3.243  0.00  0.00     0.039 A 
HETATM   18  C   UNK N   1      29.510  17.192   4.502  0.00  0.00     0.068 A 
HETATM   19  C   UNK N   1      30.722  17.463   5.132  0.00  0.00     0.047 A 
BRANCH  15  20
HETATM   20  O   UNK N   1      33.098  16.205   2.627  0.00  0.00    -0.355 OA
HETATM   21  C   UNK N   1      33.751  15.003   2.792  0.00  0.00     0.210 C 
ENDBRANCH  15  20
BRANCH  18  22
HETATM   22  O   UNK N   1      28.359  17.539   5.123  0.00  0.00    -0.356 OA
HETATM   23  C   UNK N   1      28.075  18.826   5.520  0.00  0.00     0.210 C 
ENDBRANCH  18  22
ENDBRANCH  13  14
ENDBRANCH   1  13
BRANCH  12  24
HETATM   24  C   UNK N   1      32.383  18.175   8.225  0.00  0.00     0.132 C 
BRANCH  24  25
HETATM   25  C   UNK N   1      31.042  17.610   8.657  0.00  0.00     0.020 C 
BRANCH  25  26
HETATM   26  C   UNK N   1      30.176  18.725   9.203  0.00  0.00    -0.003 C 
HETATM   27  C   UNK N   1      28.728  18.277   9.195  0.00  0.00     0.005 C 
ENDBRANCH  25  26
ENDBRANCH  24  25
ENDBRANCH  12  24
BRANCH   5  28
HETATM   28  N   UNK N   1      36.471  13.737   7.549  0.00  0.00    -0.383 N 
HETATM   29  H   UNK N   1      37.309  14.079   7.162  0.00  0.00     0.157 HD
HETATM   30  H   UNK N   1      36.189  12.812   7.364  0.00  0.00     0.157 HD
ENDBRANCH   5  28
TORSDOF 8
ENDMDL
MODEL 8
REMARK VINA RESULT:      -6.1     14.187     17.110
REMARK  8 active torsions:
REMARK  status: ('A' for Active; 'I' for Inactive)
REMARK    1  A    between atoms: O_3  and  C_4 
REMARK    2  A    between atoms: C_6  and  O_7 
REMARK    3  A    between atoms: C_10  and  C_11 
REMARK    4  A    between atoms: C_11  and  C_12 
REMARK    5  A    between atoms: C_16  and  N_17 
REMARK    6  A    between atoms: N_24  and  C_25 
REMARK    7  A    between atoms: C_25  and  C_26 
REMARK    8  A    between atoms: C_26  and  C_27 
ROOT
HETATM    1  C   UNK N   1      36.311  13.251  12.413  0.00  0.00     0.090 A 
HETATM    2  N   UNK N   1      36.230  14.586  12.189  0.00  0.00    -0.339 N 
ATOM      3  HN  UNK N   1      36.778  15.327  12.627  1.00  0.00     0.167 HD
HETATM    4  C   UNK N   1      35.269  14.711  11.263  0.00  0.00     0.122 A 
HETATM    5  C   UNK N   1      34.761  15.852  10.674  0.00  0.00     0.131 A 
HETATM    6  C   UNK N   1      34.788  13.496  10.930  0.00  0.00     0.141 A 
HETATM    7  N   UNK N   1      33.800  13.337  10.017  0.00  0.00    -0.336 N 
ATOM      8  HN  UNK N   1      33.450  12.410   9.779  1.00  0.00     0.168 HD
HETATM    9  C   UNK N   1      33.285  14.459   9.423  0.00  0.00     0.183 A 
HETATM   10  N   UNK N   1      33.764  15.706   9.752  0.00  0.00    -0.337 N 
ATOM     11  HN  UNK N   1      33.370  16.532   9.301  1.00  0.00     0.168 HD
HETATM   12  N   UNK N   1      35.432  12.553  11.644  0.00  0.00    -0.320 N 
ENDROOT
BRANCH   1  13
HETATM   13  C   UNK N   1      37.248  12.577  13.383  0.00  0.00     0.118 C 
BRANCH  13  14
HETATM   14  C   UNK N   1      36.893  11.876  14.681  0.00  0.00    -0.015 A 
HETATM   15  C   UNK N   1      37.275  10.567  15.102  0.00  0.00     0.075 A 
HETATM   16  C   UNK N   1      36.821  10.087  16.345  0.00  0.00     0.040 A 
HETATM   17  C   UNK N   1      36.006  10.867  17.159  0.00  0.00     0.039 A 
HETATM   18  C   UNK N   1      35.630  12.150  16.752  0.00  0.00     0.068 A 
HETATM   19  C   UNK N   1      36.080  12.637  15.528  0.00  0.00     0.047 A 
BRANCH  15  20
HETATM   20  O   UNK N   1      38.061   9.781  14.336  0.00  0.00    -0.355 OA
HETATM   21  C   UNK N   1      39.302   9.323  14.721  0.00  0.00     0.210 C 
ENDBRANCH  15  20
BRANCH  18  22
HETATM   22  O   UNK N   1      34.826  12.932  17.510  0.00  0.00    -0.356 OA
HETATM   23  C   UNK N   1      35.253  14.096  18.109  0.00  0.00     0.210 C 
ENDBRANCH  18  22
ENDBRANCH  13  14
ENDBRANCH   1  13
BRANCH  12  24
HETATM   24  C   UNK N   1      35.273  11.094  11.654  0.00  0.00     0.132 C 
BRANCH  24  25
HETATM   25  C   UNK N   1      34.096  10.616  12.484  0.00  0.00     0.020 C 
BRANCH  25  26
HETATM   26  C   UNK N   1      34.532   9.468  13.368  0.00  0.00    -0.003 C 
HETATM   27  C   UNK N   1      35.296   8.462  12.533  0.00  0.00     0.005 C 
ENDBRANCH  25  26
ENDBRANCH  24  25
ENDBRANCH  12  24
BRANCH   5  28
HETATM   28  N   UNK N   1      35.247  17.131  11.015  0.00  0.00    -0.383 N 
HETATM   29  H   UNK N   1      36.208  17.334  10.953  0.00  0.00     0.157 HD
HETATM   30  H   UNK N   1      34.619  17.827  11.318  0.00  0.00     0.157 HD
ENDBRANCH   5  28
TORSDOF 8
ENDMDL
MODEL 9
REMARK VINA RESULT:      -6.1      1.659      2.056
REMARK  8 active torsions:
REMARK  status: ('A' for Active; 'I' for Inactive)
REMARK    1  A    between atoms: O_3  and  C_4 
REMARK    2  A    between atoms: C_6  and  O_7 
REMARK    3  A    between atoms: C_10  and  C_11 
REMARK    4  A    between atoms: C_11  and  C_12 
REMARK    5  A    between atoms: C_16  and  N_17 
REMARK    6  A    between atoms: N_24  and  C_25 
REMARK    7  A    between atoms: C_25  and  C_26 
REMARK    8  A    between atoms: C_26  and  C_27 
ROOT
HETATM    1  C   UNK N   1      22.124  17.584   4.774  0.00  0.00     0.090 A 
HETATM    2  N   UNK N   1      20.901  17.543   4.190  0.00  0.00    -0.339 N 
ATOM      3  HN  UNK N   1      20.152  16.870   4.354  1.00  0.00     0.167 HD
HETATM    4  C   UNK N   1      20.900  18.586   3.348  0.00  0.00     0.122 A 
HETATM    5  C   UNK N   1      19.911  19.015   2.484  0.00  0.00     0.131 A 
HETATM    6  C   UNK N   1      22.075  19.242   3.423  0.00  0.00     0.141 A 
HETATM    7  N   UNK N   1      22.341  20.335   2.669  0.00  0.00    -0.336 N 
ATOM      8  HN  UNK N   1      23.236  20.817   2.741  1.00  0.00     0.168 HD
HETATM    9  C   UNK N   1      21.370  20.775   1.807  0.00  0.00     0.183 A 
HETATM   10  N   UNK N   1      20.166  20.116   1.717  0.00  0.00    -0.337 N 
ATOM     11  HN  UNK N   1      19.454  20.455   1.069  1.00  0.00     0.168 HD
HETATM   12  N   UNK N   1      22.869  18.628   4.321  0.00  0.00    -0.320 N 
ENDROOT
BRANCH   1  13
HETATM   13  C   UNK N   1      22.636  16.615   5.809  0.00  0.00     0.118 C 
BRANCH  13  14
HETATM   14  C   UNK N   1      22.186  15.185   6.045  0.00  0.00    -0.015 A 
HETATM   15  C   UNK N   1      22.420  14.046   5.218  0.00  0.00     0.075 A 
HETATM   16  C   UNK N   1      21.896  12.798   5.606  0.00  0.00     0.040 A 
HETATM   17  C   UNK N   1      21.152  12.665   6.774  0.00  0.00     0.039 A 
HETATM   18  C   UNK N   1      20.921  13.778   7.589  0.00  0.00     0.068 A 
HETATM   19  C   UNK N   1      21.443  15.015   7.218  0.00  0.00     0.047 A 
BRANCH  15  20
HETATM   20  O   UNK N   1      23.133  14.137   4.075  0.00  0.00    -0.355 OA
HETATM   21  C   UNK N   1      24.439  13.717   3.945  0.00  0.00     0.210 C 
ENDBRANCH  15  20
BRANCH  18  22
HETATM   22  O   UNK N   1      20.190  13.691   8.724  0.00  0.00    -0.356 OA
HETATM   23  C   UNK N   1      20.745  13.742   9.983  0.00  0.00     0.210 C 
ENDBRANCH  18  22
ENDBRANCH  13  14
ENDBRANCH   1  13
BRANCH  12  24
HETATM   24  C   UNK N   1      24.234  18.944   4.756  0.00  0.00     0.132 C 
BRANCH  24  25
HETATM   25  C   UNK N   1      25.288  18.677   3.696  0.00  0.00     0.020 C 
BRANCH  25  26
HETATM   26  C   UNK N   1      26.002  19.967   3.355  0.00  0.00    -0.003 C 
HETATM   27  C   UNK N   1      27.342  19.993   4.059  0.00  0.00     0.005 C 
ENDBRANCH  25  26
ENDBRANCH  24  25
ENDBRANCH  12  24
BRANCH   5  28
HETATM   28  N   UNK N   1      18.678  18.338   2.386  0.00  0.00    -0.383 N 
HETATM   29  H   UNK N   1      18.635  17.360   2.493  0.00  0.00     0.157 HD
HETATM   30  H   UNK N   1      17.854  18.847   2.210  0.00  0.00     0.157 HD
ENDBRANCH   5  28
TORSDOF 8
ENDMDL
