REMARK  8 active torsions:
REMARK  status: ('A' for Active; 'I' for Inactive)
REMARK    1  A    between atoms: O_3  and  C_4 
REMARK    2  A    between atoms: C_6  and  O_7 
REMARK    3  A    between atoms: C_10  and  C_11 
REMARK    4  A    between atoms: C_11  and  C_12 
REMARK    5  A    between atoms: C_16  and  N_17 
REMARK    6  A    between atoms: N_24  and  C_25 
REMARK    7  A    between atoms: C_25  and  C_26 
REMARK    8  A    between atoms: C_26  and  C_27 
ROOT
HETATM    1  C   UNK N   1       0.440  -0.294   0.048  0.00  0.00     0.090 A 
HETATM    2  N   UNK N   1       1.303   0.748  -0.044  0.00  0.00    -0.339 N 
ATOM      3  HN  UNK N   1       1.079   1.735  -0.170  1.00  0.00     0.167 HD
HETATM    4  C   UNK N   1       2.515   0.187   0.068  0.00  0.00     0.122 A 
HETATM    5  C   UNK N   1       3.763   0.779   0.030  0.00  0.00     0.131 A 
HETATM    6  C   UNK N   1       2.394  -1.146   0.230  0.00  0.00     0.141 A 
HETATM    7  N   UNK N   1       3.471  -1.957   0.362  0.00  0.00    -0.336 N 
ATOM      8  HN  UNK N   1       3.358  -2.963   0.484  1.00  0.00     0.168 HD
HETATM    9  C   UNK N   1       4.716  -1.386   0.327  0.00  0.00     0.183 A 
HETATM   10  N   UNK N   1       4.857  -0.028   0.161  0.00  0.00    -0.337 N 
ATOM     11  HN  UNK N   1       5.791   0.382   0.136  1.00  0.00     0.168 HD
HETATM   12  N   UNK N   1       1.089  -1.477   0.222  0.00  0.00    -0.320 N 
ENDROOT
BRANCH   1  13
HETATM   13  C   UNK N   1      -1.063  -0.200  -0.023  0.00  0.00     0.118 C 
BRANCH  13  14
HETATM   14  C   UNK N   1      -1.910   1.054  -0.138  0.00  0.00    -0.015 A 
HETATM   15  C   UNK N   1      -1.466   2.396  -0.328  0.00  0.00     0.075 A 
HETATM   16  C   UNK N   1      -2.418   3.431  -0.388  0.00  0.00     0.040 A 
HETATM   17  C   UNK N   1      -3.777   3.163  -0.260  0.00  0.00     0.039 A 
HETATM   18  C   UNK N   1      -4.218   1.849  -0.075  0.00  0.00     0.068 A 
HETATM   19  C   UNK N   1      -3.284   0.817  -0.022  0.00  0.00     0.047 A 
BRANCH  15  20
HETATM   20  O   UNK N   1      -0.155   2.695  -0.452  0.00  0.00    -0.355 OA
HETATM   21  C   UNK N   1       0.335   3.976  -0.585  0.00  0.00     0.210 C 
ENDBRANCH  15  20
BRANCH  18  22
HETATM   22  O   UNK N   1      -5.530   1.551   0.069  0.00  0.00    -0.356 OA
HETATM   23  C   UNK N   1      -6.520   2.507   0.106  0.00  0.00     0.210 C 
ENDBRANCH  18  22
ENDBRANCH  13  14
ENDBRANCH   1  13
BRANCH  12  24
HETATM   24  C   UNK N   1       0.439  -2.786   0.355  0.00  0.00     0.132 C 
BRANCH  24  25
HETATM   25  C   UNK N   1       1.408  -3.919   0.642  0.00  0.00     0.020 C 
BRANCH  25  26
HETATM   26  C   UNK N   1       1.027  -5.132  -0.179  0.00  0.00    -0.003 C 
HETATM   27  C   UNK N   1       2.105  -5.391  -1.211  0.00  0.00     0.005 C 
ENDBRANCH  25  26
ENDBRANCH  24  25
ENDBRANCH  12  24
BRANCH   5  28
HETATM   28  N   UNK N   1       3.909   2.170  -0.146  0.00  0.00    -0.383 N 
HETATM   29  H   UNK N   1       4.801   2.568  -0.268  0.00  0.00     0.157 HD
HETATM   30  H   UNK N   1       3.112   2.748  -0.146  0.00  0.00     0.157 HD
ENDBRANCH   5  28
TORSDOF 8
