MODEL 1
REMARK VINA RESULT:      -6.6      0.000      0.000
REMARK  8 active torsions:
REMARK  status: ('A' for Active; 'I' for Inactive)
REMARK    1  A    between atoms: C_3  and  C_4 
REMARK    2  A    between atoms: C_4  and  C_5 
REMARK    3  A    between atoms: C_5  and  N_6 
REMARK    4  A    between atoms: C_11  and  N_12 
REMARK    5  A    between atoms: C_19  and  C_20 
REMARK    6  A    between atoms: C_20  and  C_21 
REMARK    7  A    between atoms: C_22  and  O_23 
REMARK    8  A    between atoms: C_27  and  O_29 
ROOT
HETATM    1  C   UNK N   1      31.964  15.739   9.082  0.00  0.00     0.012 C 
HETATM    2  C   UNK N   1      31.667  16.896   8.911  0.00  0.00    -0.117 C 
HETATM    3  C   UNK N   1      31.286  18.299   8.695  0.00  0.00     0.094 C 
ENDROOT
BRANCH   3   4
HETATM    4  C   UNK N   1      29.890  18.568   9.240  0.00  0.00     0.032 C 
BRANCH   4   5
HETATM    5  C   UNK N   1      28.876  17.671   8.545  0.00  0.00     0.133 C 
BRANCH   5   6
HETATM    6  N   UNK N   1      28.520  18.200   7.232  0.00  0.00    -0.320 N 
HETATM    7  C   UNK N   1      27.725  19.244   6.954  0.00  0.00     0.143 A 
HETATM    8  N   UNK N   1      27.095  20.073   7.820  0.00  0.00    -0.302 N 
HETATM    9  C   UNK N   1      27.630  19.389   5.620  0.00  0.00     0.122 A 
HETATM   10  C   UNK N   1      26.340  21.093   7.300  0.00  0.00     0.269 A 
ATOM     11  HN  UNK N   1      27.179  19.942   8.829  1.00  0.00     0.171 HD
HETATM   12  N   UNK N   1      26.229  21.253   5.939  0.00  0.00    -0.303 N 
HETATM   13  F   UNK N   1      25.706  21.953   8.131  0.00  0.00    -0.165 F 
HETATM   14  C   UNK N   1      26.867  20.406   5.078  0.00  0.00     0.133 A 
ATOM     15  HN  UNK N   1      25.662  22.014   5.566  1.00  0.00     0.171 HD
HETATM   16  N   UNK N   1      28.357  18.445   5.005  0.00  0.00    -0.339 N 
HETATM   17  C   UNK N   1      28.909  17.730   6.017  0.00  0.00     0.090 A 
ATOM     18  HN  UNK N   1      28.469  18.297   4.001  1.00  0.00     0.167 HD
BRANCH  14  19
HETATM   19  N   UNK N   1      26.753  20.572   3.683  0.00  0.00    -0.383 N 
HETATM   20  H   UNK N   1      27.286  21.261   3.224  0.00  0.00     0.157 HD
HETATM   21  H   UNK N   1      26.140  19.999   3.168  0.00  0.00     0.157 HD
ENDBRANCH  14  19
BRANCH  17  22
HETATM   22  C   UNK N   1      29.833  16.545   5.851  0.00  0.00     0.118 C 
BRANCH  22  23
HETATM   23  C   UNK N   1      31.017  16.443   4.896  0.00  0.00    -0.015 A 
HETATM   24  C   UNK N   1      30.987  16.446   3.468  0.00  0.00     0.075 A 
HETATM   25  C   UNK N   1      32.196  16.363   2.755  0.00  0.00     0.040 A 
HETATM   26  C   UNK N   1      33.416  16.290   3.414  0.00  0.00     0.039 A 
HETATM   27  C   UNK N   1      33.458  16.294   4.811  0.00  0.00     0.068 A 
HETATM   28  C   UNK N   1      32.264  16.362   5.533  0.00  0.00     0.047 A 
BRANCH  24  29
HETATM   29  O   UNK N   1      29.825  16.529   2.786  0.00  0.00    -0.355 OA
HETATM   30  C   UNK N   1      29.042  15.444   2.459  0.00  0.00     0.210 C 
ENDBRANCH  24  29
BRANCH  27  31
HETATM   31  O   UNK N   1      34.632  16.246   5.484  0.00  0.00    -0.356 OA
HETATM   32  C   UNK N   1      35.253  15.066   5.829  0.00  0.00     0.210 C 
ENDBRANCH  27  31
ENDBRANCH  22  23
ENDBRANCH  17  22
ENDBRANCH   5   6
ENDBRANCH   4   5
ENDBRANCH   3   4
TORSDOF 8
ENDMDL
MODEL 2
REMARK VINA RESULT:      -6.1      8.853     10.554
REMARK  8 active torsions:
REMARK  status: ('A' for Active; 'I' for Inactive)
REMARK    1  A    between atoms: C_3  and  C_4 
REMARK    2  A    between atoms: C_4  and  C_5 
REMARK    3  A    between atoms: C_5  and  N_6 
REMARK    4  A    between atoms: C_11  and  N_12 
REMARK    5  A    between atoms: C_19  and  C_20 
REMARK    6  A    between atoms: C_20  and  C_21 
REMARK    7  A    between atoms: C_22  and  O_23 
REMARK    8  A    between atoms: C_27  and  O_29 
ROOT
HETATM    1  C   UNK N   1      21.360  10.866   5.973  0.00  0.00     0.012 C 
HETATM    2  C   UNK N   1      20.807  11.894   5.666  0.00  0.00    -0.117 C 
HETATM    3  C   UNK N   1      20.152  13.153   5.287  0.00  0.00     0.094 C 
ENDROOT
BRANCH   3   4
HETATM    4  C   UNK N   1      20.586  13.587   3.894  0.00  0.00     0.032 C 
BRANCH   4   5
HETATM    5  C   UNK N   1      21.877  14.389   3.974  0.00  0.00     0.133 C 
BRANCH   5   6
HETATM    6  N   UNK N   1      21.602  15.819   4.070  0.00  0.00    -0.320 N 
HETATM    7  C   UNK N   1      21.055  16.616   3.140  0.00  0.00     0.143 A 
HETATM    8  N   UNK N   1      20.598  16.279   1.910  0.00  0.00    -0.302 N 
HETATM    9  C   UNK N   1      20.998  17.876   3.609  0.00  0.00     0.122 A 
HETATM   10  C   UNK N   1      20.058  17.270   1.132  0.00  0.00     0.269 A 
ATOM     11  HN  UNK N   1      20.653  15.317   1.574  1.00  0.00     0.171 HD
HETATM   12  N   UNK N   1      19.996  18.563   1.594  0.00  0.00    -0.303 N 
HETATM   13  F   UNK N   1      19.576  16.973  -0.098  0.00  0.00    -0.165 F 
HETATM   14  C   UNK N   1      20.466  18.888   2.835  0.00  0.00     0.133 A 
ATOM     15  HN  UNK N   1      19.595  19.291   1.003  1.00  0.00     0.171 HD
HETATM   16  N   UNK N   1      21.507  17.924   4.849  0.00  0.00    -0.339 N 
HETATM   17  C   UNK N   1      21.861  16.643   5.121  0.00  0.00     0.090 A 
ATOM     18  HN  UNK N   1      21.606  18.741   5.453  1.00  0.00     0.167 HD
BRANCH  14  19
HETATM   19  N   UNK N   1      20.400  20.214   3.308  0.00  0.00    -0.383 N 
HETATM   20  H   UNK N   1      20.275  20.958   2.675  0.00  0.00     0.157 HD
HETATM   21  H   UNK N   1      20.478  20.397   4.272  0.00  0.00     0.157 HD
ENDBRANCH  14  19
BRANCH  17  22
HETATM   22  C   UNK N   1      22.481  16.159   6.412  0.00  0.00     0.118 C 
BRANCH  22  23
HETATM   23  C   UNK N   1      21.768  15.430   7.545  0.00  0.00    -0.015 A 
HETATM   24  C   UNK N   1      20.593  15.843   8.243  0.00  0.00     0.075 A 
HETATM   25  C   UNK N   1      20.068  15.019   9.254  0.00  0.00     0.040 A 
HETATM   26  C   UNK N   1      20.666  13.807   9.576  0.00  0.00     0.039 A 
HETATM   27  C   UNK N   1      21.813  13.390   8.895  0.00  0.00     0.068 A 
HETATM   28  C   UNK N   1      22.352  14.205   7.897  0.00  0.00     0.047 A 
BRANCH  24  29
HETATM   29  O   UNK N   1      19.972  17.006   7.954  0.00  0.00    -0.355 OA
HETATM   30  C   UNK N   1      19.570  17.924   8.899  0.00  0.00     0.210 C 
ENDBRANCH  24  29
BRANCH  27  31
HETATM   31  O   UNK N   1      22.407  12.205   9.170  0.00  0.00    -0.356 OA
HETATM   32  C   UNK N   1      22.615  11.748  10.452  0.00  0.00     0.210 C 
ENDBRANCH  27  31
ENDBRANCH  22  23
ENDBRANCH  17  22
ENDBRANCH   5   6
ENDBRANCH   4   5
ENDBRANCH   3   4
TORSDOF 8
ENDMDL
MODEL 3
REMARK VINA RESULT:      -5.9      2.126      4.594
REMARK  8 active torsions:
REMARK  status: ('A' for Active; 'I' for Inactive)
REMARK    1  A    between atoms: C_3  and  C_4 
REMARK    2  A    between atoms: C_4  and  C_5 
REMARK    3  A    between atoms: C_5  and  N_6 
REMARK    4  A    between atoms: C_11  and  N_12 
REMARK    5  A    between atoms: C_19  and  C_20 
REMARK    6  A    between atoms: C_20  and  C_21 
REMARK    7  A    between atoms: C_22  and  O_23 
REMARK    8  A    between atoms: C_27  and  O_29 
ROOT
HETATM    1  C   UNK N   1      26.945  12.592   2.020  0.00  0.00     0.012 C 
HETATM    2  C   UNK N   1      27.637  13.425   2.551  0.00  0.00    -0.117 C 
HETATM    3  C   UNK N   1      28.480  14.450   3.181  0.00  0.00     0.094 C 
ENDROOT
BRANCH   3   4
HETATM    4  C   UNK N   1      27.887  15.837   2.973  0.00  0.00     0.032 C 
BRANCH   4   5
HETATM    5  C   UNK N   1      28.915  16.903   3.321  0.00  0.00     0.133 C 
BRANCH   5   6
HETATM    6  N   UNK N   1      28.469  17.715   4.448  0.00  0.00    -0.320 N 
HETATM    7  C   UNK N   1      27.536  18.680   4.449  0.00  0.00     0.143 A 
HETATM    8  N   UNK N   1      26.766  19.103   3.418  0.00  0.00    -0.302 N 
HETATM    9  C   UNK N   1      27.440  19.206   5.683  0.00  0.00     0.122 A 
HETATM   10  C   UNK N   1      25.860  20.102   3.662  0.00  0.00     0.269 A 
ATOM     11  HN  UNK N   1      26.859  18.691   2.489  1.00  0.00     0.171 HD
HETATM   12  N   UNK N   1      25.751  20.654   4.916  0.00  0.00    -0.303 N 
HETATM   13  F   UNK N   1      25.060  20.544   2.662  0.00  0.00    -0.165 F 
HETATM   14  C   UNK N   1      26.538  20.220   5.945  0.00  0.00     0.133 A 
ATOM     15  HN  UNK N   1      25.074  21.399   5.082  1.00  0.00     0.171 HD
HETATM   16  N   UNK N   1      28.306  18.598   6.508  0.00  0.00    -0.339 N 
HETATM   17  C   UNK N   1      28.921  17.672   5.730  0.00  0.00     0.090 A 
ATOM     18  HN  UNK N   1      28.466  18.789   7.497  1.00  0.00     0.167 HD
BRANCH  14  19
HETATM   19  N   UNK N   1      26.424  20.785   7.230  0.00  0.00    -0.383 N 
HETATM   20  H   UNK N   1      26.597  21.745   7.363  0.00  0.00     0.157 HD
HETATM   21  H   UNK N   1      26.172  20.220   7.995  0.00  0.00     0.157 HD
ENDBRANCH  14  19
BRANCH  17  22
HETATM   22  C   UNK N   1      29.990  16.708   6.193  0.00  0.00     0.118 C 
BRANCH  22  23
HETATM   23  C   UNK N   1      31.326  17.072   6.829  0.00  0.00    -0.015 A 
HETATM   24  C   UNK N   1      31.546  17.798   8.039  0.00  0.00     0.075 A 
HETATM   25  C   UNK N   1      32.864  18.019   8.479  0.00  0.00     0.040 A 
HETATM   26  C   UNK N   1      33.951  17.534   7.763  0.00  0.00     0.039 A 
HETATM   27  C   UNK N   1      33.747  16.816   6.581  0.00  0.00     0.068 A 
HETATM   28  C   UNK N   1      32.445  16.601   6.126  0.00  0.00     0.047 A 
BRANCH  24  29
HETATM   29  O   UNK N   1      30.519  18.276   8.772  0.00  0.00    -0.355 OA
HETATM   30  C   UNK N   1      29.765  17.513   9.637  0.00  0.00     0.210 C 
ENDBRANCH  24  29
BRANCH  27  31
HETATM   31  O   UNK N   1      34.785  16.312   5.873  0.00  0.00    -0.356 OA
HETATM   32  C   UNK N   1      34.678  15.197   5.071  0.00  0.00     0.210 C 
ENDBRANCH  27  31
ENDBRANCH  22  23
ENDBRANCH  17  22
ENDBRANCH   5   6
ENDBRANCH   4   5
ENDBRANCH   3   4
TORSDOF 8
ENDMDL
MODEL 4
REMARK VINA RESULT:      -5.8      3.044      5.170
REMARK  8 active torsions:
REMARK  status: ('A' for Active; 'I' for Inactive)
REMARK    1  A    between atoms: C_3  and  C_4 
REMARK    2  A    between atoms: C_4  and  C_5 
REMARK    3  A    between atoms: C_5  and  N_6 
REMARK    4  A    between atoms: C_11  and  N_12 
REMARK    5  A    between atoms: C_19  and  C_20 
REMARK    6  A    between atoms: C_20  and  C_21 
REMARK    7  A    between atoms: C_22  and  O_23 
REMARK    8  A    between atoms: C_27  and  O_29 
ROOT
HETATM    1  C   UNK N   1      25.240  20.524   2.469  0.00  0.00     0.012 C 
HETATM    2  C   UNK N   1      25.845  20.520   3.513  0.00  0.00    -0.117 C 
HETATM    3  C   UNK N   1      26.584  20.493   4.782  0.00  0.00     0.094 C 
ENDROOT
BRANCH   3   4
HETATM    4  C   UNK N   1      27.848  19.654   4.652  0.00  0.00     0.032 C 
BRANCH   4   5
HETATM    5  C   UNK N   1      27.541  18.358   3.915  0.00  0.00     0.133 C 
BRANCH   5   6
HETATM    6  N   UNK N   1      27.253  17.277   4.852  0.00  0.00    -0.320 N 
HETATM    7  C   UNK N   1      26.052  16.861   5.284  0.00  0.00     0.143 A 
HETATM    8  N   UNK N   1      24.828  17.320   4.930  0.00  0.00    -0.302 N 
HETATM    9  C   UNK N   1      26.218  15.857   6.164  0.00  0.00     0.122 A 
HETATM   10  C   UNK N   1      23.731  16.724   5.495  0.00  0.00     0.269 A 
ATOM     11  HN  UNK N   1      24.726  18.085   4.262  1.00  0.00     0.171 HD
HETATM   12  N   UNK N   1      23.883  15.699   6.399  0.00  0.00    -0.303 N 
HETATM   13  F   UNK N   1      22.488  17.142   5.156  0.00  0.00    -0.165 F 
HETATM   14  C   UNK N   1      25.124  15.251   6.750  0.00  0.00     0.133 A 
ATOM     15  HN  UNK N   1      23.056  15.267   6.813  1.00  0.00     0.171 HD
HETATM   16  N   UNK N   1      27.525  15.601   6.323  0.00  0.00    -0.339 N 
HETATM   17  C   UNK N   1      28.146  16.478   5.494  0.00  0.00     0.090 A 
ATOM     18  HN  UNK N   1      27.956  14.903   6.930  1.00  0.00     0.167 HD
BRANCH  14  19
HETATM   19  N   UNK N   1      25.278  14.199   7.675  0.00  0.00    -0.383 N 
HETATM   20  H   UNK N   1      26.146  14.054   8.116  0.00  0.00     0.157 HD
HETATM   21  H   UNK N   1      24.516  13.610   7.881  0.00  0.00     0.157 HD
ENDBRANCH  14  19
BRANCH  17  22
HETATM   22  C   UNK N   1      29.640  16.591   5.298  0.00  0.00     0.118 C 
BRANCH  22  23
HETATM   23  C   UNK N   1      30.663  17.028   6.341  0.00  0.00    -0.015 A 
HETATM   24  C   UNK N   1      30.409  17.522   7.656  0.00  0.00     0.075 A 
HETATM   25  C   UNK N   1      31.495  17.857   8.486  0.00  0.00     0.040 A 
HETATM   26  C   UNK N   1      32.805  17.704   8.052  0.00  0.00     0.039 A 
HETATM   27  C   UNK N   1      33.065  17.215   6.769  0.00  0.00     0.068 A 
HETATM   28  C   UNK N   1      31.997  16.891   5.929  0.00  0.00     0.047 A 
BRANCH  24  29
HETATM   29  O   UNK N   1      29.153  17.674   8.123  0.00  0.00    -0.355 OA
HETATM   30  C   UNK N   1      28.830  17.769   9.459  0.00  0.00     0.210 C 
ENDBRANCH  24  29
BRANCH  27  31
HETATM   31  O   UNK N   1      34.331  17.034   6.324  0.00  0.00    -0.356 OA
HETATM   32  C   UNK N   1      35.044  15.874   6.535  0.00  0.00     0.210 C 
ENDBRANCH  27  31
ENDBRANCH  22  23
ENDBRANCH  17  22
ENDBRANCH   5   6
ENDBRANCH   4   5
ENDBRANCH   3   4
TORSDOF 8
ENDMDL
MODEL 5
REMARK VINA RESULT:      -5.8      6.179      8.555
REMARK  8 active torsions:
REMARK  status: ('A' for Active; 'I' for Inactive)
REMARK    1  A    between atoms: C_3  and  C_4 
REMARK    2  A    between atoms: C_4  and  C_5 
REMARK    3  A    between atoms: C_5  and  N_6 
REMARK    4  A    between atoms: C_11  and  N_12 
REMARK    5  A    between atoms: C_19  and  C_20 
REMARK    6  A    between atoms: C_20  and  C_21 
REMARK    7  A    between atoms: C_22  and  O_23 
REMARK    8  A    between atoms: C_27  and  O_29 
ROOT
HETATM    1  C   UNK N   1      23.230  12.370   0.004  0.00  0.00     0.012 C 
HETATM    2  C   UNK N   1      24.098  12.804   0.721  0.00  0.00    -0.117 C 
HETATM    3  C   UNK N   1      25.154  13.352   1.584  0.00  0.00     0.094 C 
ENDROOT
BRANCH   3   4
HETATM    4  C   UNK N   1      24.769  14.733   2.096  0.00  0.00     0.032 C 
BRANCH   4   5
HETATM    5  C   UNK N   1      23.748  14.609   3.218  0.00  0.00     0.133 C 
BRANCH   5   6
HETATM    6  N   UNK N   1      22.754  15.674   3.143  0.00  0.00    -0.320 N 
HETATM    7  C   UNK N   1      21.613  15.687   2.437  0.00  0.00     0.143 A 
HETATM    8  N   UNK N   1      21.098  14.707   1.657  0.00  0.00    -0.302 N 
HETATM    9  C   UNK N   1      20.991  16.866   2.616  0.00  0.00     0.122 A 
HETATM   10  C   UNK N   1      19.897  14.941   1.040  0.00  0.00     0.269 A 
ATOM     11  HN  UNK N   1      21.589  13.820   1.533  1.00  0.00     0.171 HD
HETATM   12  N   UNK N   1      19.249  16.142   1.209  0.00  0.00    -0.303 N 
HETATM   13  F   UNK N   1      19.340  13.981   0.264  0.00  0.00    -0.165 F 
HETATM   14  C   UNK N   1      19.784  17.123   1.995  0.00  0.00     0.133 A 
ATOM     15  HN  UNK N   1      18.358  16.304   0.741  1.00  0.00     0.171 HD
HETATM   16  N   UNK N   1      21.712  17.643   3.438  0.00  0.00    -0.339 N 
HETATM   17  C   UNK N   1      22.789  16.884   3.763  0.00  0.00     0.090 A 
ATOM     18  HN  UNK N   1      21.499  18.591   3.749  1.00  0.00     0.167 HD
BRANCH  14  19
HETATM   19  N   UNK N   1      19.118  18.353   2.168  0.00  0.00    -0.383 N 
HETATM   20  H   UNK N   1      18.251  18.510   1.729  0.00  0.00     0.157 HD
HETATM   21  H   UNK N   1      19.521  19.055   2.729  0.00  0.00     0.157 HD
ENDBRANCH  14  19
BRANCH  17  22
HETATM   22  C   UNK N   1      23.913  17.304   4.683  0.00  0.00     0.118 C 
BRANCH  22  23
HETATM   23  C   UNK N   1      25.060  18.249   4.342  0.00  0.00    -0.015 A 
HETATM   24  C   UNK N   1      24.973  19.621   3.958  0.00  0.00     0.075 A 
HETATM   25  C   UNK N   1      26.156  20.339   3.702  0.00  0.00     0.040 A 
HETATM   26  C   UNK N   1      27.402  19.739   3.827  0.00  0.00     0.039 A 
HETATM   27  C   UNK N   1      27.499  18.398   4.209  0.00  0.00     0.068 A 
HETATM   28  C   UNK N   1      26.333  17.670   4.454  0.00  0.00     0.047 A 
BRANCH  24  29
HETATM   29  O   UNK N   1      23.784  20.247   3.838  0.00  0.00    -0.355 OA
HETATM   30  C   UNK N   1      23.257  20.682   2.641  0.00  0.00     0.210 C 
ENDBRANCH  24  29
BRANCH  27  31
HETATM   31  O   UNK N   1      28.699  17.791   4.360  0.00  0.00    -0.356 OA
HETATM   32  C   UNK N   1      29.079  16.683   3.636  0.00  0.00     0.210 C 
ENDBRANCH  27  31
ENDBRANCH  22  23
ENDBRANCH  17  22
ENDBRANCH   5   6
ENDBRANCH   4   5
ENDBRANCH   3   4
TORSDOF 8
ENDMDL
MODEL 6
REMARK VINA RESULT:      -5.8      8.722     11.055
REMARK  8 active torsions:
REMARK  status: ('A' for Active; 'I' for Inactive)
REMARK    1  A    between atoms: C_3  and  C_4 
REMARK    2  A    between atoms: C_4  and  C_5 
REMARK    3  A    between atoms: C_5  and  N_6 
REMARK    4  A    between atoms: C_11  and  N_12 
REMARK    5  A    between atoms: C_19  and  C_20 
REMARK    6  A    between atoms: C_20  and  C_21 
REMARK    7  A    between atoms: C_22  and  O_23 
REMARK    8  A    between atoms: C_27  and  O_29 
ROOT
HETATM    1  C   UNK N   1      23.089  12.188   3.097  0.00  0.00     0.012 C 
HETATM    2  C   UNK N   1      23.284  13.078   3.888  0.00  0.00    -0.117 C 
HETATM    3  C   UNK N   1      23.508  14.153   4.864  0.00  0.00     0.094 C 
ENDROOT
BRANCH   3   4
HETATM    4  C   UNK N   1      23.675  13.582   6.265  0.00  0.00     0.032 C 
BRANCH   4   5
HETATM    5  C   UNK N   1      23.327  14.638   7.305  0.00  0.00     0.133 C 
BRANCH   5   6
HETATM    6  N   UNK N   1      22.381  14.116   8.285  0.00  0.00    -0.320 N 
HETATM    7  C   UNK N   1      22.640  13.335   9.345  0.00  0.00     0.143 A 
HETATM    8  N   UNK N   1      23.840  12.876   9.775  0.00  0.00    -0.302 N 
HETATM    9  C   UNK N   1      21.490  13.052   9.983  0.00  0.00     0.122 A 
HETATM   10  C   UNK N   1      23.863  12.099  10.904  0.00  0.00     0.269 A 
ATOM     11  HN  UNK N   1      24.700  13.101   9.273  1.00  0.00     0.171 HD
HETATM   12  N   UNK N   1      22.696  11.796  11.565  0.00  0.00    -0.303 N 
HETATM   13  F   UNK N   1      25.043  11.631  11.375  0.00  0.00    -0.165 F 
HETATM   14  C   UNK N   1      21.494  12.263  11.117  0.00  0.00     0.133 A 
ATOM     15  HN  UNK N   1      22.729  11.214  12.403  1.00  0.00     0.171 HD
HETATM   16  N   UNK N   1      20.462  13.639   9.353  0.00  0.00    -0.339 N 
HETATM   17  C   UNK N   1      21.034  14.303   8.316  0.00  0.00     0.090 A 
ATOM     18  HN  UNK N   1      19.472  13.597   9.598  1.00  0.00     0.167 HD
BRANCH  14  19
HETATM   19  N   UNK N   1      20.299  11.953  11.797  0.00  0.00    -0.383 N 
HETATM   20  H   UNK N   1      19.594  12.635  11.890  0.00  0.00     0.157 HD
HETATM   21  H   UNK N   1      20.169  11.055  12.179  0.00  0.00     0.157 HD
ENDBRANCH  14  19
BRANCH  17  22
HETATM   22  C   UNK N   1      20.296  15.140   7.297  0.00  0.00     0.118 C 
BRANCH  22  23
HETATM   23  C   UNK N   1      20.075  14.796   5.828  0.00  0.00    -0.015 A 
HETATM   24  C   UNK N   1      19.804  13.512   5.266  0.00  0.00     0.075 A 
HETATM   25  C   UNK N   1      19.607  13.396   3.878  0.00  0.00     0.040 A 
HETATM   26  C   UNK N   1      19.661  14.510   3.050  0.00  0.00     0.039 A 
HETATM   27  C   UNK N   1      19.918  15.773   3.590  0.00  0.00     0.068 A 
HETATM   28  C   UNK N   1      20.129  15.900   4.965  0.00  0.00     0.047 A 
BRANCH  24  29
HETATM   29  O   UNK N   1      19.730  12.405   6.035  0.00  0.00    -0.355 OA
HETATM   30  C   UNK N   1      20.657  11.387   6.016  0.00  0.00     0.210 C 
ENDBRANCH  24  29
BRANCH  27  31
HETATM   31  O   UNK N   1      19.955  16.881   2.813  0.00  0.00    -0.356 OA
HETATM   32  C   UNK N   1      20.890  17.880   2.971  0.00  0.00     0.210 C 
ENDBRANCH  27  31
ENDBRANCH  22  23
ENDBRANCH  17  22
ENDBRANCH   5   6
ENDBRANCH   4   5
ENDBRANCH   3   4
TORSDOF 8
ENDMDL
MODEL 7
REMARK VINA RESULT:      -5.8      9.496     12.965
REMARK  8 active torsions:
REMARK  status: ('A' for Active; 'I' for Inactive)
REMARK    1  A    between atoms: C_3  and  C_4 
REMARK    2  A    between atoms: C_4  and  C_5 
REMARK    3  A    between atoms: C_5  and  N_6 
REMARK    4  A    between atoms: C_11  and  N_12 
REMARK    5  A    between atoms: C_19  and  C_20 
REMARK    6  A    between atoms: C_20  and  C_21 
REMARK    7  A    between atoms: C_22  and  O_23 
REMARK    8  A    between atoms: C_27  and  O_29 
ROOT
HETATM    1  C   UNK N   1      38.224   8.534  14.684  0.00  0.00     0.012 C 
HETATM    2  C   UNK N   1      37.027   8.533  14.532  0.00  0.00    -0.117 C 
HETATM    3  C   UNK N   1      35.570   8.554  14.342  0.00  0.00     0.094 C 
ENDROOT
BRANCH   3   4
HETATM    4  C   UNK N   1      35.200   9.331  13.086  0.00  0.00     0.032 C 
BRANCH   4   5
HETATM    5  C   UNK N   1      34.667  10.706  13.460  0.00  0.00     0.133 C 
BRANCH   5   6
HETATM    6  N   UNK N   1      35.495  11.763  12.890  0.00  0.00    -0.320 N 
HETATM    7  C   UNK N   1      35.392  12.324  11.675  0.00  0.00     0.143 A 
HETATM    8  N   UNK N   1      34.478  12.070  10.708  0.00  0.00    -0.302 N 
HETATM    9  C   UNK N   1      36.363  13.243  11.524  0.00  0.00     0.122 A 
HETATM   10  C   UNK N   1      34.560  12.786   9.543  0.00  0.00     0.269 A 
ATOM     11  HN  UNK N   1      33.751  11.366  10.844  1.00  0.00     0.171 HD
HETATM   12  N   UNK N   1      35.549  13.726   9.370  0.00  0.00    -0.303 N 
HETATM   13  F   UNK N   1      33.656  12.573   8.556  0.00  0.00    -0.165 F 
HETATM   14  C   UNK N   1      36.466  13.968  10.352  0.00  0.00     0.133 A 
ATOM     15  HN  UNK N   1      35.598  14.249   8.496  1.00  0.00     0.171 HD
HETATM   16  N   UNK N   1      37.117  13.298  12.632  0.00  0.00    -0.339 N 
HETATM   17  C   UNK N   1      36.556  12.387  13.468  0.00  0.00     0.090 A 
ATOM     18  HN  UNK N   1      37.929  13.890  12.807  1.00  0.00     0.167 HD
BRANCH  14  19
HETATM   19  N   UNK N   1      37.477  14.933  10.174  0.00  0.00    -0.383 N 
HETATM   20  H   UNK N   1      37.954  15.296  10.955  0.00  0.00     0.157 HD
HETATM   21  H   UNK N   1      37.708  15.242   9.269  0.00  0.00     0.157 HD
ENDBRANCH  14  19
BRANCH  17  22
HETATM   22  C   UNK N   1      37.035  12.069  14.866  0.00  0.00     0.118 C 
BRANCH  22  23
HETATM   23  C   UNK N   1      36.342  12.447  16.171  0.00  0.00    -0.015 A 
HETATM   24  C   UNK N   1      36.030  13.757  16.644  0.00  0.00     0.075 A 
HETATM   25  C   UNK N   1      35.364  13.904  17.874  0.00  0.00     0.040 A 
HETATM   26  C   UNK N   1      34.996  12.797  18.628  0.00  0.00     0.039 A 
HETATM   27  C   UNK N   1      35.289  11.509  18.171  0.00  0.00     0.068 A 
HETATM   28  C   UNK N   1      35.962  11.350  16.958  0.00  0.00     0.047 A 
BRANCH  24  29
HETATM   29  O   UNK N   1      36.358  14.860  15.938  0.00  0.00    -0.355 OA
HETATM   30  C   UNK N   1      37.476  15.627  16.177  0.00  0.00     0.210 C 
ENDBRANCH  24  29
BRANCH  27  31
HETATM   31  O   UNK N   1      34.925  10.410  18.872  0.00  0.00    -0.356 OA
HETATM   32  C   UNK N   1      34.517   9.238  18.275  0.00  0.00     0.210 C 
ENDBRANCH  27  31
ENDBRANCH  22  23
ENDBRANCH  17  22
ENDBRANCH   5   6
ENDBRANCH   4   5
ENDBRANCH   3   4
TORSDOF 8
ENDMDL
MODEL 8
REMARK VINA RESULT:      -5.7      8.598     12.044
REMARK  8 active torsions:
REMARK  status: ('A' for Active; 'I' for Inactive)
REMARK    1  A    between atoms: C_3  and  C_4 
REMARK    2  A    between atoms: C_4  and  C_5 
REMARK    3  A    between atoms: C_5  and  N_6 
REMARK    4  A    between atoms: C_11  and  N_12 
REMARK    5  A    between atoms: C_19  and  C_20 
REMARK    6  A    between atoms: C_20  and  C_21 
REMARK    7  A    between atoms: C_22  and  O_23 
REMARK    8  A    between atoms: C_27  and  O_29 
ROOT
HETATM    1  C   UNK N   1      38.642   8.250  11.753  0.00  0.00     0.012 C 
HETATM    2  C   UNK N   1      37.491   8.611  11.721  0.00  0.00    -0.117 C 
HETATM    3  C   UNK N   1      36.095   9.067  11.694  0.00  0.00     0.094 C 
ENDROOT
BRANCH   3   4
HETATM    4  C   UNK N   1      36.018  10.545  11.336  0.00  0.00     0.032 C 
BRANCH   4   5
HETATM    5  C   UNK N   1      35.141  11.281  12.339  0.00  0.00     0.133 C 
BRANCH   5   6
HETATM    6  N   UNK N   1      35.320  12.725  12.233  0.00  0.00    -0.320 N 
HETATM    7  C   UNK N   1      34.808  13.552  11.307  0.00  0.00     0.143 A 
HETATM    8  N   UNK N   1      33.982  13.250  10.277  0.00  0.00    -0.302 N 
HETATM    9  C   UNK N   1      35.234  14.805  11.546  0.00  0.00     0.122 A 
HETATM   10  C   UNK N   1      33.572  14.272   9.462  0.00  0.00     0.269 A 
ATOM     11  HN  UNK N   1      33.674  12.290  10.114  1.00  0.00     0.171 HD
HETATM   12  N   UNK N   1      34.000  15.559   9.689  0.00  0.00    -0.303 N 
HETATM   13  F   UNK N   1      32.733  14.015   8.430  0.00  0.00    -0.165 F 
HETATM   14  C   UNK N   1      34.837  15.847  10.729  0.00  0.00     0.133 A 
ATOM     15  HN  UNK N   1      33.689  16.309   9.072  1.00  0.00     0.171 HD
HETATM   16  N   UNK N   1      36.028  14.821  12.626  0.00  0.00    -0.339 N 
HETATM   17  C   UNK N   1      36.057  13.530  13.043  0.00  0.00     0.090 A 
ATOM     18  HN  UNK N   1      36.504  15.622  13.041  1.00  0.00     0.167 HD
BRANCH  14  19
HETATM   19  N   UNK N   1      35.274  17.166  10.961  0.00  0.00    -0.383 N 
HETATM   20  H   UNK N   1      34.655  17.831  11.341  0.00  0.00     0.157 HD
HETATM   21  H   UNK N   1      36.199  17.423  10.744  0.00  0.00     0.157 HD
ENDBRANCH  14  19
BRANCH  17  22
HETATM   22  C   UNK N   1      36.815  13.013  14.245  0.00  0.00     0.118 C 
BRANCH  22  23
HETATM   23  C   UNK N   1      36.230  12.675  15.611  0.00  0.00    -0.015 A 
HETATM   24  C   UNK N   1      35.949  11.380  16.142  0.00  0.00     0.075 A 
HETATM   25  C   UNK N   1      35.424  11.268  17.443  0.00  0.00     0.040 A 
HETATM   26  C   UNK N   1      35.188  12.394  18.221  0.00  0.00     0.039 A 
HETATM   27  C   UNK N   1      35.466  13.667  17.714  0.00  0.00     0.068 A 
HETATM   28  C   UNK N   1      35.974  13.793  16.419  0.00  0.00     0.047 A 
BRANCH  24  29
HETATM   29  O   UNK N   1      36.175  10.259  15.426  0.00  0.00    -0.355 OA
HETATM   30  C   UNK N   1      37.401   9.638  15.328  0.00  0.00     0.210 C 
ENDBRANCH  24  29
BRANCH  27  31
HETATM   31  O   UNK N   1      35.267  14.782  18.455  0.00  0.00    -0.356 OA
HETATM   32  C   UNK N   1      35.940  15.963  18.234  0.00  0.00     0.210 C 
ENDBRANCH  27  31
ENDBRANCH  22  23
ENDBRANCH  17  22
ENDBRANCH   5   6
ENDBRANCH   4   5
ENDBRANCH   3   4
TORSDOF 8
ENDMDL
MODEL 9
REMARK VINA RESULT:      -5.7     11.118     12.807
REMARK  8 active torsions:
REMARK  status: ('A' for Active; 'I' for Inactive)
REMARK    1  A    between atoms: C_3  and  C_4 
REMARK    2  A    between atoms: C_4  and  C_5 
REMARK    3  A    between atoms: C_5  and  N_6 
REMARK    4  A    between atoms: C_11  and  N_12 
REMARK    5  A    between atoms: C_19  and  C_20 
REMARK    6  A    between atoms: C_20  and  C_21 
REMARK    7  A    between atoms: C_22  and  O_23 
REMARK    8  A    between atoms: C_27  and  O_29 
ROOT
HETATM    1  C   UNK N   1      32.490  23.741  -7.118  0.00  0.00     0.012 C 
HETATM    2  C   UNK N   1      32.559  24.327  -6.065  0.00  0.00    -0.117 C 
HETATM    3  C   UNK N   1      32.644  25.059  -4.794  0.00  0.00     0.094 C 
ENDROOT
BRANCH   3   4
HETATM    4  C   UNK N   1      31.659  26.220  -4.774  0.00  0.00     0.032 C 
BRANCH   4   5
HETATM    5  C   UNK N   1      30.715  26.084  -3.589  0.00  0.00     0.133 C 
BRANCH   5   6
HETATM    6  N   UNK N   1      29.396  25.629  -4.018  0.00  0.00    -0.320 N 
HETATM    7  C   UNK N   1      28.431  26.348  -4.612  0.00  0.00     0.143 A 
HETATM    8  N   UNK N   1      28.463  27.650  -4.984  0.00  0.00    -0.302 N 
HETATM    9  C   UNK N   1      27.356  25.566  -4.820  0.00  0.00     0.122 A 
HETATM   10  C   UNK N   1      27.353  28.170  -5.597  0.00  0.00     0.269 A 
ATOM     11  HN  UNK N   1      29.289  28.226  -4.814  1.00  0.00     0.171 HD
HETATM   12  N   UNK N   1      26.244  27.386  -5.813  0.00  0.00    -0.303 N 
HETATM   13  F   UNK N   1      27.349  29.464  -5.999  0.00  0.00    -0.165 F 
HETATM   14  C   UNK N   1      26.225  26.076  -5.428  0.00  0.00     0.133 A 
ATOM     15  HN  UNK N   1      25.424  27.788  -6.267  1.00  0.00     0.171 HD
HETATM   16  N   UNK N   1      27.598  24.327  -4.366  0.00  0.00    -0.339 N 
HETATM   17  C   UNK N   1      28.867  24.384  -3.887  0.00  0.00     0.090 A 
ATOM     18  HN  UNK N   1      26.970  23.523  -4.377  1.00  0.00     0.167 HD
BRANCH  14  19
HETATM   19  N   UNK N   1      25.089  25.273  -5.652  0.00  0.00    -0.383 N 
HETATM   20  H   UNK N   1      25.025  24.384  -5.235  0.00  0.00     0.157 HD
HETATM   21  H   UNK N   1      24.359  25.603  -6.224  0.00  0.00     0.157 HD
ENDBRANCH  14  19
BRANCH  17  22
HETATM   22  C   UNK N   1      29.623  23.230  -3.267  0.00  0.00     0.118 C 
BRANCH  22  23
HETATM   23  C   UNK N   1      30.433  22.173  -4.008  0.00  0.00    -0.015 A 
HETATM   24  C   UNK N   1      30.118  21.548  -5.253  0.00  0.00     0.075 A 
HETATM   25  C   UNK N   1      31.009  20.601  -5.792  0.00  0.00     0.040 A 
HETATM   26  C   UNK N   1      32.191  20.274  -5.140  0.00  0.00     0.039 A 
HETATM   27  C   UNK N   1      32.513  20.886  -3.925  0.00  0.00     0.068 A 
HETATM   28  C   UNK N   1      31.631  21.817  -3.372  0.00  0.00     0.047 A 
BRANCH  24  29
HETATM   29  O   UNK N   1      28.987  21.844  -5.926  0.00  0.00    -0.355 OA
HETATM   30  C   UNK N   1      28.960  22.412  -7.181  0.00  0.00     0.210 C 
ENDBRANCH  24  29
BRANCH  27  31
HETATM   31  O   UNK N   1      33.667  20.605  -3.276  0.00  0.00    -0.356 OA
HETATM   32  C   UNK N   1      34.906  20.706  -3.869  0.00  0.00     0.210 C 
ENDBRANCH  27  31
ENDBRANCH  22  23
ENDBRANCH  17  22
ENDBRANCH   5   6
ENDBRANCH   4   5
ENDBRANCH   3   4
TORSDOF 8
ENDMDL
