REMARK  9 active torsions:
REMARK  status: ('A' for Active; 'I' for Inactive)
REMARK    1  A    between atoms: C_3  and  N_4 
REMARK       I    between atoms: C_8  and  N_25 
REMARK    2  A    between atoms: C_9  and  N_14 
REMARK    3  A    between atoms: N_14  and  C_15 
REMARK    4  A    between atoms: C_18  and  C_22 
REMARK    5  A    between atoms: C_22  and  O_23 
REMARK    6  A    between atoms: C_26  and  N_25 
REMARK    7  A    between atoms: C_26  and  C_27 
REMARK    8  A    between atoms: C_26  and  C_30 
REMARK    9  A    between atoms: C_30  and  O_31 
ROOT
HETATM    1  N   UNK N   1       0.546  -0.214   0.009  0.00  0.00    -0.174 N 
ATOM      2  HN  UNK N   1       1.349   0.406  -0.089  1.00  0.00     0.186 HD
HETATM    3  N   UNK N   1      -2.698  -2.564   0.299  0.00  0.00    -0.323 N 
HETATM    4  C   UNK N   1      -1.538  -1.897   0.234  0.00  0.00     0.155 A 
HETATM    5  N   UNK N   1      -0.287  -2.414   0.303  0.00  0.00    -0.174 N 
ATOM      6  HN  UNK N   1      -0.138  -3.413   0.446  1.00  0.00     0.186 HD
HETATM    7  C   UNK N   1       0.769  -1.557   0.176  0.00  0.00     0.681 A 
HETATM    8  C   UNK N   1      -0.706   0.328  -0.032  0.00  0.00     0.152 A 
HETATM    9  C   UNK N   1      -1.781  -0.571   0.078  0.00  0.00     0.123 A 
HETATM   10  N   UNK N   1      -3.111  -0.372   0.059  0.00  0.00    -0.346 N 
ATOM     11  HN  UNK N   1      -3.604   0.516  -0.034  1.00  0.00     0.167 HD
HETATM   12  C   UNK N   1      -3.657  -1.610   0.190  0.00  0.00     0.185 A 
HETATM   13  N   UNK N   1       2.097  -2.061   0.222  0.00  0.00    -0.219 N 
HETATM   14  H   UNK N   1       2.275  -2.862   0.765  0.00  0.00     0.178 HD
ENDROOT
BRANCH   8  15
HETATM   15  N   UNK N   1      -0.803   1.752  -0.136  0.00  0.00    -0.340 N 
HETATM   16  H   UNK N   1       0.071   2.202  -0.194  0.00  0.00     0.167 HD
BRANCH  15  17
HETATM   17  C   UNK N   1      -1.908   2.646  -0.172  0.00  0.00     0.035 A 
HETATM   18  C   UNK N   1      -3.215   2.231  -0.409  0.00  0.00     0.030 A 
HETATM   19  C   UNK N   1      -4.267   3.144  -0.395  0.00  0.00     0.022 A 
HETATM   20  C   UNK N   1      -4.037   4.504  -0.147  0.00  0.00     0.059 A 
HETATM   21  C   UNK N   1      -2.704   4.937   0.070  0.00  0.00     0.053 A 
HETATM   22 Cl   UNK N   1      -2.272   6.613   0.386  0.00  0.00    -0.083 Cl
HETATM   23  C   UNK N   1      -1.663   4.003   0.052  0.00  0.00     0.054 A 
BRANCH  20  24
HETATM   24  C   UNK N   1      -5.212   5.417  -0.119  0.00  0.00     0.177 C 
HETATM   25  O   UNK N   1      -6.333   4.969  -0.309  0.00  0.00    -0.646 OA
BRANCH  24  26
HETATM   26  O   UNK N   1      -5.072   6.733   0.126  0.00  0.00    -0.773 OA
HETATM   27  H   UNK N   1      -4.230   7.107   0.297  0.00  0.00     0.167 HD
ENDBRANCH  24  26
ENDBRANCH  20  24
ENDBRANCH  15  17
ENDBRANCH   8  15
BRANCH  13  28
HETATM   28  C   UNK N   1       3.205  -1.449  -0.497  0.00  0.00     0.126 C 
BRANCH  28  29
HETATM   29  C   UNK N   1       4.529  -2.191  -0.223  0.00  0.00     0.003 C 
HETATM   30  C   UNK N   1       5.044  -2.028   1.198  0.00  0.00     0.011 C 
HETATM   31  C   UNK N   1       4.418  -3.672  -0.544  0.00  0.00     0.011 C 
ENDBRANCH  28  29
BRANCH  28  32
HETATM   32  C   UNK N   1       3.345   0.055  -0.225  0.00  0.00     0.190 C 
BRANCH  32  33
HETATM   33  O   UNK N   1       3.428   0.330   1.141  0.00  0.00    -0.399 OA
HETATM   34  H   UNK N   1       3.623   0.375   2.090  0.00  0.00     0.209 HD
ENDBRANCH  32  33
ENDBRANCH  28  32
ENDBRANCH  13  28
BRANCH   3  35
HETATM   35  C   UNK N   1      -2.887  -4.010   0.455  0.00  0.00     0.084 C 
HETATM   36  C   UNK N   1      -4.362  -4.391   0.472  0.00  0.00     0.032 C 
HETATM   37  C   UNK N   1      -2.208  -4.760  -0.677  0.00  0.00     0.032 C 
ENDBRANCH   3  35
TORSDOF 9
