MODEL 1
REMARK VINA RESULT:      -7.2      0.000      0.000
REMARK  9 active torsions:
REMARK  status: ('A' for Active; 'I' for Inactive)
REMARK    1  A    between atoms: C_3  and  N_4 
REMARK       I    between atoms: C_8  and  N_25 
REMARK    2  A    between atoms: C_9  and  N_14 
REMARK    3  A    between atoms: N_14  and  C_15 
REMARK    4  A    between atoms: C_18  and  C_22 
REMARK    5  A    between atoms: C_22  and  O_23 
REMARK    6  A    between atoms: C_26  and  N_25 
REMARK    7  A    between atoms: C_26  and  C_27 
REMARK    8  A    between atoms: C_26  and  C_30 
REMARK    9  A    between atoms: C_30  and  O_31 
ROOT
HETATM    1  N   UNK N   1      23.501  16.369   5.976  0.00  0.00    -0.174 N 
ATOM      2  HN  UNK N   1      23.681  17.195   5.406  1.00  0.00     0.186 HD
HETATM    3  N   UNK N   1      22.663  13.091   8.139  0.00  0.00    -0.323 N 
HETATM    4  C   UNK N   1      23.081  14.162   7.451  0.00  0.00     0.155 A 
HETATM    5  N   UNK N   1      24.361  14.532   7.202  0.00  0.00    -0.174 N 
ATOM      6  HN  UNK N   1      25.145  13.994   7.572  1.00  0.00     0.186 HD
HETATM    7  C   UNK N   1      24.570  15.647   6.442  0.00  0.00     0.681 A 
HETATM    8  C   UNK N   1      22.206  16.030   6.242  0.00  0.00     0.152 A 
HETATM    9  C   UNK N   1      22.009  14.867   7.007  0.00  0.00     0.123 A 
HETATM   10  N   UNK N   1      20.885  14.258   7.425  0.00  0.00    -0.346 N 
ATOM     11  HN  UNK N   1      19.923  14.552   7.261  1.00  0.00     0.167 HD
HETATM   12  C   UNK N   1      21.308  13.165   8.114  0.00  0.00     0.185 A 
HETATM   13  N   UNK N   1      25.896  16.058   6.140  0.00  0.00    -0.219 N 
HETATM   14  H   UNK N   1      26.607  15.860   6.791  0.00  0.00     0.178 HD
ENDROOT
BRANCH   8  15
HETATM   15  N   UNK N   1      21.183  16.907   5.760  0.00  0.00    -0.340 N 
HETATM   16  H   UNK N   1      20.392  16.946   6.345  0.00  0.00     0.167 HD
BRANCH  15  17
HETATM   17  C   UNK N   1      21.082  17.732   4.607  0.00  0.00     0.035 A 
HETATM   18  C   UNK N   1      19.984  17.713   3.752  0.00  0.00     0.030 A 
HETATM   19  C   UNK N   1      19.917  18.571   2.657  0.00  0.00     0.022 A 
HETATM   20  C   UNK N   1      20.955  19.473   2.384  0.00  0.00     0.059 A 
HETATM   21  C   UNK N   1      22.088  19.479   3.238  0.00  0.00     0.053 A 
HETATM   22 Cl   UNK N   1      23.463  20.552   3.009  0.00  0.00    -0.083 Cl
HETATM   23  C   UNK N   1      22.134  18.609   4.332  0.00  0.00     0.054 A 
BRANCH  20  24
HETATM   24  C   UNK N   1      20.803  20.379   1.214  0.00  0.00     0.177 C 
HETATM   25  O   UNK N   1      20.825  21.590   1.377  0.00  0.00    -0.646 OA
BRANCH  24  26
HETATM   26  O   UNK N   1      20.655  19.895  -0.033  0.00  0.00    -0.773 OA
HETATM   27  H   UNK N   1      20.565  20.469  -0.768  0.00  0.00     0.167 HD
ENDBRANCH  24  26
ENDBRANCH  20  24
ENDBRANCH  15  17
ENDBRANCH   8  15
BRANCH  13  28
HETATM   28  C   UNK N   1      26.253  16.756   4.913  0.00  0.00     0.126 C 
BRANCH  28  29
HETATM   29  C   UNK N   1      27.471  16.102   4.230  0.00  0.00     0.003 C 
HETATM   30  C   UNK N   1      27.969  14.847   4.928  0.00  0.00     0.011 C 
HETATM   31  C   UNK N   1      27.191  15.781   2.772  0.00  0.00     0.011 C 
ENDBRANCH  28  29
BRANCH  28  32
HETATM   32  C   UNK N   1      26.472  18.261   5.116  0.00  0.00     0.190 C 
BRANCH  32  33
HETATM   33  O   UNK N   1      25.326  18.891   5.604  0.00  0.00    -0.399 OA
HETATM   34  H   UNK N   1      24.657  19.476   5.992  0.00  0.00     0.209 HD
ENDBRANCH  32  33
ENDBRANCH  28  32
ENDBRANCH  13  28
BRANCH   3  35
HETATM   35  C   UNK N   1      23.492  12.064   8.779  0.00  0.00     0.084 C 
HETATM   36  C   UNK N   1      22.896  11.596  10.101  0.00  0.00     0.032 C 
HETATM   37  C   UNK N   1      23.647  10.861   7.867  0.00  0.00     0.032 C 
ENDBRANCH   3  35
TORSDOF 9
ENDMDL
MODEL 2
REMARK VINA RESULT:      -7.1      3.736      4.683
REMARK  9 active torsions:
REMARK  status: ('A' for Active; 'I' for Inactive)
REMARK    1  A    between atoms: C_3  and  N_4 
REMARK       I    between atoms: C_8  and  N_25 
REMARK    2  A    between atoms: C_9  and  N_14 
REMARK    3  A    between atoms: N_14  and  C_15 
REMARK    4  A    between atoms: C_18  and  C_22 
REMARK    5  A    between atoms: C_22  and  O_23 
REMARK    6  A    between atoms: C_26  and  N_25 
REMARK    7  A    between atoms: C_26  and  C_27 
REMARK    8  A    between atoms: C_26  and  C_30 
REMARK    9  A    between atoms: C_30  and  O_31 
ROOT
HETATM    1  N   UNK N   1      26.599  17.358   6.006  0.00  0.00    -0.174 N 
ATOM      2  HN  UNK N   1      26.619  18.106   6.699  1.00  0.00     0.186 HD
HETATM    3  N   UNK N   1      26.464  14.515   3.172  0.00  0.00    -0.323 N 
HETATM    4  C   UNK N   1      26.614  15.387   4.179  0.00  0.00     0.155 A 
HETATM    5  N   UNK N   1      27.574  15.381   5.136  0.00  0.00    -0.174 N 
ATOM      6  HN  UNK N   1      28.278  14.643   5.169  1.00  0.00     0.186 HD
HETATM    7  C   UNK N   1      27.570  16.391   6.055  0.00  0.00     0.681 A 
HETATM    8  C   UNK N   1      25.607  17.364   5.068  0.00  0.00     0.152 A 
HETATM    9  C   UNK N   1      25.640  16.329   4.117  0.00  0.00     0.123 A 
HETATM   10  N   UNK N   1      24.838  16.058   3.072  0.00  0.00    -0.346 N 
ATOM     11  HN  UNK N   1      24.013  16.577   2.772  1.00  0.00     0.167 HD
HETATM   12  C   UNK N   1      25.365  14.943   2.501  0.00  0.00     0.185 A 
HETATM   13  N   UNK N   1      28.571  16.433   7.062  0.00  0.00    -0.219 N 
HETATM   14  H   UNK N   1      28.950  15.583   7.381  0.00  0.00     0.178 HD
ENDROOT
BRANCH   8  15
HETATM   15  N   UNK N   1      24.611  18.386   5.170  0.00  0.00    -0.340 N 
HETATM   16  H   UNK N   1      24.518  18.754   6.079  0.00  0.00     0.167 HD
BRANCH  15  17
HETATM   17  C   UNK N   1      23.731  18.977   4.223  0.00  0.00     0.035 A 
HETATM   18  C   UNK N   1      24.102  20.030   3.392  0.00  0.00     0.030 A 
HETATM   19  C   UNK N   1      23.212  20.546   2.453  0.00  0.00     0.022 A 
HETATM   20  C   UNK N   1      21.918  20.023   2.324  0.00  0.00     0.059 A 
HETATM   21  C   UNK N   1      21.525  18.967   3.185  0.00  0.00     0.053 A 
HETATM   22 Cl   UNK N   1      19.932  18.221   3.136  0.00  0.00    -0.083 Cl
HETATM   23  C   UNK N   1      22.436  18.463   4.120  0.00  0.00     0.054 A 
BRANCH  20  24
HETATM   24  C   UNK N   1      21.031  20.605   1.280  0.00  0.00     0.177 C 
HETATM   25  O   UNK N   1      20.647  21.760   1.386  0.00  0.00    -0.646 OA
BRANCH  24  26
HETATM   26  O   UNK N   1      20.648  19.889   0.207  0.00  0.00    -0.773 OA
HETATM   27  H   UNK N   1      21.097  19.966  -0.612  0.00  0.00     0.167 HD
ENDBRANCH  24  26
ENDBRANCH  20  24
ENDBRANCH  15  17
ENDBRANCH   8  15
BRANCH  13  28
HETATM   28  C   UNK N   1      29.063  17.674   7.644  0.00  0.00     0.126 C 
BRANCH  28  29
HETATM   29  C   UNK N   1      30.586  17.818   7.450  0.00  0.00     0.003 C 
HETATM   30  C   UNK N   1      31.352  18.049   8.743  0.00  0.00     0.011 C 
HETATM   31  C   UNK N   1      31.176  16.617   6.731  0.00  0.00     0.011 C 
ENDBRANCH  28  29
BRANCH  28  32
HETATM   32  C   UNK N   1      28.671  17.848   9.117  0.00  0.00     0.190 C 
BRANCH  32  33
HETATM   33  O   UNK N   1      27.309  18.117   9.264  0.00  0.00    -0.399 OA
HETATM   34  H   UNK N   1      26.412  18.340   9.557  0.00  0.00     0.209 HD
ENDBRANCH  32  33
ENDBRANCH  28  32
ENDBRANCH  13  28
BRANCH   3  35
HETATM   35  C   UNK N   1      27.304  13.353   2.867  0.00  0.00     0.084 C 
HETATM   36  C   UNK N   1      26.520  12.255   2.160  0.00  0.00     0.032 C 
HETATM   37  C   UNK N   1      28.471  13.758   1.983  0.00  0.00     0.032 C 
ENDBRANCH   3  35
TORSDOF 9
ENDMDL
MODEL 3
REMARK VINA RESULT:      -7.1     11.883     15.605
REMARK  9 active torsions:
REMARK  status: ('A' for Active; 'I' for Inactive)
REMARK    1  A    between atoms: C_3  and  N_4 
REMARK       I    between atoms: C_8  and  N_25 
REMARK    2  A    between atoms: C_9  and  N_14 
REMARK    3  A    between atoms: N_14  and  C_15 
REMARK    4  A    between atoms: C_18  and  C_22 
REMARK    5  A    between atoms: C_22  and  O_23 
REMARK    6  A    between atoms: C_26  and  N_25 
REMARK    7  A    between atoms: C_26  and  C_27 
REMARK    8  A    between atoms: C_26  and  C_30 
REMARK    9  A    between atoms: C_30  and  O_31 
ROOT
HETATM    1  N   UNK N   1      34.413  12.492  10.738  0.00  0.00    -0.174 N 
ATOM      2  HN  UNK N   1      34.420  11.522  11.051  1.00  0.00     0.186 HD
HETATM    3  N   UNK N   1      34.536  16.328   9.555  0.00  0.00    -0.323 N 
HETATM    4  C   UNK N   1      34.392  15.029   9.851  0.00  0.00     0.155 A 
HETATM    5  N   UNK N   1      33.640  14.114   9.192  0.00  0.00    -0.174 N 
ATOM      6  HN  UNK N   1      33.073  14.380   8.387  1.00  0.00     0.186 HD
HETATM    7  C   UNK N   1      33.663  12.823   9.639  0.00  0.00     0.681 A 
HETATM    8  C   UNK N   1      35.153  13.406  11.432  0.00  0.00     0.152 A 
HETATM    9  C   UNK N   1      35.135  14.724  10.945  0.00  0.00     0.123 A 
HETATM   10  N   UNK N   1      35.753  15.839  11.375  0.00  0.00    -0.346 N 
ATOM     11  HN  UNK N   1      36.370  15.933  12.181  1.00  0.00     0.167 HD
HETATM   12  C   UNK N   1      35.376  16.812  10.504  0.00  0.00     0.185 A 
HETATM   13  N   UNK N   1      32.905  11.829   8.964  0.00  0.00    -0.219 N 
HETATM   14  H   UNK N   1      32.070  12.099   8.518  0.00  0.00     0.178 HD
ENDROOT
BRANCH   8  15
HETATM   15  N   UNK N   1      35.832  12.948  12.605  0.00  0.00    -0.340 N 
HETATM   16  H   UNK N   1      36.550  12.301  12.416  0.00  0.00     0.167 HD
BRANCH  15  17
HETATM   17  C   UNK N   1      35.678  13.239  13.988  0.00  0.00     0.035 A 
HETATM   18  C   UNK N   1      34.746  12.601  14.801  0.00  0.00     0.030 A 
HETATM   19  C   UNK N   1      34.663  12.897  16.160  0.00  0.00     0.022 A 
HETATM   20  C   UNK N   1      35.512  13.848  16.742  0.00  0.00     0.059 A 
HETATM   21  C   UNK N   1      36.446  14.521  15.914  0.00  0.00     0.053 A 
HETATM   22 Cl   UNK N   1      37.565  15.740  16.512  0.00  0.00    -0.083 Cl
HETATM   23  C   UNK N   1      36.513  14.207  14.552  0.00  0.00     0.054 A 
BRANCH  20  24
HETATM   24  C   UNK N   1      35.386  14.093  18.205  0.00  0.00     0.177 C 
HETATM   25  O   UNK N   1      35.455  13.155  18.985  0.00  0.00    -0.646 OA
BRANCH  24  26
HETATM   26  O   UNK N   1      35.210  15.334  18.696  0.00  0.00    -0.773 OA
HETATM   27  H   UNK N   1      35.537  15.571  19.542  0.00  0.00     0.167 HD
ENDBRANCH  24  26
ENDBRANCH  20  24
ENDBRANCH  15  17
ENDBRANCH   8  15
BRANCH  13  28
HETATM   28  C   UNK N   1      33.304  10.430   8.902  0.00  0.00     0.126 C 
BRANCH  28  29
HETATM   29  C   UNK N   1      33.129   9.861   7.479  0.00  0.00     0.003 C 
HETATM   30  C   UNK N   1      31.906   8.972   7.318  0.00  0.00     0.011 C 
HETATM   31  C   UNK N   1      33.083  10.964   6.436  0.00  0.00     0.011 C 
ENDBRANCH  28  29
BRANCH  28  32
HETATM   32  C   UNK N   1      32.597   9.552   9.942  0.00  0.00     0.190 C 
BRANCH  32  33
HETATM   33  O   UNK N   1      32.909   9.938  11.247  0.00  0.00    -0.399 OA
HETATM   34  H   UNK N   1      32.942  10.286  12.152  0.00  0.00     0.209 HD
ENDBRANCH  32  33
ENDBRANCH  28  32
ENDBRANCH  13  28
BRANCH   3  35
HETATM   35  C   UNK N   1      33.917  17.063   8.447  0.00  0.00     0.084 C 
HETATM   36  C   UNK N   1      32.437  17.326   8.697  0.00  0.00     0.032 C 
HETATM   37  C   UNK N   1      34.615  18.395   8.238  0.00  0.00     0.032 C 
ENDBRANCH   3  35
TORSDOF 9
ENDMDL
MODEL 4
REMARK VINA RESULT:      -7.0      2.874      4.836
REMARK  9 active torsions:
REMARK  status: ('A' for Active; 'I' for Inactive)
REMARK    1  A    between atoms: C_3  and  N_4 
REMARK       I    between atoms: C_8  and  N_25 
REMARK    2  A    between atoms: C_9  and  N_14 
REMARK    3  A    between atoms: N_14  and  C_15 
REMARK    4  A    between atoms: C_18  and  C_22 
REMARK    5  A    between atoms: C_22  and  O_23 
REMARK    6  A    between atoms: C_26  and  N_25 
REMARK    7  A    between atoms: C_26  and  C_27 
REMARK    8  A    between atoms: C_26  and  C_30 
REMARK    9  A    between atoms: C_30  and  O_31 
ROOT
HETATM    1  N   UNK N   1      21.526  14.753   6.457  0.00  0.00    -0.174 N 
ATOM      2  HN  UNK N   1      21.244  15.281   7.282  1.00  0.00     0.186 HD
HETATM    3  N   UNK N   1      22.695  12.802   3.147  0.00  0.00    -0.323 N 
HETATM    4  C   UNK N   1      22.311  13.326   4.319  0.00  0.00     0.155 A 
HETATM    5  N   UNK N   1      22.266  12.704   5.522  0.00  0.00    -0.174 N 
ATOM      6  HN  UNK N   1      22.514  11.719   5.615  1.00  0.00     0.186 HD
HETATM    7  C   UNK N   1      21.878  13.436   6.608  0.00  0.00     0.681 A 
HETATM    8  C   UNK N   1      21.535  15.387   5.249  0.00  0.00     0.152 A 
HETATM    9  C   UNK N   1      21.959  14.625   4.146  0.00  0.00     0.123 A 
HETATM   10  N   UNK N   1      22.098  14.943   2.846  0.00  0.00    -0.346 N 
ATOM     11  HN  UNK N   1      21.901  15.841   2.404  1.00  0.00     0.167 HD
HETATM   12  C   UNK N   1      22.557  13.811   2.251  0.00  0.00     0.185 A 
HETATM   13  N   UNK N   1      21.837  12.827   7.892  0.00  0.00    -0.219 N 
HETATM   14  H   UNK N   1      21.640  11.865   7.948  0.00  0.00     0.178 HD
ENDROOT
BRANCH   8  15
HETATM   15  N   UNK N   1      21.074  16.741   5.212  0.00  0.00    -0.340 N 
HETATM   16  H   UNK N   1      20.716  17.057   6.074  0.00  0.00     0.167 HD
BRANCH  15  17
HETATM   17  C   UNK N   1      21.030  17.720   4.183  0.00  0.00     0.035 A 
HETATM   18  C   UNK N   1      19.940  17.882   3.333  0.00  0.00     0.030 A 
HETATM   19  C   UNK N   1      19.933  18.884   2.365  0.00  0.00     0.022 A 
HETATM   20  C   UNK N   1      21.023  19.751   2.218  0.00  0.00     0.059 A 
HETATM   21  C   UNK N   1      22.148  19.575   3.064  0.00  0.00     0.053 A 
HETATM   22 Cl   UNK N   1      23.586  20.586   2.984  0.00  0.00    -0.083 Cl
HETATM   23  C   UNK N   1      22.134  18.563   4.029  0.00  0.00     0.054 A 
BRANCH  20  24
HETATM   24  C   UNK N   1      20.934  20.816   1.182  0.00  0.00     0.177 C 
HETATM   25  O   UNK N   1      21.071  20.528   0.002  0.00  0.00    -0.646 OA
BRANCH  24  26
HETATM   26  O   UNK N   1      20.690  22.098   1.513  0.00  0.00    -0.773 OA
HETATM   27  H   UNK N   1      21.361  22.750   1.453  0.00  0.00     0.167 HD
ENDBRANCH  24  26
ENDBRANCH  20  24
ENDBRANCH  15  17
ENDBRANCH   8  15
BRANCH  13  28
HETATM   28  C   UNK N   1      22.074  13.560   9.127  0.00  0.00     0.126 C 
BRANCH  28  29
HETATM   29  C   UNK N   1      23.123  12.851  10.007  0.00  0.00     0.003 C 
HETATM   30  C   UNK N   1      22.547  12.218  11.264  0.00  0.00     0.011 C 
HETATM   31  C   UNK N   1      23.889  11.796   9.226  0.00  0.00     0.011 C 
ENDBRANCH  28  29
BRANCH  28  32
HETATM   32  C   UNK N   1      20.789  13.846   9.917  0.00  0.00     0.190 C 
BRANCH  32  33
HETATM   33  O   UNK N   1      19.741  14.231   9.080  0.00  0.00    -0.399 OA
HETATM   34  H   UNK N   1      19.018  14.670   8.604  0.00  0.00     0.209 HD
ENDBRANCH  32  33
ENDBRANCH  28  32
ENDBRANCH  13  28
BRANCH   3  35
HETATM   35  C   UNK N   1      23.161  11.435   2.892  0.00  0.00     0.084 C 
HETATM   36  C   UNK N   1      22.008  10.493   2.570  0.00  0.00     0.032 C 
HETATM   37  C   UNK N   1      24.139  11.415   1.731  0.00  0.00     0.032 C 
ENDBRANCH   3  35
TORSDOF 9
ENDMDL
MODEL 5
REMARK VINA RESULT:      -7.0      2.330      4.945
REMARK  9 active torsions:
REMARK  status: ('A' for Active; 'I' for Inactive)
REMARK    1  A    between atoms: C_3  and  N_4 
REMARK       I    between atoms: C_8  and  N_25 
REMARK    2  A    between atoms: C_9  and  N_14 
REMARK    3  A    between atoms: N_14  and  C_15 
REMARK    4  A    between atoms: C_18  and  C_22 
REMARK    5  A    between atoms: C_22  and  O_23 
REMARK    6  A    between atoms: C_26  and  N_25 
REMARK    7  A    between atoms: C_26  and  C_27 
REMARK    8  A    between atoms: C_26  and  C_30 
REMARK    9  A    between atoms: C_30  and  O_31 
ROOT
HETATM    1  N   UNK N   1      22.714  15.429   6.756  0.00  0.00    -0.174 N 
ATOM      2  HN  UNK N   1      22.087  15.892   7.413  1.00  0.00     0.186 HD
HETATM    3  N   UNK N   1      25.265  13.734   4.158  0.00  0.00    -0.323 N 
HETATM    4  C   UNK N   1      24.387  14.166   5.072  0.00  0.00     0.155 A 
HETATM    5  N   UNK N   1      23.780  13.436   6.040  0.00  0.00    -0.174 N 
ATOM      6  HN  UNK N   1      23.945  12.433   6.123  1.00  0.00     0.186 HD
HETATM    7  C   UNK N   1      22.940  14.084   6.901  0.00  0.00     0.681 A 
HETATM    8  C   UNK N   1      23.291  16.174   5.769  0.00  0.00     0.152 A 
HETATM    9  C   UNK N   1      24.170  15.496   4.906  0.00  0.00     0.123 A 
HETATM   10  N   UNK N   1      24.900  15.928   3.863  0.00  0.00    -0.346 N 
ATOM     11  HN  UNK N   1      24.943  16.874   3.485  1.00  0.00     0.167 HD
HETATM   12  C   UNK N   1      25.571  14.832   3.421  0.00  0.00     0.185 A 
HETATM   13  N   UNK N   1      22.300  13.359   7.942  0.00  0.00    -0.219 N 
HETATM   14  H   UNK N   1      22.089  12.410   7.790  0.00  0.00     0.178 HD
ENDROOT
BRANCH   8  15
HETATM   15  N   UNK N   1      22.916  17.552   5.680  0.00  0.00    -0.340 N 
HETATM   16  H   UNK N   1      23.001  18.038   6.532  0.00  0.00     0.167 HD
BRANCH  15  17
HETATM   17  C   UNK N   1      22.444  18.358   4.608  0.00  0.00     0.035 A 
HETATM   18  C   UNK N   1      23.235  19.303   3.962  0.00  0.00     0.030 A 
HETATM   19  C   UNK N   1      22.735  20.040   2.890  0.00  0.00     0.022 A 
HETATM   20  C   UNK N   1      21.422  19.853   2.438  0.00  0.00     0.059 A 
HETATM   21  C   UNK N   1      20.603  18.909   3.109  0.00  0.00     0.053 A 
HETATM   22 Cl   UNK N   1      18.936  18.579   2.652  0.00  0.00    -0.083 Cl
HETATM   23  C   UNK N   1      21.126  18.180   4.182  0.00  0.00     0.054 A 
BRANCH  20  24
HETATM   24  C   UNK N   1      20.964  20.654   1.271  0.00  0.00     0.177 C 
HETATM   25  O   UNK N   1      20.826  21.863   1.382  0.00  0.00    -0.646 OA
BRANCH  24  26
HETATM   26  O   UNK N   1      20.710  20.079   0.081  0.00  0.00    -0.773 OA
HETATM   27  H   UNK N   1      20.880  19.168  -0.063  0.00  0.00     0.167 HD
ENDBRANCH  24  26
ENDBRANCH  20  24
ENDBRANCH  15  17
ENDBRANCH   8  15
BRANCH  13  28
HETATM   28  C   UNK N   1      21.945  13.953   9.222  0.00  0.00     0.126 C 
BRANCH  28  29
HETATM   29  C   UNK N   1      22.378  13.054  10.398  0.00  0.00     0.003 C 
HETATM   30  C   UNK N   1      21.221  12.371  11.110  0.00  0.00     0.011 C 
HETATM   31  C   UNK N   1      23.381  12.001   9.957  0.00  0.00     0.011 C 
ENDBRANCH  28  29
BRANCH  28  32
HETATM   32  C   UNK N   1      20.459  14.324   9.325  0.00  0.00     0.190 C 
BRANCH  32  33
HETATM   33  O   UNK N   1      19.996  14.940   8.161  0.00  0.00    -0.399 OA
HETATM   34  H   UNK N   1      19.792  15.235   7.260  0.00  0.00     0.209 HD
ENDBRANCH  32  33
ENDBRANCH  28  32
ENDBRANCH  13  28
BRANCH   3  35
HETATM   35  C   UNK N   1      25.781  12.371   3.992  0.00  0.00     0.084 C 
HETATM   36  C   UNK N   1      26.250  12.112   2.566  0.00  0.00     0.032 C 
HETATM   37  C   UNK N   1      26.944  12.124   4.935  0.00  0.00     0.032 C 
ENDBRANCH   3  35
TORSDOF 9
ENDMDL
MODEL 6
REMARK VINA RESULT:      -6.8     11.372     15.132
REMARK  9 active torsions:
REMARK  status: ('A' for Active; 'I' for Inactive)
REMARK    1  A    between atoms: C_3  and  N_4 
REMARK       I    between atoms: C_8  and  N_25 
REMARK    2  A    between atoms: C_9  and  N_14 
REMARK    3  A    between atoms: N_14  and  C_15 
REMARK    4  A    between atoms: C_18  and  C_22 
REMARK    5  A    between atoms: C_22  and  O_23 
REMARK    6  A    between atoms: C_26  and  N_25 
REMARK    7  A    between atoms: C_26  and  C_27 
REMARK    8  A    between atoms: C_26  and  C_30 
REMARK    9  A    between atoms: C_30  and  O_31 
ROOT
HETATM    1  N   UNK N   1      34.730  13.773  10.639  0.00  0.00    -0.174 N 
ATOM      2  HN  UNK N   1      35.074  14.699  10.887  1.00  0.00     0.186 HD
HETATM    3  N   UNK N   1      33.365  10.087   9.813  0.00  0.00    -0.323 N 
HETATM    4  C   UNK N   1      33.763  11.357   9.963  0.00  0.00     0.155 A 
HETATM    5  N   UNK N   1      33.449  12.416   9.177  0.00  0.00    -0.174 N 
ATOM      6  HN  UNK N   1      32.869  12.299   8.345  1.00  0.00     0.186 HD
HETATM    7  C   UNK N   1      33.932  13.643   9.531  0.00  0.00     0.681 A 
HETATM    8  C   UNK N   1      35.081  12.713  11.424  0.00  0.00     0.152 A 
HETATM    9  C   UNK N   1      34.557  11.462  11.058  0.00  0.00     0.123 A 
HETATM   10  N   UNK N   1      34.691  10.245  11.616  0.00  0.00    -0.346 N 
ATOM     11  HN  UNK N   1      35.234   9.998  12.443  1.00  0.00     0.167 HD
HETATM   12  C   UNK N   1      33.946   9.415  10.839  0.00  0.00     0.185 A 
HETATM   13  N   UNK N   1      33.609  14.783   8.745  0.00  0.00    -0.219 N 
HETATM   14  H   UNK N   1      33.457  14.658   7.781  0.00  0.00     0.178 HD
ENDROOT
BRANCH   8  15
HETATM   15  N   UNK N   1      35.979  12.969  12.509  0.00  0.00    -0.340 N 
HETATM   16  H   UNK N   1      36.924  13.006  12.236  0.00  0.00     0.167 HD
BRANCH  15  17
HETATM   17  C   UNK N   1      35.779  13.179  13.901  0.00  0.00     0.035 A 
HETATM   18  C   UNK N   1      34.877  12.440  14.660  0.00  0.00     0.030 A 
HETATM   19  C   UNK N   1      34.748  12.660  16.030  0.00  0.00     0.022 A 
HETATM   20  C   UNK N   1      35.519  13.635  16.678  0.00  0.00     0.059 A 
HETATM   21  C   UNK N   1      36.422  14.409  15.905  0.00  0.00     0.053 A 
HETATM   22 Cl   UNK N   1      37.445  15.667  16.587  0.00  0.00    -0.083 Cl
HETATM   23  C   UNK N   1      36.536  14.170  14.531  0.00  0.00     0.054 A 
BRANCH  20  24
HETATM   24  C   UNK N   1      35.349  13.796  18.148  0.00  0.00     0.177 C 
HETATM   25  O   UNK N   1      35.194  14.911  18.622  0.00  0.00    -0.646 OA
BRANCH  24  26
HETATM   26  O   UNK N   1      35.348  12.733  18.974  0.00  0.00    -0.773 OA
HETATM   27  H   UNK N   1      35.053  11.893  18.682  0.00  0.00     0.167 HD
ENDBRANCH  24  26
ENDBRANCH  20  24
ENDBRANCH  15  17
ENDBRANCH   8  15
BRANCH  13  28
HETATM   28  C   UNK N   1      33.492  16.124   9.299  0.00  0.00     0.126 C 
BRANCH  28  29
HETATM   29  C   UNK N   1      32.604  17.021   8.413  0.00  0.00     0.003 C 
HETATM   30  C   UNK N   1      33.385  17.970   7.519  0.00  0.00     0.011 C 
HETATM   31  C   UNK N   1      31.656  16.199   7.557  0.00  0.00     0.011 C 
ENDBRANCH  28  29
BRANCH  28  32
HETATM   32  C   UNK N   1      34.850  16.785   9.574  0.00  0.00     0.190 C 
BRANCH  32  33
HETATM   33  O   UNK N   1      35.077  16.957  10.940  0.00  0.00    -0.399 OA
HETATM   34  H   UNK N   1      35.392  17.185  11.829  0.00  0.00     0.209 HD
ENDBRANCH  32  33
ENDBRANCH  28  32
ENDBRANCH  13  28
BRANCH   3  35
HETATM   35  C   UNK N   1      32.493   9.544   8.767  0.00  0.00     0.084 C 
HETATM   36  C   UNK N   1      33.291   8.967   7.605  0.00  0.00     0.032 C 
HETATM   37  C   UNK N   1      31.603   8.450   9.331  0.00  0.00     0.032 C 
ENDBRANCH   3  35
TORSDOF 9
ENDMDL
MODEL 7
REMARK VINA RESULT:      -6.8     12.602     16.328
REMARK  9 active torsions:
REMARK  status: ('A' for Active; 'I' for Inactive)
REMARK    1  A    between atoms: C_3  and  N_4 
REMARK       I    between atoms: C_8  and  N_25 
REMARK    2  A    between atoms: C_9  and  N_14 
REMARK    3  A    between atoms: N_14  and  C_15 
REMARK    4  A    between atoms: C_18  and  C_22 
REMARK    5  A    between atoms: C_22  and  O_23 
REMARK    6  A    between atoms: C_26  and  N_25 
REMARK    7  A    between atoms: C_26  and  C_27 
REMARK    8  A    between atoms: C_26  and  C_30 
REMARK    9  A    between atoms: C_30  and  O_31 
ROOT
HETATM    1  N   UNK N   1      36.752  13.929  10.446  0.00  0.00    -0.174 N 
ATOM      2  HN  UNK N   1      37.328  13.367  11.071  1.00  0.00     0.186 HD
HETATM    3  N   UNK N   1      34.516  16.267   8.066  0.00  0.00    -0.323 N 
HETATM    4  C   UNK N   1      35.276  15.399   8.747  0.00  0.00     0.155 A 
HETATM    5  N   UNK N   1      35.921  14.311   8.259  0.00  0.00    -0.174 N 
ATOM      6  HN  UNK N   1      35.842  14.050   7.276  1.00  0.00     0.186 HD
HETATM    7  C   UNK N   1      36.679  13.574   9.123  0.00  0.00     0.681 A 
HETATM    8  C   UNK N   1      36.085  15.002  10.961  0.00  0.00     0.152 A 
HETATM    9  C   UNK N   1      35.327  15.762  10.053  0.00  0.00     0.123 A 
HETATM   10  N   UNK N   1      34.580  16.867  10.227  0.00  0.00    -0.346 N 
ATOM     11  HN  UNK N   1      34.413  17.373  11.097  1.00  0.00     0.167 HD
HETATM   12  C   UNK N   1      34.095  17.165   8.992  0.00  0.00     0.185 A 
HETATM   13  N   UNK N   1      37.388  12.438   8.647  0.00  0.00    -0.219 N 
HETATM   14  H   UNK N   1      37.011  11.933   7.891  0.00  0.00     0.178 HD
ENDROOT
BRANCH   8  15
HETATM   15  N   UNK N   1      36.183  15.222  12.372  0.00  0.00    -0.340 N 
HETATM   16  H   UNK N   1      36.344  16.164  12.612  0.00  0.00     0.167 HD
BRANCH  15  17
HETATM   17  C   UNK N   1      36.095  14.355  13.494  0.00  0.00     0.035 A 
HETATM   18  C   UNK N   1      36.832  14.542  14.660  0.00  0.00     0.030 A 
HETATM   19  C   UNK N   1      36.679  13.683  15.746  0.00  0.00     0.022 A 
HETATM   20  C   UNK N   1      35.784  12.606  15.692  0.00  0.00     0.059 A 
HETATM   21  C   UNK N   1      35.049  12.395  14.498  0.00  0.00     0.053 A 
HETATM   22 Cl   UNK N   1      33.898  11.081  14.291  0.00  0.00    -0.083 Cl
HETATM   23  C   UNK N   1      35.218  13.270  13.419  0.00  0.00     0.054 A 
BRANCH  20  24
HETATM   24  C   UNK N   1      35.651  11.747  16.900  0.00  0.00     0.177 C 
HETATM   25  O   UNK N   1      34.982  12.132  17.848  0.00  0.00    -0.646 OA
BRANCH  24  26
HETATM   26  O   UNK N   1      36.243  10.540  16.971  0.00  0.00    -0.773 OA
HETATM   27  H   UNK N   1      37.174  10.454  16.917  0.00  0.00     0.167 HD
ENDBRANCH  24  26
ENDBRANCH  20  24
ENDBRANCH  15  17
ENDBRANCH   8  15
BRANCH  13  28
HETATM   28  C   UNK N   1      38.646  11.987   9.224  0.00  0.00     0.126 C 
BRANCH  28  29
HETATM   29  C   UNK N   1      39.706  11.735   8.132  0.00  0.00     0.003 C 
HETATM   30  C   UNK N   1      41.115  11.550   8.672  0.00  0.00     0.011 C 
HETATM   31  C   UNK N   1      39.345  10.539   7.267  0.00  0.00     0.011 C 
ENDBRANCH  28  29
BRANCH  28  32
HETATM   32  C   UNK N   1      38.488  10.763  10.137  0.00  0.00     0.190 C 
BRANCH  32  33
HETATM   33  O   UNK N   1      37.876  11.094  11.348  0.00  0.00    -0.399 OA
HETATM   34  H   UNK N   1      37.290  11.237  12.107  0.00  0.00     0.209 HD
ENDBRANCH  32  33
ENDBRANCH  28  32
ENDBRANCH  13  28
BRANCH   3  35
HETATM   35  C   UNK N   1      34.208  16.248   6.632  0.00  0.00     0.084 C 
HETATM   36  C   UNK N   1      33.150  15.206   6.293  0.00  0.00     0.032 C 
HETATM   37  C   UNK N   1      33.709  17.608   6.178  0.00  0.00     0.032 C 
ENDBRANCH   3  35
TORSDOF 9
ENDMDL
MODEL 8
REMARK VINA RESULT:      -6.8     11.030     15.226
REMARK  9 active torsions:
REMARK  status: ('A' for Active; 'I' for Inactive)
REMARK    1  A    between atoms: C_3  and  N_4 
REMARK       I    between atoms: C_8  and  N_25 
REMARK    2  A    between atoms: C_9  and  N_14 
REMARK    3  A    between atoms: N_14  and  C_15 
REMARK    4  A    between atoms: C_18  and  C_22 
REMARK    5  A    between atoms: C_22  and  O_23 
REMARK    6  A    between atoms: C_26  and  N_25 
REMARK    7  A    between atoms: C_26  and  C_27 
REMARK    8  A    between atoms: C_26  and  C_30 
REMARK    9  A    between atoms: C_30  and  O_31 
ROOT
HETATM    1  N   UNK N   1      34.273  12.766  10.318  0.00  0.00    -0.174 N 
ATOM      2  HN  UNK N   1      34.479  11.861  10.738  1.00  0.00     0.186 HD
HETATM    3  N   UNK N   1      33.615  16.371   8.675  0.00  0.00    -0.323 N 
HETATM    4  C   UNK N   1      33.718  15.124   9.151  0.00  0.00     0.155 A 
HETATM    5  N   UNK N   1      32.987  14.041   8.788  0.00  0.00    -0.174 N 
ATOM      6  HN  UNK N   1      32.240  14.119   8.098  1.00  0.00     0.186 HD
HETATM    7  C   UNK N   1      33.281  12.843   9.374  0.00  0.00     0.681 A 
HETATM    8  C   UNK N   1      34.998  13.851  10.718  0.00  0.00     0.152 A 
HETATM    9  C   UNK N   1      34.698  15.071  10.089  0.00  0.00     0.123 A 
HETATM   10  N   UNK N   1      35.225  16.300  10.235  0.00  0.00    -0.346 N 
ATOM     11  HN  UNK N   1      35.971  16.583  10.871  1.00  0.00     0.167 HD
HETATM   12  C   UNK N   1      34.550  17.084   9.353  0.00  0.00     0.185 A 
HETATM   13  N   UNK N   1      32.552  11.680   9.007  0.00  0.00    -0.219 N 
HETATM   14  H   UNK N   1      31.616  11.785   8.721  0.00  0.00     0.178 HD
ENDROOT
BRANCH   8  15
HETATM   15  N   UNK N   1      35.955  13.653  11.764  0.00  0.00    -0.340 N 
HETATM   16  H   UNK N   1      36.888  13.757  11.468  0.00  0.00     0.167 HD
BRANCH  15  17
HETATM   17  C   UNK N   1      35.827  13.336  13.144  0.00  0.00     0.035 A 
HETATM   18  C   UNK N   1      36.522  14.006  14.147  0.00  0.00     0.030 A 
HETATM   19  C   UNK N   1      36.331  13.681  15.488  0.00  0.00     0.022 A 
HETATM   20  C   UNK N   1      35.437  12.668  15.862  0.00  0.00     0.059 A 
HETATM   21  C   UNK N   1      34.745  11.965  14.844  0.00  0.00     0.053 A 
HETATM   22 Cl   UNK N   1      33.601  10.669  15.172  0.00  0.00    -0.083 Cl
HETATM   23  C   UNK N   1      34.952  12.308  13.504  0.00  0.00     0.054 A 
BRANCH  20  24
HETATM   24  C   UNK N   1      35.262  12.395  17.315  0.00  0.00     0.177 C 
HETATM   25  O   UNK N   1      35.421  11.261  17.742  0.00  0.00    -0.646 OA
BRANCH  24  26
HETATM   26  O   UNK N   1      34.943  13.375  18.180  0.00  0.00    -0.773 OA
HETATM   27  H   UNK N   1      34.232  13.277  18.782  0.00  0.00     0.167 HD
ENDBRANCH  24  26
ENDBRANCH  20  24
ENDBRANCH  15  17
ENDBRANCH   8  15
BRANCH  13  28
HETATM   28  C   UNK N   1      33.125  10.342   9.031  0.00  0.00     0.126 C 
BRANCH  28  29
HETATM   29  C   UNK N   1      33.799   9.996   7.688  0.00  0.00     0.003 C 
HETATM   30  C   UNK N   1      33.225  10.749   6.499  0.00  0.00     0.011 C 
HETATM   31  C   UNK N   1      35.301  10.221   7.741  0.00  0.00     0.011 C 
ENDBRANCH  28  29
BRANCH  28  32
HETATM   32  C   UNK N   1      32.117   9.260   9.441  0.00  0.00     0.190 C 
BRANCH  32  33
HETATM   33  O   UNK N   1      30.945   9.329   8.685  0.00  0.00    -0.399 OA
HETATM   34  H   UNK N   1      30.140   9.572   8.202  0.00  0.00     0.209 HD
ENDBRANCH  32  33
ENDBRANCH  28  32
ENDBRANCH  13  28
BRANCH   3  35
HETATM   35  C   UNK N   1      32.692  16.859   7.645  0.00  0.00     0.084 C 
HETATM   36  C   UNK N   1      31.652  17.812   8.220  0.00  0.00     0.032 C 
HETATM   37  C   UNK N   1      33.453  17.580   6.547  0.00  0.00     0.032 C 
ENDBRANCH   3  35
TORSDOF 9
ENDMDL
MODEL 9
REMARK VINA RESULT:      -6.7      5.550      9.491
REMARK  9 active torsions:
REMARK  status: ('A' for Active; 'I' for Inactive)
REMARK    1  A    between atoms: C_3  and  N_4 
REMARK       I    between atoms: C_8  and  N_25 
REMARK    2  A    between atoms: C_9  and  N_14 
REMARK    3  A    between atoms: N_14  and  C_15 
REMARK    4  A    between atoms: C_18  and  C_22 
REMARK    5  A    between atoms: C_22  and  O_23 
REMARK    6  A    between atoms: C_26  and  N_25 
REMARK    7  A    between atoms: C_26  and  C_27 
REMARK    8  A    between atoms: C_26  and  C_30 
REMARK    9  A    between atoms: C_30  and  O_31 
ROOT
HETATM    1  N   UNK N   1      28.619  17.029   3.436  0.00  0.00    -0.174 N 
ATOM      2  HN  UNK N   1      28.645  18.000   3.745  1.00  0.00     0.186 HD
HETATM    3  N   UNK N   1      28.639  13.174   2.310  0.00  0.00    -0.323 N 
HETATM    4  C   UNK N   1      28.492  14.460   2.654  0.00  0.00     0.155 A 
HETATM    5  N   UNK N   1      27.335  15.162   2.738  0.00  0.00    -0.174 N 
ATOM      6  HN  UNK N   1      26.441  14.732   2.502  1.00  0.00     0.186 HD
HETATM    7  C   UNK N   1      27.403  16.463   3.148  0.00  0.00     0.681 A 
HETATM    8  C   UNK N   1      29.796  16.347   3.327  0.00  0.00     0.152 A 
HETATM    9  C   UNK N   1      29.706  15.003   2.926  0.00  0.00     0.123 A 
HETATM   10  N   UNK N   1      30.652  14.065   2.740  0.00  0.00    -0.346 N 
ATOM     11  HN  UNK N   1      31.660  14.170   2.854  1.00  0.00     0.167 HD
HETATM   12  C   UNK N   1      29.975  12.946   2.368  0.00  0.00     0.185 A 
HETATM   13  N   UNK N   1      26.212  17.229   3.270  0.00  0.00    -0.219 N 
HETATM   14  H   UNK N   1      25.459  17.020   2.672  0.00  0.00     0.178 HD
ENDROOT
BRANCH   8  15
HETATM   15  N   UNK N   1      31.003  17.072   3.585  0.00  0.00    -0.340 N 
HETATM   16  H   UNK N   1      31.366  17.526   2.791  0.00  0.00     0.167 HD
BRANCH  15  17
HETATM   17  C   UNK N   1      31.782  17.266   4.759  0.00  0.00     0.035 A 
HETATM   18  C   UNK N   1      33.168  17.386   4.741  0.00  0.00     0.030 A 
HETATM   19  C   UNK N   1      33.880  17.615   5.916  0.00  0.00     0.022 A 
HETATM   20  C   UNK N   1      33.220  17.725   7.147  0.00  0.00     0.059 A 
HETATM   21  C   UNK N   1      31.810  17.578   7.176  0.00  0.00     0.053 A 
HETATM   22 Cl   UNK N   1      30.857  17.687   8.651  0.00  0.00    -0.083 Cl
HETATM   23  C   UNK N   1      31.115  17.350   5.984  0.00  0.00     0.054 A 
BRANCH  20  24
HETATM   24  C   UNK N   1      34.043  17.998   8.358  0.00  0.00     0.177 C 
HETATM   25  O   UNK N   1      34.852  18.913   8.347  0.00  0.00    -0.646 OA
BRANCH  24  26
HETATM   26  O   UNK N   1      33.906  17.265   9.478  0.00  0.00    -0.773 OA
HETATM   27  H   UNK N   1      34.310  17.529  10.282  0.00  0.00     0.167 HD
ENDBRANCH  24  26
ENDBRANCH  20  24
ENDBRANCH  15  17
ENDBRANCH   8  15
BRANCH  13  28
HETATM   28  C   UNK N   1      26.054  18.305   4.237  0.00  0.00     0.126 C 
BRANCH  28  29
HETATM   29  C   UNK N   1      26.664  19.621   3.716  0.00  0.00     0.003 C 
HETATM   30  C   UNK N   1      25.699  20.469   2.904  0.00  0.00     0.011 C 
HETATM   31  C   UNK N   1      27.232  20.462   4.847  0.00  0.00     0.011 C 
ENDBRANCH  28  29
BRANCH  28  32
HETATM   32  C   UNK N   1      26.599  17.952   5.628  0.00  0.00     0.190 C 
BRANCH  32  33
HETATM   33  O   UNK N   1      25.918  16.873   6.194  0.00  0.00    -0.399 OA
HETATM   34  H   UNK N   1      25.366  16.104   6.404  0.00  0.00     0.209 HD
ENDBRANCH  32  33
ENDBRANCH  28  32
ENDBRANCH  13  28
BRANCH   3  35
HETATM   35  C   UNK N   1      27.583  12.222   1.949  0.00  0.00     0.084 C 
HETATM   36  C   UNK N   1      28.075  11.181   0.951  0.00  0.00     0.032 C 
HETATM   37  C   UNK N   1      27.072  11.502   3.184  0.00  0.00     0.032 C 
ENDBRANCH   3  35
TORSDOF 9
ENDMDL
