MODEL 1
REMARK VINA RESULT:      -5.8      0.000      0.000
REMARK  2 active torsions:
REMARK  status: ('A' for Active; 'I' for Inactive)
REMARK    1  A    between atoms: C_3  and  C_12 
REMARK    2  A    between atoms: C_12  and  O_14 
ROOT
HETATM    1  N   UNK N   1      30.799  17.606   8.898  0.00  0.00    -0.350 N 
ATOM      2  HN  UNK N   1      30.996  17.830   9.873  1.00  0.00     0.166 HD
HETATM    3  C   UNK N   1      29.512  17.375   8.512  0.00  0.00     0.107 A 
HETATM    4  C   UNK N   1      29.226  17.066   7.176  0.00  0.00     0.037 A 
HETATM    5  C   UNK N   1      30.260  16.996   6.246  0.00  0.00     0.016 A 
HETATM    6  C   UNK N   1      32.621  17.169   5.745  0.00  0.00     0.013 A 
HETATM    7  C   UNK N   1      33.930  17.411   6.174  0.00  0.00     0.001 A 
HETATM    8  C   UNK N   1      34.185  17.718   7.516  0.00  0.00     0.002 A 
HETATM    9  C   UNK N   1      33.134  17.784   8.435  0.00  0.00     0.030 A 
HETATM   10  C   UNK N   1      31.569  17.234   6.658  0.00  0.00    -0.009 A 
HETATM   11  C   UNK N   1      31.825  17.543   8.011  0.00  0.00     0.043 A 
ENDROOT
BRANCH   3  12
HETATM   12  C   UNK N   1      28.429  17.451   9.498  0.00  0.00     0.193 C 
HETATM   13  O   UNK N   1      28.427  16.709  10.465  0.00  0.00    -0.645 OA
BRANCH  12  14
HETATM   14  O   UNK N   1      27.431  18.343   9.338  0.00  0.00    -0.772 OA
HETATM   15  H   UNK N   1      27.200  18.639   8.480  0.00  0.00     0.167 HD
ENDBRANCH  12  14
ENDBRANCH   3  12
TORSDOF 2
ENDMDL
MODEL 2
REMARK VINA RESULT:      -5.7      3.014      4.605
REMARK  2 active torsions:
REMARK  status: ('A' for Active; 'I' for Inactive)
REMARK    1  A    between atoms: C_3  and  C_12 
REMARK    2  A    between atoms: C_12  and  O_14 
ROOT
HETATM    1  N   UNK N   1      32.098  18.020   8.957  0.00  0.00    -0.350 N 
ATOM      2  HN  UNK N   1      32.293  18.370   9.896  1.00  0.00     0.166 HD
HETATM    3  C   UNK N   1      33.138  17.731   8.124  0.00  0.00     0.107 A 
HETATM    4  C   UNK N   1      32.888  17.249   6.833  0.00  0.00     0.037 A 
HETATM    5  C   UNK N   1      31.575  17.068   6.405  0.00  0.00     0.016 A 
HETATM    6  C   UNK N   1      29.202  17.194   6.864  0.00  0.00     0.013 A 
HETATM    7  C   UNK N   1      28.159  17.501   7.744  0.00  0.00     0.001 A 
HETATM    8  C   UNK N   1      28.441  17.980   9.029  0.00  0.00     0.002 A 
HETATM    9  C   UNK N   1      29.765  18.156   9.441  0.00  0.00     0.030 A 
HETATM   10  C   UNK N   1      30.525  17.368   7.270  0.00  0.00    -0.009 A 
HETATM   11  C   UNK N   1      30.810  17.852   8.565  0.00  0.00     0.043 A 
ENDROOT
BRANCH   3  12
HETATM   12  C   UNK N   1      34.518  17.925   8.582  0.00  0.00     0.193 C 
HETATM   13  O   UNK N   1      35.105  17.024   9.156  0.00  0.00    -0.645 OA
BRANCH  12  14
HETATM   14  O   UNK N   1      35.142  19.100   8.369  0.00  0.00    -0.772 OA
HETATM   15  H   UNK N   1      34.774  19.726   7.778  0.00  0.00     0.167 HD
ENDBRANCH  12  14
ENDBRANCH   3  12
TORSDOF 2
ENDMDL
MODEL 3
REMARK VINA RESULT:      -5.7      3.208      4.500
REMARK  2 active torsions:
REMARK  status: ('A' for Active; 'I' for Inactive)
REMARK    1  A    between atoms: C_3  and  C_12 
REMARK    2  A    between atoms: C_12  and  O_14 
ROOT
HETATM    1  N   UNK N   1      33.710  17.688   6.317  0.00  0.00    -0.350 N 
ATOM      2  HN  UNK N   1      34.665  17.870   6.007  1.00  0.00     0.166 HD
HETATM    3  C   UNK N   1      33.411  17.774   7.644  0.00  0.00     0.107 A 
HETATM    4  C   UNK N   1      32.105  17.528   8.086  0.00  0.00     0.037 A 
HETATM    5  C   UNK N   1      31.115  17.195   7.164  0.00  0.00     0.016 A 
HETATM    6  C   UNK N   1      30.464  16.780   4.870  0.00  0.00     0.013 A 
HETATM    7  C   UNK N   1      30.805  16.700   3.516  0.00  0.00     0.001 A 
HETATM    8  C   UNK N   1      32.119  16.952   3.105  0.00  0.00     0.002 A 
HETATM    9  C   UNK N   1      33.099  17.284   4.045  0.00  0.00     0.030 A 
HETATM   10  C   UNK N   1      31.438  17.111   5.811  0.00  0.00    -0.009 A 
HETATM   11  C   UNK N   1      32.764  17.366   5.399  0.00  0.00     0.043 A 
ENDROOT
BRANCH   3  12
HETATM   12  C   UNK N   1      34.459  18.126   8.609  0.00  0.00     0.193 C 
HETATM   13  O   UNK N   1      35.210  19.060   8.384  0.00  0.00    -0.645 OA
BRANCH  12  14
HETATM   14  O   UNK N   1      34.595  17.417   9.747  0.00  0.00    -0.772 OA
HETATM   15  H   UNK N   1      34.578  17.853  10.575  0.00  0.00     0.167 HD
ENDBRANCH  12  14
ENDBRANCH   3  12
TORSDOF 2
ENDMDL
MODEL 4
REMARK VINA RESULT:      -5.7     11.827     12.951
REMARK  2 active torsions:
REMARK  status: ('A' for Active; 'I' for Inactive)
REMARK    1  A    between atoms: C_3  and  C_12 
REMARK    2  A    between atoms: C_12  and  O_14 
ROOT
HETATM    1  N   UNK N   1      20.266  18.260   0.833  0.00  0.00    -0.350 N 
ATOM      2  HN  UNK N   1      20.158  18.488  -0.155  1.00  0.00     0.166 HD
HETATM    3  C   UNK N   1      20.655  19.233   1.705  0.00  0.00     0.107 A 
HETATM    4  C   UNK N   1      20.808  18.935   3.065  0.00  0.00     0.037 A 
HETATM    5  C   UNK N   1      20.560  17.643   3.522  0.00  0.00     0.016 A 
HETATM    6  C   UNK N   1      19.910  15.360   3.051  0.00  0.00     0.013 A 
HETATM    7  C   UNK N   1      19.512  14.386   2.130  0.00  0.00     0.001 A 
HETATM    8  C   UNK N   1      19.368  14.713   0.777  0.00  0.00     0.002 A 
HETATM    9  C   UNK N   1      19.621  16.016   0.337  0.00  0.00     0.030 A 
HETATM   10  C   UNK N   1      20.163  16.661   2.617  0.00  0.00    -0.009 A 
HETATM   11  C   UNK N   1      20.019  16.993   1.253  0.00  0.00     0.043 A 
ENDROOT
BRANCH   3  12
HETATM   12  C   UNK N   1      20.914  20.591   1.216  0.00  0.00     0.193 C 
HETATM   13  O   UNK N   1      21.043  20.799   0.022  0.00  0.00    -0.645 OA
BRANCH  12  14
HETATM   14  O   UNK N   1      21.010  21.616   2.086  0.00  0.00    -0.772 OA
HETATM   15  H   UNK N   1      21.513  21.520   2.870  0.00  0.00     0.167 HD
ENDBRANCH  12  14
ENDBRANCH   3  12
TORSDOF 2
ENDMDL
MODEL 5
REMARK VINA RESULT:      -5.5      3.054      4.615
REMARK  2 active torsions:
REMARK  status: ('A' for Active; 'I' for Inactive)
REMARK    1  A    between atoms: C_3  and  C_12 
REMARK    2  A    between atoms: C_12  and  O_14 
ROOT
HETATM    1  N   UNK N   1      27.823  19.188   7.860  0.00  0.00    -0.350 N 
ATOM      2  HN  UNK N   1      27.377  19.751   8.584  1.00  0.00     0.166 HD
HETATM    3  C   UNK N   1      28.641  18.160   8.223  0.00  0.00     0.107 A 
HETATM    4  C   UNK N   1      29.261  17.377   7.241  0.00  0.00     0.037 A 
HETATM    5  C   UNK N   1      29.037  17.653   5.894  0.00  0.00     0.016 A 
HETATM    6  C   UNK N   1      27.958  19.003   4.199  0.00  0.00     0.013 A 
HETATM    7  C   UNK N   1      27.113  20.064   3.862  0.00  0.00     0.001 A 
HETATM    8  C   UNK N   1      26.508  20.829   4.866  0.00  0.00     0.002 A 
HETATM    9  C   UNK N   1      26.745  20.537   6.212  0.00  0.00     0.030 A 
HETATM   10  C   UNK N   1      28.197  18.708   5.541  0.00  0.00    -0.009 A 
HETATM   11  C   UNK N   1      27.588  19.477   6.555  0.00  0.00     0.043 A 
ENDROOT
BRANCH   3  12
HETATM   12  C   UNK N   1      28.872  17.875   9.644  0.00  0.00     0.193 C 
HETATM   13  O   UNK N   1      28.306  16.938  10.180  0.00  0.00    -0.645 OA
BRANCH  12  14
HETATM   14  O   UNK N   1      29.710  18.649  10.361  0.00  0.00    -0.772 OA
HETATM   15  H   UNK N   1      29.604  19.580  10.361  0.00  0.00     0.167 HD
ENDBRANCH  12  14
ENDBRANCH   3  12
TORSDOF 2
ENDMDL
MODEL 6
REMARK VINA RESULT:      -5.5     10.312     11.593
REMARK  2 active torsions:
REMARK  status: ('A' for Active; 'I' for Inactive)
REMARK    1  A    between atoms: C_3  and  C_12 
REMARK    2  A    between atoms: C_12  and  O_14 
ROOT
HETATM    1  N   UNK N   1      35.420  13.521  16.057  0.00  0.00    -0.350 N 
ATOM      2  HN  UNK N   1      35.237  14.524  16.087  1.00  0.00     0.166 HD
HETATM    3  C   UNK N   1      35.670  12.924  14.857  0.00  0.00     0.107 A 
HETATM    4  C   UNK N   1      35.924  11.548  14.799  0.00  0.00     0.037 A 
HETATM    5  C   UNK N   1      35.919  10.793  15.970  0.00  0.00     0.016 A 
HETATM    6  C   UNK N   1      35.652  10.686  18.373  0.00  0.00     0.013 A 
HETATM    7  C   UNK N   1      35.392  11.329  19.586  0.00  0.00     0.001 A 
HETATM    8  C   UNK N   1      35.142  12.707  19.613  0.00  0.00     0.002 A 
HETATM    9  C   UNK N   1      35.150  13.447  18.428  0.00  0.00     0.030 A 
HETATM   10  C   UNK N   1      35.662  11.420  17.187  0.00  0.00    -0.009 A 
HETATM   11  C   UNK N   1      35.410  12.808  17.212  0.00  0.00     0.043 A 
ENDROOT
BRANCH   3  12
HETATM   12  C   UNK N   1      35.673  13.725  13.629  0.00  0.00     0.193 C 
HETATM   13  O   UNK N   1      34.725  13.677  12.864  0.00  0.00    -0.645 OA
BRANCH  12  14
HETATM   14  O   UNK N   1      36.725  14.517  13.340  0.00  0.00    -0.772 OA
HETATM   15  H   UNK N   1      37.577  14.300  13.663  0.00  0.00     0.167 HD
ENDBRANCH  12  14
ENDBRANCH   3  12
TORSDOF 2
ENDMDL
MODEL 7
REMARK VINA RESULT:      -5.4      2.881      4.469
REMARK  2 active torsions:
REMARK  status: ('A' for Active; 'I' for Inactive)
REMARK    1  A    between atoms: C_3  and  C_12 
REMARK    2  A    between atoms: C_12  and  O_14 
ROOT
HETATM    1  N   UNK N   1      32.498  16.974   8.891  0.00  0.00    -0.350 N 
ATOM      2  HN  UNK N   1      32.063  16.882   9.809  1.00  0.00     0.166 HD
HETATM    3  C   UNK N   1      33.858  16.977   8.794  0.00  0.00     0.107 A 
HETATM    4  C   UNK N   1      34.471  17.102   7.541  0.00  0.00     0.037 A 
HETATM    5  C   UNK N   1      33.686  17.222   6.396  0.00  0.00     0.016 A 
HETATM    6  C   UNK N   1      31.492  17.335   5.382  0.00  0.00     0.013 A 
HETATM    7  C   UNK N   1      30.100  17.328   5.517  0.00  0.00     0.001 A 
HETATM    8  C   UNK N   1      29.516  17.202   6.783  0.00  0.00     0.002 A 
HETATM    9  C   UNK N   1      30.320  17.082   7.920  0.00  0.00     0.030 A 
HETATM   10  C   UNK N   1      32.298  17.216   6.514  0.00  0.00    -0.009 A 
HETATM   11  C   UNK N   1      31.711  17.089   7.791  0.00  0.00     0.043 A 
ENDROOT
BRANCH   3  12
HETATM   12  C   UNK N   1      34.678  16.851  10.004  0.00  0.00     0.193 C 
HETATM   13  O   UNK N   1      35.632  17.589  10.178  0.00  0.00    -0.645 OA
BRANCH  12  14
HETATM   14  O   UNK N   1      34.378  15.917  10.929  0.00  0.00    -0.772 OA
HETATM   15  H   UNK N   1      33.602  16.002  11.446  0.00  0.00     0.167 HD
ENDBRANCH  12  14
ENDBRANCH   3  12
TORSDOF 2
ENDMDL
MODEL 8
REMARK VINA RESULT:      -5.4      1.157      2.216
REMARK  2 active torsions:
REMARK  status: ('A' for Active; 'I' for Inactive)
REMARK    1  A    between atoms: C_3  and  C_12 
REMARK    2  A    between atoms: C_12  and  O_14 
ROOT
HETATM    1  N   UNK N   1      29.548  17.599   6.916  0.00  0.00    -0.350 N 
ATOM      2  HN  UNK N   1      28.680  17.569   6.382  1.00  0.00     0.166 HD
HETATM    3  C   UNK N   1      29.496  17.762   8.268  0.00  0.00     0.107 A 
HETATM    4  C   UNK N   1      30.679  17.805   9.016  0.00  0.00     0.037 A 
HETATM    5  C   UNK N   1      31.908  17.681   8.372  0.00  0.00     0.016 A 
HETATM    6  C   UNK N   1      33.162  17.389   6.322  0.00  0.00     0.013 A 
HETATM    7  C   UNK N   1      33.180  17.224   4.934  0.00  0.00     0.001 A 
HETATM    8  C   UNK N   1      31.980  17.184   4.214  0.00  0.00     0.002 A 
HETATM    9  C   UNK N   1      30.756  17.310   4.877  0.00  0.00     0.030 A 
HETATM   10  C   UNK N   1      31.943  17.515   6.989  0.00  0.00    -0.009 A 
HETATM   11  C   UNK N   1      30.733  17.476   6.265  0.00  0.00     0.043 A 
ENDROOT
BRANCH   3  12
HETATM   12  C   UNK N   1      28.198  17.891   8.939  0.00  0.00     0.193 C 
HETATM   13  O   UNK N   1      27.810  17.019   9.698  0.00  0.00    -0.645 OA
BRANCH  12  14
HETATM   14  O   UNK N   1      27.428  18.976   8.720  0.00  0.00    -0.772 OA
HETATM   15  H   UNK N   1      26.550  18.873   8.413  0.00  0.00     0.167 HD
ENDBRANCH  12  14
ENDBRANCH   3  12
TORSDOF 2
ENDMDL
MODEL 9
REMARK VINA RESULT:      -5.4     13.102     15.096
REMARK  2 active torsions:
REMARK  status: ('A' for Active; 'I' for Inactive)
REMARK    1  A    between atoms: C_3  and  C_12 
REMARK    2  A    between atoms: C_12  and  O_14 
ROOT
HETATM    1  N   UNK N   1      43.089  23.444   2.136  0.00  0.00    -0.350 N 
ATOM      2  HN  UNK N   1      42.752  24.216   1.560  1.00  0.00     0.166 HD
HETATM    3  C   UNK N   1      44.368  23.473   2.608  0.00  0.00     0.107 A 
HETATM    4  C   UNK N   1      44.846  22.421   3.400  0.00  0.00     0.037 A 
HETATM    5  C   UNK N   1      44.010  21.348   3.702  0.00  0.00     0.016 A 
HETATM    6  C   UNK N   1      41.852  20.272   3.500  0.00  0.00     0.013 A 
HETATM    7  C   UNK N   1      40.546  20.275   3.000  0.00  0.00     0.001 A 
HETATM    8  C   UNK N   1      40.097  21.340   2.211  0.00  0.00     0.002 A 
HETATM    9  C   UNK N   1      40.950  22.408   1.918  0.00  0.00     0.030 A 
HETATM   10  C   UNK N   1      42.707  21.336   3.211  0.00  0.00    -0.009 A 
HETATM   11  C   UNK N   1      42.255  22.411   2.416  0.00  0.00     0.043 A 
ENDROOT
BRANCH   3  12
HETATM   12  C   UNK N   1      45.241  24.606   2.285  0.00  0.00     0.193 C 
HETATM   13  O   UNK N   1      44.828  25.520   1.592  0.00  0.00    -0.645 OA
BRANCH  12  14
HETATM   14  O   UNK N   1      46.505  24.641   2.754  0.00  0.00    -0.772 OA
HETATM   15  H   UNK N   1      46.672  24.484   3.661  0.00  0.00     0.167 HD
ENDBRANCH  12  14
ENDBRANCH   3  12
TORSDOF 2
ENDMDL
