MODEL 1
REMARK VINA RESULT:      -6.4      0.000      0.000
REMARK  5 active torsions:
REMARK  status: ('A' for Active; 'I' for Inactive)
REMARK    1  A    between atoms: C_2  and  C_3 
REMARK    2  A    between atoms: C_2  and  O_18 
REMARK    3  A    between atoms: C_8  and  C_13 
REMARK    4  A    between atoms: C_9  and  O_11 
REMARK    5  A    between atoms: C_13  and  O_14 
ROOT
HETATM    1  C   UNK N   1      33.000  17.761   8.164  0.00  0.00     0.107 A 
HETATM    2  N   UNK N   1      31.906  17.902   8.956  0.00  0.00    -0.351 N 
ATOM      3  HN  UNK N   1      32.033  18.196   9.925  1.00  0.00     0.166 HD
HETATM    4  C   UNK N   1      32.845  17.384   6.829  0.00  0.00     0.047 A 
HETATM    5  C   UNK N   1      30.644  17.666   8.501  0.00  0.00     0.050 A 
HETATM    6  C   UNK N   1      31.566  17.155   6.303  0.00  0.00    -0.015 A 
HETATM    7  C   UNK N   1      29.480  17.875   9.438  0.00  0.00     0.172 C 
HETATM    8  C   UNK N   1      30.447  17.290   7.157  0.00  0.00    -0.002 A 
HETATM    9  C   UNK N   1      28.114  17.411   8.914  0.00  0.00     0.065 C 
HETATM   10  C   UNK N   1      29.079  17.093   6.642  0.00  0.00     0.010 C 
HETATM   11  C   UNK N   1      28.010  17.166   7.435  0.00  0.00    -0.023 C 
ENDROOT
BRANCH   1  12
HETATM   12  C   UNK N   1      34.342  18.035   8.709  0.00  0.00     0.193 C 
HETATM   13  O   UNK N   1      34.834  17.296   9.547  0.00  0.00    -0.645 OA
BRANCH  12  14
HETATM   14  O   UNK N   1      35.040  19.101   8.271  0.00  0.00    -0.772 OA
HETATM   15  H   UNK N   1      35.804  19.383   8.732  0.00  0.00     0.167 HD
ENDBRANCH  12  14
ENDBRANCH   1  12
BRANCH   6  16
HETATM   16  C   UNK N   1      31.393  16.819   4.832  0.00  0.00     0.148 C 
HETATM   17  C   UNK N   1      32.344  17.582   3.920  0.00  0.00     0.044 C 
BRANCH  16  18
HETATM   18  O   UNK N   1      31.582  15.452   4.623  0.00  0.00    -0.391 OA
HETATM   19  H   UNK N   1      32.162  14.735   4.925  0.00  0.00     0.210 HD
ENDBRANCH  16  18
ENDBRANCH   6  16
BRANCH   7  20
HETATM   20  O   UNK N   1      29.724  17.206  10.639  0.00  0.00    -0.389 OA
HETATM   21  H   UNK N   1      30.451  16.811  11.146  0.00  0.00     0.210 HD
ENDBRANCH   7  20
TORSDOF 5
ENDMDL
MODEL 2
REMARK VINA RESULT:      -6.3      7.475      9.913
REMARK  5 active torsions:
REMARK  status: ('A' for Active; 'I' for Inactive)
REMARK    1  A    between atoms: C_2  and  C_3 
REMARK    2  A    between atoms: C_2  and  O_18 
REMARK    3  A    between atoms: C_8  and  C_13 
REMARK    4  A    between atoms: C_9  and  O_11 
REMARK    5  A    between atoms: C_13  and  O_14 
ROOT
HETATM    1  C   UNK N   1      22.480  18.112   5.343  0.00  0.00     0.107 A 
HETATM    2  N   UNK N   1      23.830  18.188   5.458  0.00  0.00    -0.351 N 
ATOM      3  HN  UNK N   1      24.296  17.641   6.182  1.00  0.00     0.166 HD
HETATM    4  C   UNK N   1      21.827  18.835   4.343  0.00  0.00     0.047 A 
HETATM    5  C   UNK N   1      24.586  18.971   4.638  0.00  0.00     0.050 A 
HETATM    6  C   UNK N   1      22.561  19.634   3.456  0.00  0.00    -0.015 A 
HETATM    7  C   UNK N   1      26.085  18.976   4.815  0.00  0.00     0.172 C 
HETATM    8  C   UNK N   1      23.964  19.710   3.612  0.00  0.00    -0.002 A 
HETATM    9  C   UNK N   1      26.847  20.018   3.984  0.00  0.00     0.065 C 
HETATM   10  C   UNK N   1      24.783  20.511   2.683  0.00  0.00     0.010 C 
HETATM   11  C   UNK N   1      26.102  20.639   2.836  0.00  0.00    -0.023 C 
ENDROOT
BRANCH   1  12
HETATM   12  C   UNK N   1      21.712  17.245   6.255  0.00  0.00     0.193 C 
HETATM   13  O   UNK N   1      21.719  16.033   6.112  0.00  0.00    -0.645 OA
BRANCH  12  14
HETATM   14  O   UNK N   1      21.008  17.791   7.267  0.00  0.00    -0.772 OA
HETATM   15  H   UNK N   1      20.078  17.683   7.302  0.00  0.00     0.167 HD
ENDBRANCH  12  14
ENDBRANCH   1  12
BRANCH   6  16
HETATM   16  C   UNK N   1      21.859  20.360   2.321  0.00  0.00     0.148 C 
HETATM   17  C   UNK N   1      20.585  19.669   1.855  0.00  0.00     0.044 C 
BRANCH  16  18
HETATM   18  O   UNK N   1      21.539  21.663   2.705  0.00  0.00    -0.391 OA
HETATM   19  H   UNK N   1      20.791  22.158   3.075  0.00  0.00     0.210 HD
ENDBRANCH  16  18
ENDBRANCH   6  16
BRANCH   7  20
HETATM   20  O   UNK N   1      26.395  19.194   6.158  0.00  0.00    -0.389 OA
HETATM   21  H   UNK N   1      27.121  19.076   6.791  0.00  0.00     0.210 HD
ENDBRANCH   7  20
TORSDOF 5
ENDMDL
MODEL 3
REMARK VINA RESULT:      -6.2     10.538     12.994
REMARK  5 active torsions:
REMARK  status: ('A' for Active; 'I' for Inactive)
REMARK    1  A    between atoms: C_2  and  C_3 
REMARK    2  A    between atoms: C_2  and  O_18 
REMARK    3  A    between atoms: C_8  and  C_13 
REMARK    4  A    between atoms: C_9  and  O_11 
REMARK    5  A    between atoms: C_13  and  O_14 
ROOT
HETATM    1  C   UNK N   1      20.693  19.089   1.657  0.00  0.00     0.107 A 
HETATM    2  N   UNK N   1      20.125  18.168   0.837  0.00  0.00    -0.351 N 
ATOM      3  HN  UNK N   1      19.821  18.457  -0.093  1.00  0.00     0.166 HD
HETATM    4  C   UNK N   1      21.138  18.707   2.925  0.00  0.00     0.047 A 
HETATM    5  C   UNK N   1      19.949  16.871   1.213  0.00  0.00     0.050 A 
HETATM    6  C   UNK N   1      21.005  17.379   3.350  0.00  0.00    -0.015 A 
HETATM    7  C   UNK N   1      19.337  15.905   0.229  0.00  0.00     0.172 C 
HETATM    8  C   UNK N   1      20.392  16.446   2.482  0.00  0.00    -0.002 A 
HETATM    9  C   UNK N   1      18.999  14.514   0.786  0.00  0.00     0.065 C 
HETATM   10  C   UNK N   1      20.259  15.030   2.870  0.00  0.00     0.010 C 
HETATM   11  C   UNK N   1      19.643  14.140   2.092  0.00  0.00    -0.023 C 
ENDROOT
BRANCH   1  12
HETATM   12  C   UNK N   1      20.863  20.479   1.196  0.00  0.00     0.193 C 
HETATM   13  O   UNK N   1      21.250  21.344   1.964  0.00  0.00    -0.645 OA
BRANCH  12  14
HETATM   14  O   UNK N   1      20.602  20.797  -0.087  0.00  0.00    -0.772 OA
HETATM   15  H   UNK N   1      20.465  21.691  -0.330  0.00  0.00     0.167 HD
ENDBRANCH  12  14
ENDBRANCH   1  12
BRANCH   6  16
HETATM   16  C   UNK N   1      21.558  16.948   4.697  0.00  0.00     0.148 C 
HETATM   17  C   UNK N   1      22.821  17.696   5.102  0.00  0.00     0.044 C 
BRANCH  16  18
HETATM   18  O   UNK N   1      20.598  17.131   5.694  0.00  0.00    -0.391 OA
HETATM   19  H   UNK N   1      20.299  17.819   6.309  0.00  0.00     0.210 HD
ENDBRANCH  16  18
ENDBRANCH   6  16
BRANCH   7  20
HETATM   20  O   UNK N   1      18.161  16.450  -0.290  0.00  0.00    -0.389 OA
HETATM   21  H   UNK N   1      17.204  16.466  -0.129  0.00  0.00     0.210 HD
ENDBRANCH   7  20
TORSDOF 5
ENDMDL
MODEL 4
REMARK VINA RESULT:      -5.8      1.796      4.888
REMARK  5 active torsions:
REMARK  status: ('A' for Active; 'I' for Inactive)
REMARK    1  A    between atoms: C_2  and  C_3 
REMARK    2  A    between atoms: C_2  and  O_18 
REMARK    3  A    between atoms: C_8  and  C_13 
REMARK    4  A    between atoms: C_9  and  O_11 
REMARK    5  A    between atoms: C_13  and  O_14 
ROOT
HETATM    1  C   UNK N   1      29.381  17.558   7.990  0.00  0.00     0.107 A 
HETATM    2  N   UNK N   1      29.170  17.466   6.652  0.00  0.00    -0.351 N 
ATOM      3  HN  UNK N   1      28.223  17.587   6.292  1.00  0.00     0.166 HD
HETATM    4  C   UNK N   1      30.674  17.419   8.500  0.00  0.00     0.047 A 
HETATM    5  C   UNK N   1      30.181  17.218   5.773  0.00  0.00     0.050 A 
HETATM    6  C   UNK N   1      31.753  17.190   7.635  0.00  0.00    -0.015 A 
HETATM    7  C   UNK N   1      29.865  17.161   4.298  0.00  0.00     0.172 C 
HETATM    8  C   UNK N   1      31.500  17.079   6.248  0.00  0.00    -0.002 A 
HETATM    9  C   UNK N   1      31.013  16.694   3.392  0.00  0.00     0.065 C 
HETATM   10  C   UNK N   1      32.607  16.872   5.296  0.00  0.00     0.010 C 
HETATM   11  C   UNK N   1      32.392  16.716   3.989  0.00  0.00    -0.023 C 
ENDROOT
BRANCH   1  12
HETATM   12  C   UNK N   1      28.250  17.832   8.895  0.00  0.00     0.193 C 
HETATM   13  O   UNK N   1      27.933  17.025   9.754  0.00  0.00    -0.645 OA
BRANCH  12  14
HETATM   14  O   UNK N   1      27.567  18.989   8.785  0.00  0.00    -0.772 OA
HETATM   15  H   UNK N   1      27.325  19.465   9.554  0.00  0.00     0.167 HD
ENDBRANCH  12  14
ENDBRANCH   1  12
BRANCH   6  16
HETATM   16  C   UNK N   1      33.168  17.116   8.182  0.00  0.00     0.148 C 
HETATM   17  C   UNK N   1      33.910  18.444   8.126  0.00  0.00     0.044 C 
BRANCH  16  18
HETATM   18  O   UNK N   1      33.151  16.674   9.506  0.00  0.00    -0.391 OA
HETATM   19  H   UNK N   1      32.591  16.737  10.295  0.00  0.00     0.210 HD
ENDBRANCH  16  18
ENDBRANCH   6  16
BRANCH   7  20
HETATM   20  O   UNK N   1      28.783  16.305   4.087  0.00  0.00    -0.389 OA
HETATM   21  H   UNK N   1      28.259  15.919   3.367  0.00  0.00     0.210 HD
ENDBRANCH   7  20
TORSDOF 5
ENDMDL
MODEL 5
REMARK VINA RESULT:      -5.7      9.865     11.581
REMARK  5 active torsions:
REMARK  status: ('A' for Active; 'I' for Inactive)
REMARK    1  A    between atoms: C_2  and  C_3 
REMARK    2  A    between atoms: C_2  and  O_18 
REMARK    3  A    between atoms: C_8  and  C_13 
REMARK    4  A    between atoms: C_9  and  O_11 
REMARK    5  A    between atoms: C_13  and  O_14 
ROOT
HETATM    1  C   UNK N   1      35.753  12.940  14.673  0.00  0.00     0.107 A 
HETATM    2  N   UNK N   1      35.426  13.508  15.863  0.00  0.00    -0.351 N 
ATOM      3  HN  UNK N   1      35.159  14.492  15.882  1.00  0.00     0.166 HD
HETATM    4  C   UNK N   1      36.096  11.587  14.622  0.00  0.00     0.047 A 
HETATM    5  C   UNK N   1      35.440  12.807  17.031  0.00  0.00     0.050 A 
HETATM    6  C   UNK N   1      36.100  10.815  15.792  0.00  0.00    -0.015 A 
HETATM    7  C   UNK N   1      35.034  13.507  18.304  0.00  0.00     0.172 C 
HETATM    8  C   UNK N   1      35.774  11.438  17.018  0.00  0.00    -0.002 A 
HETATM    9  C   UNK N   1      35.253  12.710  19.598  0.00  0.00     0.065 C 
HETATM   10  C   UNK N   1      35.731  10.660  18.270  0.00  0.00     0.010 C 
HETATM   11  C   UNK N   1      35.475  11.231  19.447  0.00  0.00    -0.023 C 
ENDROOT
BRANCH   1  12
HETATM   12  C   UNK N   1      35.716  13.745  13.440  0.00  0.00     0.193 C 
HETATM   13  O   UNK N   1      34.719  13.759  12.737  0.00  0.00    -0.645 OA
BRANCH  12  14
HETATM   14  O   UNK N   1      36.787  14.485  13.089  0.00  0.00    -0.772 OA
HETATM   15  H   UNK N   1      36.667  15.340  12.726  0.00  0.00     0.167 HD
ENDBRANCH  12  14
ENDBRANCH   1  12
BRANCH   6  16
HETATM   16  C   UNK N   1      36.398   9.327  15.724  0.00  0.00     0.148 C 
HETATM   17  C   UNK N   1      35.768   8.636  14.523  0.00  0.00     0.044 C 
BRANCH  16  18
HETATM   18  O   UNK N   1      37.777   9.112  15.684  0.00  0.00    -0.391 OA
HETATM   19  H   UNK N   1      38.529   9.271  15.091  0.00  0.00     0.210 HD
ENDBRANCH  16  18
ENDBRANCH   6  16
BRANCH   7  20
HETATM   20  O   UNK N   1      35.736  14.707  18.421  0.00  0.00    -0.389 OA
HETATM   21  H   UNK N   1      35.645  15.654  18.228  0.00  0.00     0.210 HD
ENDBRANCH   7  20
TORSDOF 5
ENDMDL
MODEL 6
REMARK VINA RESULT:      -5.6      1.839      4.106
REMARK  5 active torsions:
REMARK  status: ('A' for Active; 'I' for Inactive)
REMARK    1  A    between atoms: C_2  and  C_3 
REMARK    2  A    between atoms: C_2  and  O_18 
REMARK    3  A    between atoms: C_8  and  C_13 
REMARK    4  A    between atoms: C_9  and  O_11 
REMARK    5  A    between atoms: C_13  and  O_14 
ROOT
HETATM    1  C   UNK N   1      31.308  16.809   5.048  0.00  0.00     0.107 A 
HETATM    2  N   UNK N   1      30.066  16.952   5.578  0.00  0.00    -0.351 N 
ATOM      3  HN  UNK N   1      29.255  16.711   5.007  1.00  0.00     0.166 HD
HETATM    4  C   UNK N   1      32.430  17.111   5.822  0.00  0.00     0.047 A 
HETATM    5  C   UNK N   1      29.865  17.406   6.847  0.00  0.00     0.050 A 
HETATM    6  C   UNK N   1      32.279  17.555   7.142  0.00  0.00    -0.015 A 
HETATM    7  C   UNK N   1      28.453  17.507   7.369  0.00  0.00     0.172 C 
HETATM    8  C   UNK N   1      30.974  17.714   7.661  0.00  0.00    -0.002 A 
HETATM    9  C   UNK N   1      28.297  18.199   8.731  0.00  0.00     0.065 C 
HETATM   10  C   UNK N   1      30.764  18.146   9.055  0.00  0.00     0.010 C 
HETATM   11  C   UNK N   1      29.544  18.350   9.554  0.00  0.00    -0.023 C 
ENDROOT
BRANCH   1  12
HETATM   12  C   UNK N   1      31.466  16.310   3.670  0.00  0.00     0.193 C 
HETATM   13  O   UNK N   1      31.649  15.122   3.458  0.00  0.00    -0.645 OA
BRANCH  12  14
HETATM   14  O   UNK N   1      31.394  17.168   2.633  0.00  0.00    -0.772 OA
HETATM   15  H   UNK N   1      31.026  18.020   2.754  0.00  0.00     0.167 HD
ENDBRANCH  12  14
ENDBRANCH   1  12
BRANCH   6  16
HETATM   16  C   UNK N   1      33.502  17.809   8.008  0.00  0.00     0.148 C 
HETATM   17  C   UNK N   1      33.979  16.575   8.761  0.00  0.00     0.044 C 
BRANCH  16  18
HETATM   18  O   UNK N   1      34.556  18.285   7.227  0.00  0.00    -0.391 OA
HETATM   19  H   UNK N   1      34.806  18.352   6.291  0.00  0.00     0.210 HD
ENDBRANCH  16  18
ENDBRANCH   6  16
BRANCH   7  20
HETATM   20  O   UNK N   1      27.664  18.200   6.448  0.00  0.00    -0.389 OA
HETATM   21  H   UNK N   1      27.537  18.298   5.491  0.00  0.00     0.210 HD
ENDBRANCH   7  20
TORSDOF 5
ENDMDL
MODEL 7
REMARK VINA RESULT:      -5.5     11.820     14.035
REMARK  5 active torsions:
REMARK  status: ('A' for Active; 'I' for Inactive)
REMARK    1  A    between atoms: C_2  and  C_3 
REMARK    2  A    between atoms: C_2  and  O_18 
REMARK    3  A    between atoms: C_8  and  C_13 
REMARK    4  A    between atoms: C_9  and  O_11 
REMARK    5  A    between atoms: C_13  and  O_14 
ROOT
HETATM    1  C   UNK N   1      29.917  22.699  -3.614  0.00  0.00     0.107 A 
HETATM    2  N   UNK N   1      28.842  23.528  -3.634  0.00  0.00    -0.351 N 
ATOM      3  HN  UNK N   1      28.628  24.078  -2.802  1.00  0.00     0.166 HD
HETATM    4  C   UNK N   1      30.240  21.956  -4.752  0.00  0.00     0.047 A 
HETATM    5  C   UNK N   1      28.039  23.651  -4.728  0.00  0.00     0.050 A 
HETATM    6  C   UNK N   1      29.463  22.067  -5.913  0.00  0.00    -0.015 A 
HETATM    7  C   UNK N   1      26.882  24.618  -4.676  0.00  0.00     0.172 C 
HETATM    8  C   UNK N   1      28.338  22.923  -5.897  0.00  0.00    -0.002 A 
HETATM    9  C   UNK N   1      25.918  24.564  -5.870  0.00  0.00     0.065 C 
HETATM   10  C   UNK N   1      27.509  23.099  -7.104  0.00  0.00     0.010 C 
HETATM   11  C   UNK N   1      26.415  23.862  -7.103  0.00  0.00    -0.023 C 
ENDROOT
BRANCH   1  12
HETATM   12  C   UNK N   1      30.754  22.608  -2.404  0.00  0.00     0.193 C 
HETATM   13  O   UNK N   1      30.386  23.114  -1.356  0.00  0.00    -0.645 OA
BRANCH  12  14
HETATM   14  O   UNK N   1      31.929  21.950  -2.448  0.00  0.00    -0.772 OA
HETATM   15  H   UNK N   1      32.663  22.331  -2.887  0.00  0.00     0.167 HD
ENDBRANCH  12  14
ENDBRANCH   1  12
BRANCH   6  16
HETATM   16  C   UNK N   1      29.859  21.318  -7.173  0.00  0.00     0.148 C 
HETATM   17  C   UNK N   1      31.363  21.282  -7.409  0.00  0.00     0.044 C 
BRANCH  16  18
HETATM   18  O   UNK N   1      29.388  20.005  -7.123  0.00  0.00    -0.391 OA
HETATM   19  H   UNK N   1      29.586  19.138  -7.511  0.00  0.00     0.210 HD
ENDBRANCH  16  18
ENDBRANCH   6  16
BRANCH   7  20
HETATM   20  O   UNK N   1      26.136  24.390  -3.518  0.00  0.00    -0.389 OA
HETATM   21  H   UNK N   1      26.129  23.830  -2.726  0.00  0.00     0.210 HD
ENDBRANCH   7  20
TORSDOF 5
ENDMDL
MODEL 8
REMARK VINA RESULT:      -5.5      6.600      8.501
REMARK  5 active torsions:
REMARK  status: ('A' for Active; 'I' for Inactive)
REMARK    1  A    between atoms: C_2  and  C_3 
REMARK    2  A    between atoms: C_2  and  O_18 
REMARK    3  A    between atoms: C_8  and  C_13 
REMARK    4  A    between atoms: C_9  and  O_11 
REMARK    5  A    between atoms: C_13  and  O_14 
ROOT
HETATM    1  C   UNK N   1      35.508  14.658  11.636  0.00  0.00     0.107 A 
HETATM    2  N   UNK N   1      35.066  13.646  10.846  0.00  0.00    -0.351 N 
ATOM      3  HN  UNK N   1      34.987  13.803   9.841  1.00  0.00     0.166 HD
HETATM    4  C   UNK N   1      35.647  14.454  13.011  0.00  0.00     0.047 A 
HETATM    5  C   UNK N   1      34.726  12.427  11.349  0.00  0.00     0.050 A 
HETATM    6  C   UNK N   1      35.336  13.210  13.575  0.00  0.00    -0.015 A 
HETATM    7  C   UNK N   1      34.272  11.347  10.398  0.00  0.00     0.172 C 
HETATM    8  C   UNK N   1      34.859  12.181  12.731  0.00  0.00    -0.002 A 
HETATM    9  C   UNK N   1      33.731  10.069  11.054  0.00  0.00     0.065 C 
HETATM   10  C   UNK N   1      34.552  10.845  13.272  0.00  0.00     0.010 C 
HETATM   11  C   UNK N   1      34.055   9.871  12.508  0.00  0.00    -0.023 C 
ENDROOT
BRANCH   1  12
HETATM   12  C   UNK N   1      35.866  15.956  11.036  0.00  0.00     0.193 C 
HETATM   13  O   UNK N   1      36.984  16.143  10.583  0.00  0.00    -0.645 OA
BRANCH  12  14
HETATM   14  O   UNK N   1      34.949  16.942  10.973  0.00  0.00    -0.772 OA
HETATM   15  H   UNK N   1      35.206  17.804  10.712  0.00  0.00     0.167 HD
ENDBRANCH  12  14
ENDBRANCH   1  12
BRANCH   6  16
HETATM   16  C   UNK N   1      35.560  12.966  15.057  0.00  0.00     0.148 C 
HETATM   17  C   UNK N   1      36.659  13.834  15.656  0.00  0.00     0.044 C 
BRANCH  16  18
HETATM   18  O   UNK N   1      34.381  13.194  15.768  0.00  0.00    -0.391 OA
HETATM   19  H   UNK N   1      34.022  13.061  16.660  0.00  0.00     0.210 HD
ENDBRANCH  16  18
ENDBRANCH   6  16
BRANCH   7  20
HETATM   20  O   UNK N   1      33.274  11.851   9.563  0.00  0.00    -0.389 OA
HETATM   21  H   UNK N   1      32.933  12.693   9.222  0.00  0.00     0.210 HD
ENDBRANCH   7  20
TORSDOF 5
ENDMDL
MODEL 9
REMARK VINA RESULT:      -5.4     13.360     15.200
REMARK  5 active torsions:
REMARK  status: ('A' for Active; 'I' for Inactive)
REMARK    1  A    between atoms: C_2  and  C_3 
REMARK    2  A    between atoms: C_2  and  O_18 
REMARK    3  A    between atoms: C_8  and  C_13 
REMARK    4  A    between atoms: C_9  and  O_11 
REMARK    5  A    between atoms: C_13  and  O_14 
ROOT
HETATM    1  C   UNK N   1      28.747  24.475  -3.971  0.00  0.00     0.107 A 
HETATM    2  N   UNK N   1      28.231  25.697  -3.680  0.00  0.00    -0.351 N 
ATOM      3  HN  UNK N   1      28.692  26.272  -2.975  1.00  0.00     0.166 HD
HETATM    4  C   UNK N   1      28.143  23.683  -4.951  0.00  0.00     0.047 A 
HETATM    5  C   UNK N   1      27.118  26.182  -4.298  0.00  0.00     0.050 A 
HETATM    6  C   UNK N   1      27.012  24.147  -5.636  0.00  0.00    -0.015 A 
HETATM    7  C   UNK N   1      26.628  27.562  -3.937  0.00  0.00     0.172 C 
HETATM    8  C   UNK N   1      26.485  25.415  -5.298  0.00  0.00    -0.002 A 
HETATM    9  C   UNK N   1      25.271  27.962  -4.534  0.00  0.00     0.065 C 
HETATM   10  C   UNK N   1      25.318  25.960  -6.013  0.00  0.00     0.010 C 
HETATM   11  C   UNK N   1      24.771  27.131  -5.682  0.00  0.00    -0.023 C 
ENDROOT
BRANCH   1  12
HETATM   12  C   UNK N   1      29.956  24.002  -3.274  0.00  0.00     0.193 C 
HETATM   13  O   UNK N   1      31.054  24.107  -3.795  0.00  0.00    -0.645 OA
BRANCH  12  14
HETATM   14  O   UNK N   1      29.853  23.462  -2.043  0.00  0.00    -0.772 OA
HETATM   15  H   UNK N   1      29.314  23.870  -1.395  0.00  0.00     0.167 HD
ENDBRANCH  12  14
ENDBRANCH   1  12
BRANCH   6  16
HETATM   16  C   UNK N   1      26.403  23.319  -6.754  0.00  0.00     0.148 C 
HETATM   17  C   UNK N   1      27.362  22.291  -7.340  0.00  0.00     0.044 C 
BRANCH  16  18
HETATM   18  O   UNK N   1      25.266  22.652  -6.296  0.00  0.00    -0.391 OA
HETATM   19  H   UNK N   1      24.311  22.800  -6.211  0.00  0.00     0.210 HD
ENDBRANCH  16  18
ENDBRANCH   6  16
BRANCH   7  20
HETATM   20  O   UNK N   1      26.530  27.673  -2.549  0.00  0.00    -0.389 OA
HETATM   21  H   UNK N   1      27.055  27.937  -1.777  0.00  0.00     0.210 HD
ENDBRANCH   7  20
TORSDOF 5
ENDMDL
