REMARK  8 active torsions:
REMARK  status: ('A' for Active; 'I' for Inactive)
REMARK    1  A    between atoms: C_2  and  C_3 
REMARK    2  A    between atoms: C_3  and  N_4 
REMARK    3  A    between atoms: N_4  and  C_5 
REMARK    4  A    between atoms: C_5  and  C_6 
REMARK    5  A    between atoms: C_7  and  C_8 
REMARK    6  A    between atoms: C_8  and  O_9 
REMARK    7  A    between atoms: O_9  and  C_10 
REMARK    8  A    between atoms: C_16  and  C_20 
ROOT
HETATM    1  C   UNK N   1      -0.530  -0.394  -0.283  0.00  0.00     0.110 A 
HETATM    2  C   UNK N   1      -0.632   1.013  -0.163  0.00  0.00     0.072 A 
HETATM    3  C   UNK N   1       0.540   1.729   0.082  0.00  0.00     0.065 A 
HETATM    4  N   UNK N   1       0.740   3.060   0.116  0.00  0.00    -0.295 N 
HETATM    5  N   UNK N   1       2.043   3.301   0.232  0.00  0.00    -0.297 N 
ATOM      6  HN  UNK N   1       2.485   4.220   0.263  1.00  0.00     0.187 HD
HETATM    7  C   UNK N   1       2.681   2.103   0.304  0.00  0.00     0.071 A 
HETATM    8  C   UNK N   1       1.738   1.104   0.227  0.00  0.00     0.024 A 
HETATM    9  C   UNK N   1       1.870  -0.275   0.177  0.00  0.00     0.061 A 
HETATM   10  C   UNK N   1       0.728  -1.035  -0.073  0.00  0.00     0.150 A 
HETATM   11  F   UNK N   1       0.856  -2.382  -0.143  0.00  0.00    -0.203 F 
HETATM   12  C   UNK N   1      -0.267   4.095  -0.048  0.00  0.00     0.178 C 
ENDROOT
BRANCH   1  13
HETATM   13  O   UNK N   1      -1.625  -1.098  -0.649  0.00  0.00    -0.344 OA
BRANCH  13  14
HETATM   14  C   UNK N   1      -1.547  -2.291  -1.340  0.00  0.00     0.203 C 
BRANCH  14  15
HETATM   15  C   UNK N   1      -2.152  -3.473  -0.629  0.00  0.00    -0.003 C 
HETATM   16  C   UNK N   1      -2.948  -3.457   0.451  0.00  0.00     0.001 C 
BRANCH  16  17
HETATM   17  C   UNK N   1      -3.398  -2.225   1.184  0.00  0.00     0.299 C 
BRANCH  17  18
HETATM   18  N   UNK N   1      -4.098  -1.290   0.304  0.00  0.00     0.090 N 
HETATM   19  C   UNK N   1      -4.304  -0.042   1.023  0.00  0.00     0.310 C 
BRANCH  18  20
HETATM   20  C   UNK N   1      -5.374  -1.820  -0.189  0.00  0.00     0.299 C 
BRANCH  20  21
HETATM   21  C   UNK N   1      -6.340  -2.152   0.907  0.00  0.00    -0.007 C 
HETATM   22  C   UNK N   1      -7.548  -2.611   0.600  0.00  0.00     0.008 C 
ENDBRANCH  20  21
ENDBRANCH  18  20
ENDBRANCH  17  18
ENDBRANCH  16  17
ENDBRANCH  14  15
ENDBRANCH  13  14
ENDBRANCH   1  13
BRANCH   7  23
HETATM   23  C   UNK N   1       4.140   1.890   0.252  0.00  0.00    -0.007 A 
HETATM   24  C   UNK N   1       4.999   2.930  -0.124  0.00  0.00     0.015 A 
HETATM   25  C   UNK N   1       6.350   2.661  -0.382  0.00  0.00     0.020 A 
HETATM   26  C   UNK N   1       6.843   1.356  -0.257  0.00  0.00     0.011 A 
HETATM   27  C   UNK N   1       5.998   0.327   0.152  0.00  0.00     0.020 A 
HETATM   28 Br   UNK N   1       8.652   0.958  -0.694  0.00  0.00    -0.051 Br
HETATM   29  C   UNK N   1       4.655   0.592   0.394  0.00  0.00     0.015 A 
ENDBRANCH   7  23
TORSDOF 8
