MODEL 1
REMARK VINA RESULT:      -7.1      0.000      0.000
REMARK  8 active torsions:
REMARK  status: ('A' for Active; 'I' for Inactive)
REMARK    1  A    between atoms: C_2  and  C_3 
REMARK    2  A    between atoms: C_3  and  N_4 
REMARK    3  A    between atoms: N_4  and  C_5 
REMARK    4  A    between atoms: C_5  and  C_6 
REMARK    5  A    between atoms: C_7  and  C_8 
REMARK    6  A    between atoms: C_8  and  O_9 
REMARK    7  A    between atoms: O_9  and  C_10 
REMARK    8  A    between atoms: C_16  and  C_20 
ROOT
HETATM    1  C   UNK N   1      31.800  17.283   7.857  0.00  0.00     0.110 A 
HETATM    2  C   UNK N   1      32.185  16.958   6.534  0.00  0.00     0.072 A 
HETATM    3  C   UNK N   1      31.228  17.096   5.528  0.00  0.00     0.065 A 
HETATM    4  N   UNK N   1      31.363  16.976   4.194  0.00  0.00    -0.295 N 
HETATM    5  N   UNK N   1      30.227  17.342   3.607  0.00  0.00    -0.297 N 
ATOM      6  HN  UNK N   1      30.049  17.369   2.603  1.00  0.00     0.187 HD
HETATM    7  C   UNK N   1      29.343  17.671   4.586  0.00  0.00     0.071 A 
HETATM    8  C   UNK N   1      29.961  17.503   5.804  0.00  0.00     0.024 A 
HETATM    9  C   UNK N   1      29.528  17.771   7.093  0.00  0.00     0.061 A 
HETATM   10  C   UNK N   1      30.450  17.655   8.132  0.00  0.00     0.150 A 
HETATM   11  F   UNK N   1      30.037  17.936   9.392  0.00  0.00    -0.203 F 
HETATM   12  C   UNK N   1      32.570  16.610   3.472  0.00  0.00     0.178 C 
ENDROOT
BRANCH   1  13
HETATM   13  O   UNK N   1      32.742  17.284   8.828  0.00  0.00    -0.344 OA
BRANCH  13  14
HETATM   14  C   UNK N   1      33.919  16.569   8.725  0.00  0.00     0.203 C 
BRANCH  14  15
HETATM   15  C   UNK N   1      34.964  16.923   9.751  0.00  0.00    -0.003 C 
HETATM   16  C   UNK N   1      35.251  16.265  10.884  0.00  0.00     0.001 C 
BRANCH  16  17
HETATM   17  C   UNK N   1      34.564  15.019  11.367  0.00  0.00     0.299 C 
BRANCH  17  18
HETATM   18  N   UNK N   1      35.515  13.940  11.636  0.00  0.00     0.090 N 
HETATM   19  C   UNK N   1      35.191  12.811  10.777  0.00  0.00     0.310 C 
BRANCH  18  20
HETATM   20  C   UNK N   1      35.526  13.532  13.045  0.00  0.00     0.299 C 
BRANCH  20  21
HETATM   21  C   UNK N   1      36.432  14.369  13.897  0.00  0.00    -0.007 C 
HETATM   22  C   UNK N   1      36.689  13.994  15.145  0.00  0.00     0.008 C 
ENDBRANCH  20  21
ENDBRANCH  18  20
ENDBRANCH  17  18
ENDBRANCH  16  17
ENDBRANCH  14  15
ENDBRANCH  13  14
ENDBRANCH   1  13
BRANCH   7  23
HETATM   23  C   UNK N   1      28.026  18.307   4.391  0.00  0.00    -0.007 A 
HETATM   24  C   UNK N   1      26.935  17.559   3.929  0.00  0.00     0.015 A 
HETATM   25  C   UNK N   1      25.757  18.211   3.540  0.00  0.00     0.020 A 
HETATM   26  C   UNK N   1      25.667  19.606   3.618  0.00  0.00     0.011 A 
HETATM   27  C   UNK N   1      26.737  20.348   4.111  0.00  0.00     0.020 A 
HETATM   28 Br   UNK N   1      24.109  20.512   3.006  0.00  0.00    -0.051 Br
HETATM   29  C   UNK N   1      27.911  19.703   4.484  0.00  0.00     0.015 A 
ENDBRANCH   7  23
TORSDOF 8
ENDMDL
MODEL 2
REMARK VINA RESULT:      -7.1      4.465     10.658
REMARK  8 active torsions:
REMARK  status: ('A' for Active; 'I' for Inactive)
REMARK    1  A    between atoms: C_2  and  C_3 
REMARK    2  A    between atoms: C_3  and  N_4 
REMARK    3  A    between atoms: N_4  and  C_5 
REMARK    4  A    between atoms: C_5  and  C_6 
REMARK    5  A    between atoms: C_7  and  C_8 
REMARK    6  A    between atoms: C_8  and  O_9 
REMARK    7  A    between atoms: O_9  and  C_10 
REMARK    8  A    between atoms: C_16  and  C_20 
ROOT
HETATM    1  C   UNK N   1      34.836  14.616   8.574  0.00  0.00     0.110 A 
HETATM    2  C   UNK N   1      36.168  14.150   8.693  0.00  0.00     0.072 A 
HETATM    3  C   UNK N   1      36.674  13.958   9.979  0.00  0.00     0.065 A 
HETATM    4  N   UNK N   1      37.844  13.416  10.367  0.00  0.00    -0.295 N 
HETATM    5  N   UNK N   1      37.847  13.291  11.691  0.00  0.00    -0.297 N 
ATOM      6  HN  UNK N   1      38.597  12.894  12.257  1.00  0.00     0.187 HD
HETATM    7  C   UNK N   1      36.671  13.791  12.157  0.00  0.00     0.071 A 
HETATM    8  C   UNK N   1      35.931  14.230  11.084  0.00  0.00     0.024 A 
HETATM    9  C   UNK N   1      34.646  14.744  11.009  0.00  0.00     0.061 A 
HETATM   10  C   UNK N   1      34.092  14.947   9.746  0.00  0.00     0.150 A 
HETATM   11  F   UNK N   1      32.829  15.431   9.669  0.00  0.00    -0.203 F 
HETATM   12  C   UNK N   1      38.910  12.938   9.503  0.00  0.00     0.178 C 
ENDROOT
BRANCH   1  13
HETATM   13  O   UNK N   1      34.278  14.686   7.344  0.00  0.00    -0.344 OA
BRANCH  13  14
HETATM   14  C   UNK N   1      34.570  15.697   6.450  0.00  0.00     0.203 C 
BRANCH  14  15
HETATM   15  C   UNK N   1      34.113  17.067   6.875  0.00  0.00    -0.003 C 
HETATM   16  C   UNK N   1      32.854  17.529   6.927  0.00  0.00     0.001 C 
BRANCH  16  17
HETATM   17  C   UNK N   1      31.624  16.750   6.556  0.00  0.00     0.299 C 
BRANCH  17  18
HETATM   18  N   UNK N   1      30.918  17.349   5.424  0.00  0.00     0.090 N 
HETATM   19  C   UNK N   1      29.511  17.482   5.772  0.00  0.00     0.310 C 
BRANCH  18  20
HETATM   20  C   UNK N   1      31.073  16.579   4.185  0.00  0.00     0.299 C 
BRANCH  20  21
HETATM   21  C   UNK N   1      32.172  17.090   3.305  0.00  0.00    -0.007 C 
HETATM   22  C   UNK N   1      33.199  16.300   3.012  0.00  0.00     0.008 C 
ENDBRANCH  20  21
ENDBRANCH  18  20
ENDBRANCH  17  18
ENDBRANCH  16  17
ENDBRANCH  14  15
ENDBRANCH  13  14
ENDBRANCH   1  13
BRANCH   7  23
HETATM   23  C   UNK N   1      36.170  13.688  13.541  0.00  0.00    -0.007 A 
HETATM   24  C   UNK N   1      36.752  14.440  14.568  0.00  0.00     0.015 A 
HETATM   25  C   UNK N   1      36.419  14.175  15.903  0.00  0.00     0.020 A 
HETATM   26  C   UNK N   1      35.500  13.163  16.210  0.00  0.00     0.011 A 
HETATM   27  C   UNK N   1      34.893  12.438  15.188  0.00  0.00     0.020 A 
HETATM   28 Br   UNK N   1      35.109  12.728  18.021  0.00  0.00    -0.051 Br
HETATM   29  C   UNK N   1      35.234  12.693  13.865  0.00  0.00     0.015 A 
ENDBRANCH   7  23
TORSDOF 8
ENDMDL
MODEL 3
REMARK VINA RESULT:      -7.0      2.944      4.472
REMARK  8 active torsions:
REMARK  status: ('A' for Active; 'I' for Inactive)
REMARK    1  A    between atoms: C_2  and  C_3 
REMARK    2  A    between atoms: C_3  and  N_4 
REMARK    3  A    between atoms: N_4  and  C_5 
REMARK    4  A    between atoms: C_5  and  C_6 
REMARK    5  A    between atoms: C_7  and  C_8 
REMARK    6  A    between atoms: C_8  and  O_9 
REMARK    7  A    between atoms: O_9  and  C_10 
REMARK    8  A    between atoms: C_16  and  C_20 
ROOT
HETATM    1  C   UNK N   1      29.958  16.434   4.720  0.00  0.00     0.110 A 
HETATM    2  C   UNK N   1      29.656  17.106   5.930  0.00  0.00     0.072 A 
HETATM    3  C   UNK N   1      28.544  17.948   5.944  0.00  0.00     0.065 A 
HETATM    4  N   UNK N   1      27.973  18.597   6.976  0.00  0.00    -0.295 N 
HETATM    5  N   UNK N   1      26.842  19.163   6.561  0.00  0.00    -0.297 N 
ATOM      6  HN  UNK N   1      26.194  19.702   7.135  1.00  0.00     0.187 HD
HETATM    7  C   UNK N   1      26.707  18.895   5.236  0.00  0.00     0.071 A 
HETATM    8  C   UNK N   1      27.785  18.142   4.833  0.00  0.00     0.024 A 
HETATM    9  C   UNK N   1      28.083  17.551   3.614  0.00  0.00     0.061 A 
HETATM   10  C   UNK N   1      29.182  16.695   3.551  0.00  0.00     0.150 A 
HETATM   11  F   UNK N   1      29.464  16.099   2.368  0.00  0.00    -0.203 F 
HETATM   12  C   UNK N   1      28.433  18.613   8.354  0.00  0.00     0.178 C 
ENDROOT
BRANCH   1  13
HETATM   13  O   UNK N   1      30.949  15.515   4.715  0.00  0.00    -0.344 OA
BRANCH  13  14
HETATM   14  C   UNK N   1      32.217  15.789   4.241  0.00  0.00     0.203 C 
BRANCH  14  15
HETATM   15  C   UNK N   1      32.745  17.152   4.604  0.00  0.00    -0.003 C 
HETATM   16  C   UNK N   1      33.551  17.470   5.628  0.00  0.00     0.001 C 
BRANCH  16  17
HETATM   17  C   UNK N   1      34.093  16.504   6.643  0.00  0.00     0.299 C 
BRANCH  17  18
HETATM   18  N   UNK N   1      33.884  16.974   8.012  0.00  0.00     0.090 N 
HETATM   19  C   UNK N   1      34.483  18.293   8.146  0.00  0.00     0.310 C 
BRANCH  18  20
HETATM   20  C   UNK N   1      34.426  16.055   9.018  0.00  0.00     0.299 C 
BRANCH  20  21
HETATM   21  C   UNK N   1      35.104  16.755  10.156  0.00  0.00    -0.007 C 
HETATM   22  C   UNK N   1      36.007  16.105  10.882  0.00  0.00     0.008 C 
ENDBRANCH  20  21
ENDBRANCH  18  20
ENDBRANCH  17  18
ENDBRANCH  16  17
ENDBRANCH  14  15
ENDBRANCH  13  14
ENDBRANCH   1  13
BRANCH   7  23
HETATM   23  C   UNK N   1      25.514  19.167   4.411  0.00  0.00    -0.007 A 
HETATM   24  C   UNK N   1      25.480  20.271   3.550  0.00  0.00     0.015 A 
HETATM   25  C   UNK N   1      24.274  20.645   2.942  0.00  0.00     0.020 A 
HETATM   26  C   UNK N   1      23.106  19.912   3.188  0.00  0.00     0.011 A 
HETATM   27  C   UNK N   1      23.146  18.792   4.015  0.00  0.00     0.020 A 
HETATM   28 Br   UNK N   1      21.443  20.462   2.444  0.00  0.00    -0.051 Br
HETATM   29  C   UNK N   1      24.339  18.431   4.629  0.00  0.00     0.015 A 
ENDBRANCH   7  23
TORSDOF 8
ENDMDL
MODEL 4
REMARK VINA RESULT:      -7.0      5.065     10.595
REMARK  8 active torsions:
REMARK  status: ('A' for Active; 'I' for Inactive)
REMARK    1  A    between atoms: C_2  and  C_3 
REMARK    2  A    between atoms: C_3  and  N_4 
REMARK    3  A    between atoms: N_4  and  C_5 
REMARK    4  A    between atoms: C_5  and  C_6 
REMARK    5  A    between atoms: C_7  and  C_8 
REMARK    6  A    between atoms: C_8  and  O_9 
REMARK    7  A    between atoms: O_9  and  C_10 
REMARK    8  A    between atoms: C_16  and  C_20 
ROOT
HETATM    1  C   UNK N   1      26.247  19.551   4.179  0.00  0.00     0.110 A 
HETATM    2  C   UNK N   1      26.314  18.249   3.626  0.00  0.00     0.072 A 
HETATM    3  C   UNK N   1      27.486  17.519   3.827  0.00  0.00     0.065 A 
HETATM    4  N   UNK N   1      27.760  16.237   3.521  0.00  0.00    -0.295 N 
HETATM    5  N   UNK N   1      28.946  15.913   4.030  0.00  0.00    -0.297 N 
ATOM      6  HN  UNK N   1      29.398  15.000   3.970  1.00  0.00     0.187 HD
HETATM    7  C   UNK N   1      29.449  17.016   4.644  0.00  0.00     0.071 A 
HETATM    8  C   UNK N   1      28.541  18.041   4.507  0.00  0.00     0.024 A 
HETATM    9  C   UNK N   1      28.538  19.332   5.010  0.00  0.00     0.061 A 
HETATM   10  C   UNK N   1      27.386  20.100   4.842  0.00  0.00     0.150 A 
HETATM   11  F   UNK N   1      27.371  21.356   5.350  0.00  0.00    -0.203 F 
HETATM   12  C   UNK N   1      26.885  15.300   2.838  0.00  0.00     0.178 C 
ENDROOT
BRANCH   1  13
HETATM   13  O   UNK N   1      25.078  20.228   4.112  0.00  0.00    -0.344 OA
BRANCH  13  14
HETATM   14  C   UNK N   1      23.891  19.630   3.739  0.00  0.00     0.203 C 
BRANCH  14  15
HETATM   15  C   UNK N   1      23.046  20.441   2.792  0.00  0.00    -0.003 C 
HETATM   16  C   UNK N   1      21.707  20.454   2.699  0.00  0.00     0.001 C 
BRANCH  16  17
HETATM   17  C   UNK N   1      20.767  19.637   3.538  0.00  0.00     0.299 C 
BRANCH  17  18
HETATM   18  N   UNK N   1      20.776  18.226   3.154  0.00  0.00     0.090 N 
HETATM   19  C   UNK N   1      19.739  18.010   2.157  0.00  0.00     0.310 C 
BRANCH  18  20
HETATM   20  C   UNK N   1      20.592  17.324   4.297  0.00  0.00     0.299 C 
BRANCH  20  21
HETATM   21  C   UNK N   1      21.254  17.812   5.549  0.00  0.00    -0.007 C 
HETATM   22  C   UNK N   1      22.212  17.083   6.111  0.00  0.00     0.008 C 
ENDBRANCH  20  21
ENDBRANCH  18  20
ENDBRANCH  17  18
ENDBRANCH  16  17
ENDBRANCH  14  15
ENDBRANCH  13  14
ENDBRANCH   1  13
BRANCH   7  23
HETATM   23  C   UNK N   1      30.650  17.064   5.499  0.00  0.00    -0.007 A 
HETATM   24  C   UNK N   1      30.531  17.080   6.895  0.00  0.00     0.015 A 
HETATM   25  C   UNK N   1      31.656  17.346   7.688  0.00  0.00     0.020 A 
HETATM   26  C   UNK N   1      32.898  17.588   7.088  0.00  0.00     0.011 A 
HETATM   27  C   UNK N   1      33.025  17.537   5.702  0.00  0.00     0.020 A 
HETATM   28 Br   UNK N   1      34.413  18.043   8.146  0.00  0.00    -0.051 Br
HETATM   29  C   UNK N   1      31.906  17.287   4.915  0.00  0.00     0.015 A 
ENDBRANCH   7  23
TORSDOF 8
ENDMDL
MODEL 5
REMARK VINA RESULT:      -7.0      4.906     10.430
REMARK  8 active torsions:
REMARK  status: ('A' for Active; 'I' for Inactive)
REMARK    1  A    between atoms: C_2  and  C_3 
REMARK    2  A    between atoms: C_3  and  N_4 
REMARK    3  A    between atoms: N_4  and  C_5 
REMARK    4  A    between atoms: C_5  and  C_6 
REMARK    5  A    between atoms: C_7  and  C_8 
REMARK    6  A    between atoms: C_8  and  O_9 
REMARK    7  A    between atoms: O_9  and  C_10 
REMARK    8  A    between atoms: C_16  and  C_20 
ROOT
HETATM    1  C   UNK N   1      34.702  14.464   8.849  0.00  0.00     0.110 A 
HETATM    2  C   UNK N   1      36.030  13.985   8.954  0.00  0.00     0.072 A 
HETATM    3  C   UNK N   1      36.561  13.822  10.233  0.00  0.00     0.065 A 
HETATM    4  N   UNK N   1      37.732  13.276  10.612  0.00  0.00    -0.295 N 
HETATM    5  N   UNK N   1      37.762  13.189  11.939  0.00  0.00    -0.297 N 
ATOM      6  HN  UNK N   1      38.520  12.798  12.500  1.00  0.00     0.187 HD
HETATM    7  C   UNK N   1      36.603  13.716  12.415  0.00  0.00     0.071 A 
HETATM    8  C   UNK N   1      35.845  14.134  11.346  0.00  0.00     0.024 A 
HETATM    9  C   UNK N   1      34.565  14.663  11.284  0.00  0.00     0.061 A 
HETATM   10  C   UNK N   1      33.987  14.838  10.027  0.00  0.00     0.150 A 
HETATM   11  F   UNK N   1      32.728  15.335   9.964  0.00  0.00    -0.203 F 
HETATM   12  C   UNK N   1      38.774  12.761   9.739  0.00  0.00     0.178 C 
ENDROOT
BRANCH   1  13
HETATM   13  O   UNK N   1      34.118  14.507   7.630  0.00  0.00    -0.344 OA
BRANCH  13  14
HETATM   14  C   UNK N   1      34.549  15.352   6.627  0.00  0.00     0.203 C 
BRANCH  14  15
HETATM   15  C   UNK N   1      34.493  16.818   6.969  0.00  0.00    -0.003 C 
HETATM   16  C   UNK N   1      33.469  17.663   6.778  0.00  0.00     0.001 C 
BRANCH  16  17
HETATM   17  C   UNK N   1      32.146  17.304   6.163  0.00  0.00     0.299 C 
BRANCH  17  18
HETATM   18  N   UNK N   1      31.240  16.692   7.135  0.00  0.00     0.090 N 
HETATM   19  C   UNK N   1      30.729  15.450   6.575  0.00  0.00     0.310 C 
BRANCH  18  20
HETATM   20  C   UNK N   1      30.136  17.579   7.520  0.00  0.00     0.299 C 
BRANCH  20  21
HETATM   21  C   UNK N   1      29.731  17.432   8.955  0.00  0.00    -0.007 C 
HETATM   22  C   UNK N   1      28.463  17.620   9.301  0.00  0.00     0.008 C 
ENDBRANCH  20  21
ENDBRANCH  18  20
ENDBRANCH  17  18
ENDBRANCH  16  17
ENDBRANCH  14  15
ENDBRANCH  13  14
ENDBRANCH   1  13
BRANCH   7  23
HETATM   23  C   UNK N   1      36.130  13.658  13.811  0.00  0.00    -0.007 A 
HETATM   24  C   UNK N   1      36.764  14.407  14.810  0.00  0.00     0.015 A 
HETATM   25  C   UNK N   1      36.452  14.180  16.157  0.00  0.00     0.020 A 
HETATM   26  C   UNK N   1      35.504  13.209  16.505  0.00  0.00     0.011 A 
HETATM   27  C   UNK N   1      34.847  12.488  15.511  0.00  0.00     0.020 A 
HETATM   28 Br   UNK N   1      35.139  12.823  18.332  0.00  0.00    -0.051 Br
HETATM   29  C   UNK N   1      35.167  12.704  14.176  0.00  0.00     0.015 A 
ENDBRANCH   7  23
TORSDOF 8
ENDMDL
MODEL 6
REMARK VINA RESULT:      -7.0      6.309     12.836
REMARK  8 active torsions:
REMARK  status: ('A' for Active; 'I' for Inactive)
REMARK    1  A    between atoms: C_2  and  C_3 
REMARK    2  A    between atoms: C_3  and  N_4 
REMARK    3  A    between atoms: N_4  and  C_5 
REMARK    4  A    between atoms: C_5  and  C_6 
REMARK    5  A    between atoms: C_7  and  C_8 
REMARK    6  A    between atoms: C_8  and  O_9 
REMARK    7  A    between atoms: O_9  and  C_10 
REMARK    8  A    between atoms: C_16  and  C_20 
ROOT
HETATM    1  C   UNK N   1      36.017  14.171  13.388  0.00  0.00     0.110 A 
HETATM    2  C   UNK N   1      35.363  12.996  12.944  0.00  0.00     0.072 A 
HETATM    3  C   UNK N   1      35.315  11.911  13.819  0.00  0.00     0.065 A 
HETATM    4  N   UNK N   1      34.661  10.740  13.698  0.00  0.00    -0.295 N 
HETATM    5  N   UNK N   1      34.769  10.062  14.836  0.00  0.00    -0.297 N 
ATOM      6  HN  UNK N   1      34.356   9.150  15.036  1.00  0.00     0.187 HD
HETATM    7  C   UNK N   1      35.531  10.799  15.687  0.00  0.00     0.071 A 
HETATM    8  C   UNK N   1      35.894  11.961  15.047  0.00  0.00     0.024 A 
HETATM    9  C   UNK N   1      36.596  13.070  15.495  0.00  0.00     0.061 A 
HETATM   10  C   UNK N   1      36.666  14.184  14.660  0.00  0.00     0.150 A 
HETATM   11  F   UNK N   1      37.333  15.277  15.102  0.00  0.00    -0.203 F 
HETATM   12  C   UNK N   1      33.868  10.301  12.561  0.00  0.00     0.178 C 
ENDROOT
BRANCH   1  13
HETATM   13  O   UNK N   1      35.965  15.279  12.614  0.00  0.00    -0.344 OA
BRANCH  13  14
HETATM   14  C   UNK N   1      35.013  15.455  11.629  0.00  0.00     0.203 C 
BRANCH  14  15
HETATM   15  C   UNK N   1      35.369  16.480  10.584  0.00  0.00    -0.003 C 
HETATM   16  C   UNK N   1      34.673  16.798   9.482  0.00  0.00     0.001 C 
BRANCH  16  17
HETATM   17  C   UNK N   1      33.373  16.175   9.062  0.00  0.00     0.299 C 
BRANCH  17  18
HETATM   18  N   UNK N   1      32.741  16.911   7.968  0.00  0.00     0.090 N 
HETATM   19  C   UNK N   1      33.374  18.217   7.862  0.00  0.00     0.310 C 
BRANCH  18  20
HETATM   20  C   UNK N   1      31.291  17.051   8.138  0.00  0.00     0.299 C 
BRANCH  20  21
HETATM   21  C   UNK N   1      30.894  18.335   8.799  0.00  0.00    -0.007 C 
HETATM   22  C   UNK N   1      29.786  18.382   9.530  0.00  0.00     0.008 C 
ENDBRANCH  20  21
ENDBRANCH  18  20
ENDBRANCH  17  18
ENDBRANCH  16  17
ENDBRANCH  14  15
ENDBRANCH  13  14
ENDBRANCH   1  13
BRANCH   7  23
HETATM   23  C   UNK N   1      35.755  10.520  17.118  0.00  0.00    -0.007 A 
HETATM   24  C   UNK N   1      35.255  11.385  18.100  0.00  0.00     0.015 A 
HETATM   25  C   UNK N   1      35.656  11.233  19.434  0.00  0.00     0.020 A 
HETATM   26  C   UNK N   1      36.549  10.214  19.788  0.00  0.00     0.011 A 
HETATM   27  C   UNK N   1      37.019   9.330  18.819  0.00  0.00     0.020 A 
HETATM   28 Br   UNK N   1      37.176  10.054  21.578  0.00  0.00    -0.051 Br
HETATM   29  C   UNK N   1      36.631   9.490  17.493  0.00  0.00     0.015 A 
ENDBRANCH   7  23
TORSDOF 8
ENDMDL
MODEL 7
REMARK VINA RESULT:      -6.8      7.307     11.125
REMARK  8 active torsions:
REMARK  status: ('A' for Active; 'I' for Inactive)
REMARK    1  A    between atoms: C_2  and  C_3 
REMARK    2  A    between atoms: C_3  and  N_4 
REMARK    3  A    between atoms: N_4  and  C_5 
REMARK    4  A    between atoms: C_5  and  C_6 
REMARK    5  A    between atoms: C_7  and  C_8 
REMARK    6  A    between atoms: C_8  and  O_9 
REMARK    7  A    between atoms: O_9  and  C_10 
REMARK    8  A    between atoms: C_16  and  C_20 
ROOT
HETATM    1  C   UNK N   1      34.944  11.654  15.835  0.00  0.00     0.110 A 
HETATM    2  C   UNK N   1      35.788  12.773  16.032  0.00  0.00     0.072 A 
HETATM    3  C   UNK N   1      36.131  13.531  14.912  0.00  0.00     0.065 A 
HETATM    4  N   UNK N   1      36.805  14.695  14.839  0.00  0.00    -0.295 N 
HETATM    5  N   UNK N   1      36.770  15.138  13.585  0.00  0.00    -0.297 N 
ATOM      6  HN  UNK N   1      37.182  16.006  13.242  1.00  0.00     0.187 HD
HETATM    7  C   UNK N   1      36.089  14.227  12.842  0.00  0.00     0.071 A 
HETATM    8  C   UNK N   1      35.696  13.200  13.668  0.00  0.00     0.024 A 
HETATM    9  C   UNK N   1      34.919  12.077  13.425  0.00  0.00     0.061 A 
HETATM   10  C   UNK N   1      34.543  11.291  14.514  0.00  0.00     0.150 A 
HETATM   11  F   UNK N   1      33.767  10.205  14.283  0.00  0.00    -0.203 F 
HETATM   12  C   UNK N   1      37.397  15.428  15.944  0.00  0.00     0.178 C 
ENDROOT
BRANCH   1  13
HETATM   13  O   UNK N   1      34.491  10.980  16.916  0.00  0.00    -0.344 OA
BRANCH  13  14
HETATM   14  C   UNK N   1      35.332  10.498  17.900  0.00  0.00     0.203 C 
BRANCH  14  15
HETATM   15  C   UNK N   1      35.259  11.236  19.211  0.00  0.00    -0.003 C 
HETATM   16  C   UNK N   1      34.825  10.766  20.390  0.00  0.00     0.001 C 
BRANCH  16  17
HETATM   17  C   UNK N   1      34.307   9.377  20.637  0.00  0.00     0.299 C 
BRANCH  17  18
HETATM   18  N   UNK N   1      32.923   9.386  21.111  0.00  0.00     0.090 N 
HETATM   19  C   UNK N   1      32.767  10.470  22.069  0.00  0.00     0.310 C 
BRANCH  18  20
HETATM   20  C   UNK N   1      32.518   8.107  21.706  0.00  0.00     0.299 C 
BRANCH  20  21
HETATM   21  C   UNK N   1      31.439   7.411  20.934  0.00  0.00    -0.007 C 
HETATM   22  C   UNK N   1      30.703   8.100  20.069  0.00  0.00     0.008 C 
ENDBRANCH  20  21
ENDBRANCH  18  20
ENDBRANCH  17  18
ENDBRANCH  16  17
ENDBRANCH  14  15
ENDBRANCH  13  14
ENDBRANCH   1  13
BRANCH   7  23
HETATM   23  C   UNK N   1      35.650  14.398  11.444  0.00  0.00    -0.007 A 
HETATM   24  C   UNK N   1      36.513  14.094  10.383  0.00  0.00     0.015 A 
HETATM   25  C   UNK N   1      36.170  14.465   9.076  0.00  0.00     0.020 A 
HETATM   26  C   UNK N   1      34.963  15.131   8.828  0.00  0.00     0.011 A 
HETATM   27  C   UNK N   1      34.087  15.401   9.876  0.00  0.00     0.020 A 
HETATM   28 Br   UNK N   1      34.527  15.723   7.073  0.00  0.00    -0.051 Br
HETATM   29  C   UNK N   1      34.434  15.046  11.175  0.00  0.00     0.015 A 
ENDBRANCH   7  23
TORSDOF 8
ENDMDL
MODEL 8
REMARK VINA RESULT:      -6.7     13.281     16.887
REMARK  8 active torsions:
REMARK  status: ('A' for Active; 'I' for Inactive)
REMARK    1  A    between atoms: C_2  and  C_3 
REMARK    2  A    between atoms: C_3  and  N_4 
REMARK    3  A    between atoms: N_4  and  C_5 
REMARK    4  A    between atoms: C_5  and  C_6 
REMARK    5  A    between atoms: C_7  and  C_8 
REMARK    6  A    between atoms: C_8  and  O_9 
REMARK    7  A    between atoms: O_9  and  C_10 
REMARK    8  A    between atoms: C_16  and  C_20 
ROOT
HETATM    1  C   UNK N   1      26.853  26.392  -4.093  0.00  0.00     0.110 A 
HETATM    2  C   UNK N   1      27.986  27.241  -4.086  0.00  0.00     0.072 A 
HETATM    3  C   UNK N   1      29.241  26.646  -3.953  0.00  0.00     0.065 A 
HETATM    4  N   UNK N   1      30.465  27.199  -4.038  0.00  0.00    -0.295 N 
HETATM    5  N   UNK N   1      31.382  26.236  -3.999  0.00  0.00    -0.297 N 
ATOM      6  HN  UNK N   1      32.392  26.362  -4.063  1.00  0.00     0.187 HD
HETATM    7  C   UNK N   1      30.731  25.051  -3.855  0.00  0.00     0.071 A 
HETATM    8  C   UNK N   1      29.379  25.302  -3.808  0.00  0.00     0.024 A 
HETATM    9  C   UNK N   1      28.292  24.444  -3.749  0.00  0.00     0.061 A 
HETATM   10  C   UNK N   1      27.016  24.990  -3.886  0.00  0.00     0.150 A 
HETATM   11  F   UNK N   1      25.952  24.152  -3.849  0.00  0.00    -0.203 F 
HETATM   12  C   UNK N   1      30.772  28.605  -4.244  0.00  0.00     0.178 C 
ENDROOT
BRANCH   1  13
HETATM   13  O   UNK N   1      25.639  26.928  -4.352  0.00  0.00    -0.344 OA
BRANCH  13  14
HETATM   14  C   UNK N   1      24.909  26.609  -5.480  0.00  0.00     0.203 C 
BRANCH  14  15
HETATM   15  C   UNK N   1      25.644  26.793  -6.781  0.00  0.00    -0.003 C 
HETATM   16  C   UNK N   1      26.120  25.837  -7.593  0.00  0.00     0.001 C 
BRANCH  16  17
HETATM   17  C   UNK N   1      26.014  24.358  -7.353  0.00  0.00     0.299 C 
BRANCH  17  18
HETATM   18  N   UNK N   1      26.488  23.583  -8.500  0.00  0.00     0.090 N 
HETATM   19  C   UNK N   1      25.660  22.394  -8.629  0.00  0.00     0.310 C 
BRANCH  18  20
HETATM   20  C   UNK N   1      27.905  23.218  -8.393  0.00  0.00     0.299 C 
BRANCH  20  21
HETATM   21  C   UNK N   1      28.385  23.118  -6.977  0.00  0.00    -0.007 C 
HETATM   22  C   UNK N   1      28.967  21.999  -6.559  0.00  0.00     0.008 C 
ENDBRANCH  20  21
ENDBRANCH  18  20
ENDBRANCH  17  18
ENDBRANCH  16  17
ENDBRANCH  14  15
ENDBRANCH  13  14
ENDBRANCH   1  13
BRANCH   7  23
HETATM   23  C   UNK N   1      31.336  23.709  -3.952  0.00  0.00    -0.007 A 
HETATM   24  C   UNK N   1      31.247  22.808  -2.884  0.00  0.00     0.015 A 
HETATM   25  C   UNK N   1      32.006  21.630  -2.899  0.00  0.00     0.020 A 
HETATM   26  C   UNK N   1      32.846  21.349  -3.984  0.00  0.00     0.011 A 
HETATM   27  C   UNK N   1      32.907  22.226  -5.064  0.00  0.00     0.020 A 
HETATM   28 Br   UNK N   1      33.952  19.801  -3.977  0.00  0.00    -0.051 Br
HETATM   29  C   UNK N   1      32.165  23.402  -5.042  0.00  0.00     0.015 A 
ENDBRANCH   7  23
TORSDOF 8
ENDMDL
MODEL 9
REMARK VINA RESULT:      -6.6      9.132     11.420
REMARK  8 active torsions:
REMARK  status: ('A' for Active; 'I' for Inactive)
REMARK    1  A    between atoms: C_2  and  C_3 
REMARK    2  A    between atoms: C_3  and  N_4 
REMARK    3  A    between atoms: N_4  and  C_5 
REMARK    4  A    between atoms: C_5  and  C_6 
REMARK    5  A    between atoms: C_7  and  C_8 
REMARK    6  A    between atoms: C_8  and  O_9 
REMARK    7  A    between atoms: O_9  and  C_10 
REMARK    8  A    between atoms: C_16  and  C_20 
ROOT
HETATM    1  C   UNK N   1      35.823  13.817  17.026  0.00  0.00     0.110 A 
HETATM    2  C   UNK N   1      34.951  12.875  16.429  0.00  0.00     0.072 A 
HETATM    3  C   UNK N   1      35.030  12.706  15.046  0.00  0.00     0.065 A 
HETATM    4  N   UNK N   1      34.415  11.805  14.257  0.00  0.00    -0.295 N 
HETATM    5  N   UNK N   1      34.898  11.908  13.022  0.00  0.00    -0.297 N 
ATOM      6  HN  UNK N   1      34.629  11.337  12.220  1.00  0.00     0.187 HD
HETATM    7  C   UNK N   1      35.814  12.912  13.018  0.00  0.00     0.071 A 
HETATM    8  C   UNK N   1      35.892  13.433  14.289  0.00  0.00     0.024 A 
HETATM    9  C   UNK N   1      36.718  14.407  14.827  0.00  0.00     0.061 A 
HETATM   10  C   UNK N   1      36.682  14.610  16.206  0.00  0.00     0.150 A 
HETATM   11  F   UNK N   1      37.502  15.547  16.740  0.00  0.00    -0.203 F 
HETATM   12  C   UNK N   1      33.451  10.799  14.672  0.00  0.00     0.178 C 
ENDROOT
BRANCH   1  13
HETATM   13  O   UNK N   1      35.859  13.908  18.375  0.00  0.00    -0.344 OA
BRANCH  13  14
HETATM   14  C   UNK N   1      35.073  13.123  19.196  0.00  0.00     0.203 C 
BRANCH  14  15
HETATM   15  C   UNK N   1      35.792  11.968  19.841  0.00  0.00    -0.003 C 
HETATM   16  C   UNK N   1      35.674  10.664  19.546  0.00  0.00     0.001 C 
BRANCH  16  17
HETATM   17  C   UNK N   1      34.774  10.088  18.490  0.00  0.00     0.299 C 
BRANCH  17  18
HETATM   18  N   UNK N   1      35.418   8.999  17.757  0.00  0.00     0.090 N 
HETATM   19  C   UNK N   1      35.288   7.775  18.533  0.00  0.00     0.310 C 
BRANCH  18  20
HETATM   20  C   UNK N   1      36.828   9.273  17.456  0.00  0.00     0.299 C 
BRANCH  20  21
HETATM   21  C   UNK N   1      37.056   9.711  16.041  0.00  0.00    -0.007 C 
HETATM   22  C   UNK N   1      36.519   9.017  15.044  0.00  0.00     0.008 C 
ENDBRANCH  20  21
ENDBRANCH  18  20
ENDBRANCH  17  18
ENDBRANCH  16  17
ENDBRANCH  14  15
ENDBRANCH  13  14
ENDBRANCH   1  13
BRANCH   7  23
HETATM   23  C   UNK N   1      36.730  13.249  11.911  0.00  0.00    -0.007 A 
HETATM   24  C   UNK N   1      36.463  14.338  11.072  0.00  0.00     0.015 A 
HETATM   25  C   UNK N   1      37.212  14.517   9.901  0.00  0.00     0.020 A 
HETATM   26  C   UNK N   1      38.230  13.613   9.573  0.00  0.00     0.011 A 
HETATM   27  C   UNK N   1      38.520  12.550  10.424  0.00  0.00     0.020 A 
HETATM   28 Br   UNK N   1      39.192  13.789   7.940  0.00  0.00    -0.051 Br
HETATM   29  C   UNK N   1      37.768  12.365  11.579  0.00  0.00     0.015 A 
ENDBRANCH   7  23
TORSDOF 8
ENDMDL
