REMARK  0 active torsions:
REMARK  status: ('A' for Active; 'I' for Inactive)
ROOT
HETATM    1  C   UNK N   1       3.173  -0.981   0.504  0.00  0.00     0.047 C 
HETATM    2  C   UNK N   1       4.627  -0.689   0.120  0.00  0.00     0.087 C 
HETATM    3  C   UNK N   1       4.977   0.760  -0.058  0.00  0.00     0.150 C 
HETATM    4  C   UNK N   1       3.940   1.805  -0.097  0.00  0.00     0.057 C 
HETATM    5  C   UNK N   1       2.641   1.524   0.013  0.00  0.00    -0.048 C 
HETATM    6  C   UNK N   1       1.656   2.671  -0.005  0.00  0.00     0.040 C 
HETATM    7  C   UNK N   1       0.264   2.261   0.493  0.00  0.00     0.014 C 
HETATM    8  C   UNK N   1      -0.142   0.949  -0.165  0.00  0.00     0.025 C 
HETATM    9  C   UNK N   1       0.851  -0.153   0.213  0.00  0.00    -0.047 C 
HETATM   10  C   UNK N   1       2.175   0.120   0.225  0.00  0.00    -0.045 C 
HETATM   11  C   UNK N   1       0.349  -1.535   0.521  0.00  0.00     0.005 C 
HETATM   12  C   UNK N   1      -0.942  -1.870   0.332  0.00  0.00    -0.014 C 
HETATM   13  C   UNK N   1      -1.874  -0.883  -0.322  0.00  0.00     0.009 C 
HETATM   14  C   UNK N   1      -1.571   0.516   0.211  0.00  0.00     0.009 C 
HETATM   15  C   UNK N   1      -2.732   1.354  -0.316  0.00  0.00     0.009 C 
HETATM   16  C   UNK N   1      -3.911   0.361  -0.424  0.00  0.00     0.039 C 
HETATM   17  C   UNK N   1      -3.364  -1.003   0.018  0.00  0.00     0.065 C 
HETATM   18  C   UNK N   1      -1.658  -0.960  -1.847  0.00  0.00     0.023 C 
HETATM   19  C   UNK N   1      -4.066  -2.162  -0.675  0.00  0.00     0.047 C 
HETATM   20  O   UNK N   1       6.144   1.075  -0.200  0.00  0.00    -0.293 OA
HETATM   21  O   UNK N   1      -3.552  -1.131   1.399  0.00  0.00    -0.389 OA
HETATM   22  H   UNK N   1      -3.694  -1.062   2.356  0.00  0.00     0.210 HD
ENDROOT
TORSDOF 0
