MODEL 1
REMARK VINA RESULT:      -8.0      0.000      0.000
REMARK  0 active torsions:
REMARK  status: ('A' for Active; 'I' for Inactive)
ROOT
HETATM    1  C   UNK N   1      34.553   9.200  18.150  0.00  0.00     0.047 C 
HETATM    2  C   UNK N   1      34.750   8.687  19.580  0.00  0.00     0.087 C 
HETATM    3  C   UNK N   1      34.912   9.742  20.636  0.00  0.00     0.150 C 
HETATM    4  C   UNK N   1      35.109  11.159  20.286  0.00  0.00     0.057 C 
HETATM    5  C   UNK N   1      35.163  11.580  19.022  0.00  0.00    -0.048 C 
HETATM    6  C   UNK N   1      35.334  13.060  18.767  0.00  0.00     0.040 C 
HETATM    7  C   UNK N   1      35.014  13.450  17.318  0.00  0.00     0.014 C 
HETATM    8  C   UNK N   1      35.691  12.470  16.370  0.00  0.00     0.025 C 
HETATM    9  C   UNK N   1      35.162  11.055  16.618  0.00  0.00    -0.047 C 
HETATM   10  C   UNK N   1      34.984  10.625  17.887  0.00  0.00    -0.045 C 
HETATM   11  C   UNK N   1      34.893  10.145  15.453  0.00  0.00     0.005 C 
HETATM   12  C   UNK N   1      35.242  10.490  14.199  0.00  0.00    -0.014 C 
HETATM   13  C   UNK N   1      36.033  11.753  13.972  0.00  0.00     0.009 C 
HETATM   14  C   UNK N   1      35.495  12.849  14.890  0.00  0.00     0.009 C 
HETATM   15  C   UNK N   1      36.187  14.109  14.379  0.00  0.00     0.009 C 
HETATM   16  C   UNK N   1      36.427  13.839  12.876  0.00  0.00     0.039 C 
HETATM   17  C   UNK N   1      35.888  12.428  12.603  0.00  0.00     0.065 C 
HETATM   18  C   UNK N   1      37.515  11.448  14.272  0.00  0.00     0.023 C 
HETATM   19  C   UNK N   1      36.641  11.725  11.483  0.00  0.00     0.047 C 
HETATM   20  O   UNK N   1      34.907   9.413  21.808  0.00  0.00    -0.293 OA
HETATM   21  O   UNK N   1      34.541  12.530  12.237  0.00  0.00    -0.389 OA
HETATM   22  H   UNK N   1      33.612  12.742  12.054  0.00  0.00     0.210 HD
ENDROOT
TORSDOF 0
ENDMDL
MODEL 2
REMARK VINA RESULT:      -7.8     22.205     25.217
REMARK  0 active torsions:
REMARK  status: ('A' for Active; 'I' for Inactive)
ROOT
HETATM    1  C   UNK N   1      31.060  20.924  -5.625  0.00  0.00     0.047 C 
HETATM    2  C   UNK N   1      32.489  20.433  -5.369  0.00  0.00     0.087 C 
HETATM    3  C   UNK N   1      33.007  20.632  -3.975  0.00  0.00     0.150 C 
HETATM    4  C   UNK N   1      32.283  21.456  -2.992  0.00  0.00     0.057 C 
HETATM    5  C   UNK N   1      31.140  22.076  -3.287  0.00  0.00    -0.048 C 
HETATM    6  C   UNK N   1      30.455  22.872  -2.199  0.00  0.00     0.040 C 
HETATM    7  C   UNK N   1      29.001  23.215  -2.546  0.00  0.00     0.014 C 
HETATM    8  C   UNK N   1      28.931  23.736  -3.976  0.00  0.00     0.025 C 
HETATM    9  C   UNK N   1      29.419  22.659  -4.947  0.00  0.00    -0.047 C 
HETATM   10  C   UNK N   1      30.512  21.926  -4.635  0.00  0.00    -0.045 C 
HETATM   11  C   UNK N   1      28.708  22.458  -6.256  0.00  0.00     0.005 C 
HETATM   12  C   UNK N   1      27.739  23.300  -6.663  0.00  0.00    -0.014 C 
HETATM   13  C   UNK N   1      27.450  24.540  -5.857  0.00  0.00     0.009 C 
HETATM   14  C   UNK N   1      27.515  24.194  -4.371  0.00  0.00     0.009 C 
HETATM   15  C   UNK N   1      26.953  25.439  -3.693  0.00  0.00     0.009 C 
HETATM   16  C   UNK N   1      25.968  26.033  -4.725  0.00  0.00     0.039 C 
HETATM   17  C   UNK N   1      26.033  25.118  -5.955  0.00  0.00     0.065 C 
HETATM   18  C   UNK N   1      28.498  25.608  -6.230  0.00  0.00     0.023 C 
HETATM   19  C   UNK N   1      25.758  25.867  -7.251  0.00  0.00     0.047 C 
HETATM   20  O   UNK N   1      34.065  20.120  -3.657  0.00  0.00    -0.293 OA
HETATM   21  O   UNK N   1      25.072  24.111  -5.810  0.00  0.00    -0.389 OA
HETATM   22  H   UNK N   1      24.411  23.448  -5.556  0.00  0.00     0.210 HD
ENDROOT
TORSDOF 0
ENDMDL
MODEL 3
REMARK VINA RESULT:      -7.6      2.023      4.046
REMARK  0 active torsions:
REMARK  status: ('A' for Active; 'I' for Inactive)
ROOT
HETATM    1  C   UNK N   1      35.624  13.436  16.460  0.00  0.00     0.047 C 
HETATM    2  C   UNK N   1      35.067  12.802  17.739  0.00  0.00     0.087 C 
HETATM    3  C   UNK N   1      35.543  11.410  18.038  0.00  0.00     0.150 C 
HETATM    4  C   UNK N   1      36.300  10.624  17.048  0.00  0.00     0.057 C 
HETATM    5  C   UNK N   1      36.595  11.098  15.837  0.00  0.00    -0.048 C 
HETATM    6  C   UNK N   1      37.406  10.226  14.905  0.00  0.00     0.040 C 
HETATM    7  C   UNK N   1      37.982  11.009  13.718  0.00  0.00     0.014 C 
HETATM    8  C   UNK N   1      36.896  11.893  13.119  0.00  0.00     0.025 C 
HETATM    9  C   UNK N   1      36.403  12.895  14.167  0.00  0.00    -0.047 C 
HETATM   10  C   UNK N   1      36.199  12.483  15.438  0.00  0.00    -0.045 C 
HETATM   11  C   UNK N   1      36.108  14.311  13.762  0.00  0.00     0.005 C 
HETATM   12  C   UNK N   1      36.126  14.689  12.469  0.00  0.00    -0.014 C 
HETATM   13  C   UNK N   1      36.317  13.647  11.397  0.00  0.00     0.009 C 
HETATM   14  C   UNK N   1      37.370  12.642  11.861  0.00  0.00     0.009 C 
HETATM   15  C   UNK N   1      37.652  11.822  10.606  0.00  0.00     0.009 C 
HETATM   16  C   UNK N   1      37.383  12.795   9.436  0.00  0.00     0.039 C 
HETATM   17  C   UNK N   1      36.931  14.116  10.073  0.00  0.00     0.065 C 
HETATM   18  C   UNK N   1      34.958  12.960  11.150  0.00  0.00     0.023 C 
HETATM   19  C   UNK N   1      35.969  14.890   9.183  0.00  0.00     0.047 C 
HETATM   20  O   UNK N   1      35.274  10.910  19.114  0.00  0.00    -0.293 OA
HETATM   21  O   UNK N   1      38.062  14.909  10.301  0.00  0.00    -0.389 OA
HETATM   22  H   UNK N   1      38.926  15.322  10.450  0.00  0.00     0.210 HD
ENDROOT
TORSDOF 0
ENDMDL
MODEL 4
REMARK VINA RESULT:      -7.1     23.234     26.389
REMARK  0 active torsions:
REMARK  status: ('A' for Active; 'I' for Inactive)
ROOT
HETATM    1  C   UNK N   1      31.316  23.358  -4.185  0.00  0.00     0.047 C 
HETATM    2  C   UNK N   1      32.025  22.041  -3.852  0.00  0.00     0.087 C 
HETATM    3  C   UNK N   1      31.636  20.860  -4.692  0.00  0.00     0.150 C 
HETATM    4  C   UNK N   1      30.483  20.910  -5.608  0.00  0.00     0.057 C 
HETATM    5  C   UNK N   1      29.720  21.996  -5.733  0.00  0.00    -0.048 C 
HETATM    6  C   UNK N   1      28.579  21.960  -6.725  0.00  0.00     0.040 C 
HETATM    7  C   UNK N   1      28.026  23.356  -7.039  0.00  0.00     0.014 C 
HETATM    8  C   UNK N   1      27.830  24.126  -5.740  0.00  0.00     0.025 C 
HETATM    9  C   UNK N   1      29.173  24.288  -5.023  0.00  0.00    -0.047 C 
HETATM   10  C   UNK N   1      30.029  23.243  -4.970  0.00  0.00    -0.045 C 
HETATM   11  C   UNK N   1      29.505  25.588  -4.347  0.00  0.00     0.005 C 
HETATM   12  C   UNK N   1      28.590  26.571  -4.230  0.00  0.00    -0.014 C 
HETATM   13  C   UNK N   1      27.171  26.316  -4.667  0.00  0.00     0.009 C 
HETATM   14  C   UNK N   1      27.187  25.507  -5.963  0.00  0.00     0.009 C 
HETATM   15  C   UNK N   1      25.733  25.551  -6.424  0.00  0.00     0.009 C 
HETATM   16  C   UNK N   1      25.190  26.889  -5.873  0.00  0.00     0.039 C 
HETATM   17  C   UNK N   1      26.347  27.534  -5.099  0.00  0.00     0.065 C 
HETATM   18  C   UNK N   1      26.454  25.549  -3.538  0.00  0.00     0.023 C 
HETATM   19  C   UNK N   1      25.862  28.396  -3.942  0.00  0.00     0.047 C 
HETATM   20  O   UNK N   1      32.273  19.827  -4.595  0.00  0.00    -0.293 OA
HETATM   21  O   UNK N   1      27.075  28.342  -5.980  0.00  0.00    -0.389 OA
HETATM   22  H   UNK N   1      27.513  28.815  -6.705  0.00  0.00     0.210 HD
ENDROOT
TORSDOF 0
ENDMDL
MODEL 5
REMARK VINA RESULT:      -7.1     25.852     28.168
REMARK  0 active torsions:
REMARK  status: ('A' for Active; 'I' for Inactive)
ROOT
HETATM    1  C   UNK N   1      25.483  26.759  -6.274  0.00  0.00     0.047 C 
HETATM    2  C   UNK N   1      24.991  27.535  -5.049  0.00  0.00     0.087 C 
HETATM    3  C   UNK N   1      25.711  27.250  -3.763  0.00  0.00     0.150 C 
HETATM    4  C   UNK N   1      26.660  26.129  -3.642  0.00  0.00     0.057 C 
HETATM    5  C   UNK N   1      26.922  25.306  -4.657  0.00  0.00    -0.048 C 
HETATM    6  C   UNK N   1      27.937  24.205  -4.443  0.00  0.00     0.040 C 
HETATM    7  C   UNK N   1      28.415  23.579  -5.759  0.00  0.00     0.014 C 
HETATM    8  C   UNK N   1      27.212  23.290  -6.647  0.00  0.00     0.025 C 
HETATM    9  C   UNK N   1      26.477  24.593  -6.970  0.00  0.00    -0.047 C 
HETATM   10  C   UNK N   1      26.288  25.510  -5.995  0.00  0.00    -0.045 C 
HETATM   11  C   UNK N   1      25.935  24.820  -8.353  0.00  0.00     0.005 C 
HETATM   12  C   UNK N   1      25.950  23.844  -9.280  0.00  0.00    -0.014 C 
HETATM   13  C   UNK N   1      26.398  22.459  -8.890  0.00  0.00     0.009 C 
HETATM   14  C   UNK N   1      27.599  22.571  -7.953  0.00  0.00     0.009 C 
HETATM   15  C   UNK N   1      28.105  21.135  -7.853  0.00  0.00     0.009 C 
HETATM   16  C   UNK N   1      27.716  20.491  -9.203  0.00  0.00     0.039 C 
HETATM   17  C   UNK N   1      26.982  21.578 -10.000  0.00  0.00     0.065 C 
HETATM   18  C   UNK N   1      25.215  21.750  -8.200  0.00  0.00     0.023 C 
HETATM   19  C   UNK N   1      25.938  20.999 -10.944  0.00  0.00     0.047 C 
HETATM   20  O   UNK N   1      25.486  27.945  -2.790  0.00  0.00    -0.293 OA
HETATM   21  O   UNK N   1      27.923  22.286 -10.757  0.00  0.00    -0.389 OA
HETATM   22  H   UNK N   1      28.681  22.719 -11.179  0.00  0.00     0.210 HD
ENDROOT
TORSDOF 0
ENDMDL
MODEL 6
REMARK VINA RESULT:      -7.1      1.242      6.740
REMARK  0 active torsions:
REMARK  status: ('A' for Active; 'I' for Inactive)
ROOT
HETATM    1  C   UNK N   1      36.013  13.878  16.168  0.00  0.00     0.047 C 
HETATM    2  C   UNK N   1      36.642  14.464  14.900  0.00  0.00     0.087 C 
HETATM    3  C   UNK N   1      36.434  13.673  13.642  0.00  0.00     0.150 C 
HETATM    4  C   UNK N   1      35.873  12.311  13.671  0.00  0.00     0.057 C 
HETATM    5  C   UNK N   1      35.529  11.706  14.809  0.00  0.00    -0.048 C 
HETATM    6  C   UNK N   1      34.930  10.321  14.731  0.00  0.00     0.040 C 
HETATM    7  C   UNK N   1      34.249   9.898  16.039  0.00  0.00     0.014 C 
HETATM    8  C   UNK N   1      35.163  10.225  17.213  0.00  0.00     0.025 C 
HETATM    9  C   UNK N   1      35.422  11.733  17.267  0.00  0.00    -0.047 C 
HETATM   10  C   UNK N   1      35.663  12.408  16.121  0.00  0.00    -0.045 C 
HETATM   11  C   UNK N   1      35.451  12.436  18.594  0.00  0.00     0.005 C 
HETATM   12  C   UNK N   1      35.400  11.750  19.752  0.00  0.00    -0.014 C 
HETATM   13  C   UNK N   1      35.445  10.244  19.723  0.00  0.00     0.009 C 
HETATM   14  C   UNK N   1      34.592   9.744  18.559  0.00  0.00     0.009 C 
HETATM   15  C   UNK N   1      34.510   8.240  18.802  0.00  0.00     0.009 C 
HETATM   16  C   UNK N   1      34.623   8.087  20.336  0.00  0.00     0.039 C 
HETATM   17  C   UNK N   1      34.792   9.505  20.896  0.00  0.00     0.065 C 
HETATM   18  C   UNK N   1      36.918   9.814  19.563  0.00  0.00     0.023 C 
HETATM   19  C   UNK N   1      35.614   9.529  22.177  0.00  0.00     0.047 C 
HETATM   20  O   UNK N   1      36.762  14.158  12.575  0.00  0.00    -0.293 OA
HETATM   21  O   UNK N   1      33.524  10.029  21.172  0.00  0.00    -0.389 OA
HETATM   22  H   UNK N   1      32.592  10.282  21.262  0.00  0.00     0.210 HD
ENDROOT
TORSDOF 0
ENDMDL
MODEL 7
REMARK VINA RESULT:      -6.9      1.786      7.021
REMARK  0 active torsions:
REMARK  status: ('A' for Active; 'I' for Inactive)
ROOT
HETATM    1  C   UNK N   1      34.875  10.155  15.884  0.00  0.00     0.047 C 
HETATM    2  C   UNK N   1      34.674  11.166  14.751  0.00  0.00     0.087 C 
HETATM    3  C   UNK N   1      34.927  12.603  15.106  0.00  0.00     0.150 C 
HETATM    4  C   UNK N   1      35.119  13.031  16.502  0.00  0.00     0.057 C 
HETATM    5  C   UNK N   1      35.069  12.174  17.523  0.00  0.00    -0.048 C 
HETATM    6  C   UNK N   1      35.312  12.706  18.917  0.00  0.00     0.040 C 
HETATM    7  C   UNK N   1      35.594  11.592  19.933  0.00  0.00     0.014 C 
HETATM    8  C   UNK N   1      34.574  10.475  19.753  0.00  0.00     0.025 C 
HETATM    9  C   UNK N   1      34.689   9.886  18.345  0.00  0.00    -0.047 C 
HETATM   10  C   UNK N   1      34.855  10.714  17.289  0.00  0.00    -0.045 C 
HETATM   11  C   UNK N   1      34.570   8.402  18.146  0.00  0.00     0.005 C 
HETATM   12  C   UNK N   1      34.219   7.585  19.158  0.00  0.00    -0.014 C 
HETATM   13  C   UNK N   1      33.811   8.179  20.481  0.00  0.00     0.009 C 
HETATM   14  C   UNK N   1      34.729   9.358  20.801  0.00  0.00     0.009 C 
HETATM   15  C   UNK N   1      34.388   9.687  22.251  0.00  0.00     0.009 C 
HETATM   16  C   UNK N   1      33.939   8.341  22.861  0.00  0.00     0.039 C 
HETATM   17  C   UNK N   1      34.016   7.310  21.727  0.00  0.00     0.065 C 
HETATM   18  C   UNK N   1      32.341   8.630  20.369  0.00  0.00     0.023 C 
HETATM   19  C   UNK N   1      32.988   6.198  21.882  0.00  0.00     0.047 C 
HETATM   20  O   UNK N   1      34.948  13.437  14.220  0.00  0.00    -0.293 OA
HETATM   21  O   UNK N   1      35.293   6.738  21.732  0.00  0.00    -0.389 OA
HETATM   22  H   UNK N   1      36.222   6.470  21.817  0.00  0.00     0.210 HD
ENDROOT
TORSDOF 0
ENDMDL
MODEL 8
REMARK VINA RESULT:      -6.9     11.235     14.209
REMARK  0 active torsions:
REMARK  status: ('A' for Active; 'I' for Inactive)
ROOT
HETATM    1  C   UNK N   1      30.048  14.676   5.221  0.00  0.00     0.047 C 
HETATM    2  C   UNK N   1      31.390  13.939   5.280  0.00  0.00     0.087 C 
HETATM    3  C   UNK N   1      32.265  14.269   6.454  0.00  0.00     0.150 C 
HETATM    4  C   UNK N   1      31.959  15.396   7.351  0.00  0.00     0.057 C 
HETATM    5  C   UNK N   1      30.901  16.187   7.167  0.00  0.00    -0.048 C 
HETATM    6  C   UNK N   1      30.655  17.297   8.163  0.00  0.00     0.040 C 
HETATM    7  C   UNK N   1      29.240  17.882   8.057  0.00  0.00     0.014 C 
HETATM    8  C   UNK N   1      28.908  18.137   6.593  0.00  0.00     0.025 C 
HETATM    9  C   UNK N   1      28.947  16.821   5.812  0.00  0.00    -0.047 C 
HETATM   10  C   UNK N   1      29.942  15.936   6.049  0.00  0.00    -0.045 C 
HETATM   11  C   UNK N   1      27.910  16.546   4.761  0.00  0.00     0.005 C 
HETATM   12  C   UNK N   1      27.028  17.492   4.383  0.00  0.00    -0.014 C 
HETATM   13  C   UNK N   1      27.164  18.890   4.928  0.00  0.00     0.009 C 
HETATM   14  C   UNK N   1      27.537  18.814   6.407  0.00  0.00     0.009 C 
HETATM   15  C   UNK N   1      27.382  20.254   6.886  0.00  0.00     0.009 C 
HETATM   16  C   UNK N   1      26.288  20.852   5.973  0.00  0.00     0.039 C 
HETATM   17  C   UNK N   1      25.887  19.737   4.998  0.00  0.00     0.065 C 
HETATM   18  C   UNK N   1      28.252  19.617   4.113  0.00  0.00     0.023 C 
HETATM   19  C   UNK N   1      25.430  20.280   3.652  0.00  0.00     0.047 C 
HETATM   20  O   UNK N   1      33.265  13.605   6.653  0.00  0.00    -0.293 OA
HETATM   21  O   UNK N   1      24.835  19.007   5.564  0.00  0.00    -0.389 OA
HETATM   22  H   UNK N   1      24.155  18.563   6.093  0.00  0.00     0.210 HD
ENDROOT
TORSDOF 0
ENDMDL
MODEL 9
REMARK VINA RESULT:      -6.5      2.488      7.300
REMARK  0 active torsions:
REMARK  status: ('A' for Active; 'I' for Inactive)
ROOT
HETATM    1  C   UNK N   1      35.803  12.141   9.739  0.00  0.00     0.047 C 
HETATM    2  C   UNK N   1      35.368  12.794   8.423  0.00  0.00     0.087 C 
HETATM    3  C   UNK N   1      35.311  14.294   8.426  0.00  0.00     0.150 C 
HETATM    4  C   UNK N   1      35.432  15.069   9.672  0.00  0.00     0.057 C 
HETATM    5  C   UNK N   1      35.588  14.485  10.861  0.00  0.00    -0.048 C 
HETATM    6  C   UNK N   1      35.737  15.369  12.079  0.00  0.00     0.040 C 
HETATM    7  C   UNK N   1      36.271  14.607  13.299  0.00  0.00     0.014 C 
HETATM    8  C   UNK N   1      35.513  13.295  13.447  0.00  0.00     0.025 C 
HETATM    9  C   UNK N   1      35.725  12.427  12.204  0.00  0.00    -0.047 C 
HETATM   10  C   UNK N   1      35.689  12.999  10.979  0.00  0.00    -0.045 C 
HETATM   11  C   UNK N   1      35.926  10.946  12.354  0.00  0.00     0.005 C 
HETATM   12  C   UNK N   1      35.779  10.336  13.546  0.00  0.00    -0.014 C 
HETATM   13  C   UNK N   1      35.277  11.129  14.726  0.00  0.00     0.009 C 
HETATM   14  C   UNK N   1      35.925  12.512  14.707  0.00  0.00     0.009 C 
HETATM   15  C   UNK N   1      35.548  13.097  16.065  0.00  0.00     0.009 C 
HETATM   16  C   UNK N   1      35.411  11.869  16.993  0.00  0.00     0.039 C 
HETATM   17  C   UNK N   1      35.688  10.639  16.119  0.00  0.00     0.065 C 
HETATM   18  C   UNK N   1      33.742  11.228  14.616  0.00  0.00     0.023 C 
HETATM   19  C   UNK N   1      34.927   9.408  16.591  0.00  0.00     0.047 C 
HETATM   20  O   UNK N   1      35.135  14.882   7.375  0.00  0.00    -0.293 OA
HETATM   21  O   UNK N   1      37.058  10.359  16.165  0.00  0.00    -0.389 OA
HETATM   22  H   UNK N   1      38.024  10.315  16.245  0.00  0.00     0.210 HD
ENDROOT
TORSDOF 0
ENDMDL
