MODEL 1
REMARK VINA RESULT:      -8.2      0.000      0.000
REMARK  9 active torsions:
REMARK  status: ('A' for Active; 'I' for Inactive)
REMARK    1  A    between atoms: C_2  and  C_10 
REMARK    2  A    between atoms: C_5  and  O_20 
REMARK    3  A    between atoms: C_10  and  C_12 
REMARK    4  A    between atoms: O_20  and  C_21 
REMARK    5  A    between atoms: C_21  and  C_22 
REMARK    6  A    between atoms: C_22  and  C_23 
REMARK    7  A    between atoms: C_23  and  N_24 
REMARK    8  A    between atoms: N_24  and  C_25 
REMARK    9  A    between atoms: C_25  and  C_26 
ROOT
HETATM    1  O   UNK N   1      34.049  17.599   5.855  0.00  0.00    -0.305 OA
HETATM    2  C   UNK N   1      33.669  17.664   7.107  0.00  0.00     0.137 A 
HETATM    3  C   UNK N   1      32.288  17.456   7.173  0.00  0.00    -0.008 A 
HETATM    4  C   UNK N   1      31.861  17.252   5.859  0.00  0.00     0.040 A 
HETATM    5  C   UNK N   1      30.612  16.991   5.213  0.00  0.00     0.082 A 
HETATM    6  C   UNK N   1      30.617  16.894   3.808  0.00  0.00     0.038 A 
HETATM    7  C   UNK N   1      31.804  17.019   3.068  0.00  0.00     0.006 A 
HETATM    8  C   UNK N   1      33.019  17.250   3.716  0.00  0.00     0.038 A 
HETATM    9  C   UNK N   1      33.008  17.365   5.100  0.00  0.00     0.089 A 
HETATM   10  C   UNK N   1      31.494  17.491   8.429  0.00  0.00     0.052 C 
ENDROOT
BRANCH   5  11
HETATM   11  O   UNK N   1      29.418  16.809   5.829  0.00  0.00    -0.350 OA
BRANCH  11  12
HETATM   12  C   UNK N   1      28.604  17.802   6.302  0.00  0.00     0.177 C 
BRANCH  12  13
HETATM   13  C   UNK N   1      28.252  18.765   5.185  0.00  0.00     0.046 C 
BRANCH  13  14
HETATM   14  C   UNK N   1      27.669  20.043   5.761  0.00  0.00     0.116 C 
BRANCH  14  15
HETATM   15  N   UNK N   1      26.657  20.579   4.862  0.00  0.00    -0.417 N 
HETATM   16  H   UNK N   1      26.311  21.538   4.853  0.00  0.00     0.153 HD
BRANCH  15  17
HETATM   17  C   UNK N   1      26.229  19.505   3.980  0.00  0.00     0.154 C 
BRANCH  17  18
HETATM   18  C   UNK N   1      24.755  19.562   3.728  0.00  0.00    -0.025 A 
HETATM   19  C   UNK N   1      23.924  18.599   4.299  0.00  0.00     0.011 A 
HETATM   20  C   UNK N   1      22.550  18.635   4.055  0.00  0.00     0.018 A 
HETATM   21  C   UNK N   1      22.025  19.642   3.243  0.00  0.00     0.087 A 
HETATM   22  N   UNK N   1      22.847  20.580   2.698  0.00  0.00    -0.375 N 
HETATM   23  C   UNK N   1      24.187  20.558   2.919  0.00  0.00     0.096 A 
ATOM     24  HN  UNK N   1      22.449  21.313   2.112  1.00  0.00     0.164 HD
ENDBRANCH  17  18
ENDBRANCH  15  17
ENDBRANCH  14  15
ENDBRANCH  13  14
ENDBRANCH  12  13
ENDBRANCH  11  12
ENDBRANCH   5  11
BRANCH   2  25
HETATM   25  C   UNK N   1      34.577  17.932   8.264  0.00  0.00     0.250 C 
HETATM   26  O   UNK N   1      35.020  19.065   8.384  0.00  0.00    -0.281 OA
BRANCH  25  27
HETATM   27  C   UNK N   1      35.000  16.936   9.305  0.00  0.00     0.161 A 
HETATM   28  N   UNK N   1      35.375  15.640   9.151  0.00  0.00    -0.343 N 
HETATM   29  C   UNK N   1      35.489  14.807   7.971  0.00  0.00     0.157 C 
HETATM   30  C   UNK N   1      35.657  15.180  10.380  0.00  0.00     0.109 A 
HETATM   31  C   UNK N   1      35.451  16.204  11.279  0.00  0.00     0.107 A 
HETATM   32  N   UNK N   1      35.042  17.295  10.604  0.00  0.00    -0.347 N 
ATOM     33  HN  UNK N   1      34.812  18.209  10.995  1.00  0.00     0.167 HD
ENDBRANCH  25  27
ENDBRANCH   2  25
TORSDOF 9
ENDMDL
MODEL 2
REMARK VINA RESULT:      -8.0      1.962      3.471
REMARK  9 active torsions:
REMARK  status: ('A' for Active; 'I' for Inactive)
REMARK    1  A    between atoms: C_2  and  C_10 
REMARK    2  A    between atoms: C_5  and  O_20 
REMARK    3  A    between atoms: C_10  and  C_12 
REMARK    4  A    between atoms: O_20  and  C_21 
REMARK    5  A    between atoms: C_21  and  C_22 
REMARK    6  A    between atoms: C_22  and  C_23 
REMARK    7  A    between atoms: C_23  and  N_24 
REMARK    8  A    between atoms: N_24  and  C_25 
REMARK    9  A    between atoms: C_25  and  C_26 
ROOT
HETATM    1  O   UNK N   1      31.659  18.271   8.786  0.00  0.00    -0.305 OA
HETATM    2  C   UNK N   1      32.469  17.555   8.044  0.00  0.00     0.137 A 
HETATM    3  C   UNK N   1      31.710  16.798   7.146  0.00  0.00    -0.008 A 
HETATM    4  C   UNK N   1      30.373  17.117   7.399  0.00  0.00     0.040 A 
HETATM    5  C   UNK N   1      29.105  16.724   6.868  0.00  0.00     0.082 A 
HETATM    6  C   UNK N   1      27.955  17.274   7.464  0.00  0.00     0.038 A 
HETATM    7  C   UNK N   1      28.044  18.197   8.520  0.00  0.00     0.006 A 
HETATM    8  C   UNK N   1      29.292  18.588   9.010  0.00  0.00     0.038 A 
HETATM    9  C   UNK N   1      30.424  18.028   8.434  0.00  0.00     0.089 A 
HETATM   10  C   UNK N   1      32.283  15.839   6.166  0.00  0.00     0.052 C 
ENDROOT
BRANCH   5  11
HETATM   11  O   UNK N   1      28.904  15.878   5.827  0.00  0.00    -0.350 OA
BRANCH  11  12
HETATM   12  C   UNK N   1      27.738  15.218   5.548  0.00  0.00     0.177 C 
BRANCH  12  13
HETATM   13  C   UNK N   1      27.691  14.840   4.080  0.00  0.00     0.046 C 
BRANCH  13  14
HETATM   14  C   UNK N   1      26.331  15.182   3.497  0.00  0.00     0.116 C 
BRANCH  14  15
HETATM   15  N   UNK N   1      26.386  16.474   2.830  0.00  0.00    -0.417 N 
HETATM   16  H   UNK N   1      26.995  16.721   2.049  0.00  0.00     0.153 HD
BRANCH  15  17
HETATM   17  C   UNK N   1      25.419  17.351   3.472  0.00  0.00     0.154 C 
BRANCH  17  18
HETATM   18  C   UNK N   1      26.097  18.455   4.219  0.00  0.00    -0.025 A 
HETATM   19  C   UNK N   1      27.448  18.711   3.989  0.00  0.00     0.011 A 
HETATM   20  C   UNK N   1      28.093  19.728   4.694  0.00  0.00     0.018 A 
HETATM   21  C   UNK N   1      27.371  20.482   5.621  0.00  0.00     0.087 A 
HETATM   22  N   UNK N   1      26.051  20.226   5.832  0.00  0.00    -0.375 N 
HETATM   23  C   UNK N   1      25.408  19.236   5.159  0.00  0.00     0.096 A 
ATOM     24  HN  UNK N   1      25.535  20.788   6.508  1.00  0.00     0.164 HD
ENDBRANCH  17  18
ENDBRANCH  15  17
ENDBRANCH  14  15
ENDBRANCH  13  14
ENDBRANCH  12  13
ENDBRANCH  11  12
ENDBRANCH   5  11
BRANCH   2  25
HETATM   25  C   UNK N   1      33.959  17.552   8.162  0.00  0.00     0.250 C 
HETATM   26  O   UNK N   1      34.587  18.273   7.400  0.00  0.00    -0.281 OA
BRANCH  25  27
HETATM   27  C   UNK N   1      34.767  16.744   9.135  0.00  0.00     0.161 A 
HETATM   28  N   UNK N   1      35.378  15.544   8.957  0.00  0.00    -0.343 N 
HETATM   29  C   UNK N   1      35.453  14.667   7.806  0.00  0.00     0.157 C 
HETATM   30  C   UNK N   1      35.968  15.244  10.124  0.00  0.00     0.109 A 
HETATM   31  C   UNK N   1      35.712  16.267  11.011  0.00  0.00     0.107 A 
HETATM   32  N   UNK N   1      34.964  17.199  10.389  0.00  0.00    -0.347 N 
ATOM     33  HN  UNK N   1      34.616  18.072  10.786  1.00  0.00     0.167 HD
ENDBRANCH  25  27
ENDBRANCH   2  25
TORSDOF 9
ENDMDL
MODEL 3
REMARK VINA RESULT:      -7.7      1.576      2.820
REMARK  9 active torsions:
REMARK  status: ('A' for Active; 'I' for Inactive)
REMARK    1  A    between atoms: C_2  and  C_10 
REMARK    2  A    between atoms: C_5  and  O_20 
REMARK    3  A    between atoms: C_10  and  C_12 
REMARK    4  A    between atoms: O_20  and  C_21 
REMARK    5  A    between atoms: C_21  and  C_22 
REMARK    6  A    between atoms: C_22  and  C_23 
REMARK    7  A    between atoms: C_23  and  N_24 
REMARK    8  A    between atoms: N_24  and  C_25 
REMARK    9  A    between atoms: C_25  and  C_26 
ROOT
HETATM    1  O   UNK N   1      31.775  18.094   9.067  0.00  0.00    -0.305 OA
HETATM    2  C   UNK N   1      32.522  17.568   8.127  0.00  0.00     0.137 A 
HETATM    3  C   UNK N   1      31.696  17.105   7.098  0.00  0.00    -0.008 A 
HETATM    4  C   UNK N   1      30.386  17.399   7.487  0.00  0.00     0.040 A 
HETATM    5  C   UNK N   1      29.082  17.210   6.930  0.00  0.00     0.082 A 
HETATM    6  C   UNK N   1      27.982  17.629   7.702  0.00  0.00     0.038 A 
HETATM    7  C   UNK N   1      28.154  18.236   8.957  0.00  0.00     0.006 A 
HETATM    8  C   UNK N   1      29.435  18.435   9.475  0.00  0.00     0.038 A 
HETATM    9  C   UNK N   1      30.518  18.002   8.721  0.00  0.00     0.089 A 
HETATM   10  C   UNK N   1      32.186  16.416   5.876  0.00  0.00     0.052 C 
ENDROOT
BRANCH   5  11
HETATM   11  O   UNK N   1      28.803  16.678   5.714  0.00  0.00    -0.350 OA
BRANCH  11  12
HETATM   12  C   UNK N   1      28.982  17.302   4.510  0.00  0.00     0.177 C 
BRANCH  12  13
HETATM   13  C   UNK N   1      27.638  17.616   3.880  0.00  0.00     0.046 C 
BRANCH  13  14
HETATM   14  C   UNK N   1      26.584  16.648   4.390  0.00  0.00     0.116 C 
BRANCH  14  15
HETATM   15  N   UNK N   1      25.636  17.350   5.243  0.00  0.00    -0.417 N 
HETATM   16  H   UNK N   1      25.083  16.935   5.994  0.00  0.00     0.153 HD
BRANCH  15  17
HETATM   17  C   UNK N   1      25.618  18.747   4.838  0.00  0.00     0.154 C 
BRANCH  17  18
HETATM   18  C   UNK N   1      24.307  19.116   4.217  0.00  0.00    -0.025 A 
HETATM   19  C   UNK N   1      24.250  20.180   3.317  0.00  0.00     0.011 A 
HETATM   20  C   UNK N   1      23.029  20.542   2.746  0.00  0.00     0.018 A 
HETATM   21  C   UNK N   1      21.878  19.828   3.082  0.00  0.00     0.087 A 
HETATM   22  N   UNK N   1      21.949  18.787   3.956  0.00  0.00    -0.375 N 
HETATM   23  C   UNK N   1      23.127  18.423   4.527  0.00  0.00     0.096 A 
ATOM     24  HN  UNK N   1      21.101  18.271   4.188  1.00  0.00     0.164 HD
ENDBRANCH  17  18
ENDBRANCH  15  17
ENDBRANCH  14  15
ENDBRANCH  13  14
ENDBRANCH  12  13
ENDBRANCH  11  12
ENDBRANCH   5  11
BRANCH   2  25
HETATM   25  C   UNK N   1      34.013  17.474   8.171  0.00  0.00     0.250 C 
HETATM   26  O   UNK N   1      34.643  18.097   7.328  0.00  0.00    -0.281 OA
BRANCH  25  27
HETATM   27  C   UNK N   1      34.820  16.685   9.160  0.00  0.00     0.161 A 
HETATM   28  N   UNK N   1      35.450  15.492   8.997  0.00  0.00    -0.343 N 
HETATM   29  C   UNK N   1      35.552  14.608   7.854  0.00  0.00     0.157 C 
HETATM   30  C   UNK N   1      36.031  15.209  10.174  0.00  0.00     0.109 A 
HETATM   31  C   UNK N   1      35.750  16.235  11.050  0.00  0.00     0.107 A 
HETATM   32  N   UNK N   1      34.996  17.151  10.412  0.00  0.00    -0.347 N 
ATOM     33  HN  UNK N   1      34.631  18.023  10.798  1.00  0.00     0.167 HD
ENDBRANCH  25  27
ENDBRANCH   2  25
TORSDOF 9
ENDMDL
MODEL 4
REMARK VINA RESULT:      -7.6      2.207      2.657
REMARK  9 active torsions:
REMARK  status: ('A' for Active; 'I' for Inactive)
REMARK    1  A    between atoms: C_2  and  C_10 
REMARK    2  A    between atoms: C_5  and  O_20 
REMARK    3  A    between atoms: C_10  and  C_12 
REMARK    4  A    between atoms: O_20  and  C_21 
REMARK    5  A    between atoms: C_21  and  C_22 
REMARK    6  A    between atoms: C_22  and  C_23 
REMARK    7  A    between atoms: C_23  and  N_24 
REMARK    8  A    between atoms: N_24  and  C_25 
REMARK    9  A    between atoms: C_25  and  C_26 
ROOT
HETATM    1  O   UNK N   1      34.068  17.393   5.873  0.00  0.00    -0.305 OA
HETATM    2  C   UNK N   1      33.666  17.595   7.103  0.00  0.00     0.137 A 
HETATM    3  C   UNK N   1      32.271  17.521   7.142  0.00  0.00    -0.008 A 
HETATM    4  C   UNK N   1      31.858  17.250   5.835  0.00  0.00     0.040 A 
HETATM    5  C   UNK N   1      30.606  17.052   5.173  0.00  0.00     0.082 A 
HETATM    6  C   UNK N   1      30.635  16.840   3.781  0.00  0.00     0.038 A 
HETATM    7  C   UNK N   1      31.846  16.794   3.071  0.00  0.00     0.006 A 
HETATM    8  C   UNK N   1      33.062  16.965   3.737  0.00  0.00     0.038 A 
HETATM    9  C   UNK N   1      33.028  17.194   5.106  0.00  0.00     0.089 A 
HETATM   10  C   UNK N   1      31.454  17.731   8.365  0.00  0.00     0.052 C 
ENDROOT
BRANCH   5  11
HETATM   11  O   UNK N   1      29.385  17.032   5.764  0.00  0.00    -0.350 OA
BRANCH  11  12
HETATM   12  C   UNK N   1      28.688  18.128   6.194  0.00  0.00     0.177 C 
BRANCH  12  13
HETATM   13  C   UNK N   1      28.046  18.834   5.016  0.00  0.00     0.046 C 
BRANCH  13  14
HETATM   14  C   UNK N   1      26.942  17.973   4.429  0.00  0.00     0.116 C 
BRANCH  14  15
HETATM   15  N   UNK N   1      26.109  17.437   5.495  0.00  0.00    -0.417 N 
HETATM   16  H   UNK N   1      26.414  17.221   6.444  0.00  0.00     0.153 HD
BRANCH  15  17
HETATM   17  C   UNK N   1      24.764  17.265   4.968  0.00  0.00     0.154 C 
BRANCH  17  18
HETATM   18  C   UNK N   1      23.979  16.290   5.789  0.00  0.00    -0.025 A 
HETATM   19  C   UNK N   1      22.603  16.468   5.934  0.00  0.00     0.011 A 
HETATM   20  C   UNK N   1      21.866  15.573   6.711  0.00  0.00     0.018 A 
HETATM   21  C   UNK N   1      22.518  14.505   7.330  0.00  0.00     0.087 A 
HETATM   22  N   UNK N   1      23.859  14.339   7.174  0.00  0.00    -0.375 N 
HETATM   23  C   UNK N   1      24.595  15.204   6.426  0.00  0.00     0.096 A 
ATOM     24  HN  UNK N   1      24.322  13.552   7.627  1.00  0.00     0.164 HD
ENDBRANCH  17  18
ENDBRANCH  15  17
ENDBRANCH  14  15
ENDBRANCH  13  14
ENDBRANCH  12  13
ENDBRANCH  11  12
ENDBRANCH   5  11
BRANCH   2  25
HETATM   25  C   UNK N   1      34.567  17.873   8.263  0.00  0.00     0.250 C 
HETATM   26  O   UNK N   1      35.013  19.006   8.373  0.00  0.00    -0.281 OA
BRANCH  25  27
HETATM   27  C   UNK N   1      34.980  16.887   9.317  0.00  0.00     0.161 A 
HETATM   28  N   UNK N   1      35.366  15.592   9.179  0.00  0.00    -0.343 N 
HETATM   29  C   UNK N   1      35.504  14.752   8.007  0.00  0.00     0.157 C 
HETATM   30  C   UNK N   1      35.631  15.143  10.416  0.00  0.00     0.109 A 
HETATM   31  C   UNK N   1      35.404  16.171  11.304  0.00  0.00     0.107 A 
HETATM   32  N   UNK N   1      34.999  17.255  10.614  0.00  0.00    -0.347 N 
ATOM     33  HN  UNK N   1      34.756  18.170  10.995  1.00  0.00     0.167 HD
ENDBRANCH  25  27
ENDBRANCH   2  25
TORSDOF 9
ENDMDL
MODEL 5
REMARK VINA RESULT:      -7.4     11.631     14.436
REMARK  9 active torsions:
REMARK  status: ('A' for Active; 'I' for Inactive)
REMARK    1  A    between atoms: C_2  and  C_10 
REMARK    2  A    between atoms: C_5  and  O_20 
REMARK    3  A    between atoms: C_10  and  C_12 
REMARK    4  A    between atoms: O_20  and  C_21 
REMARK    5  A    between atoms: C_21  and  C_22 
REMARK    6  A    between atoms: C_22  and  C_23 
REMARK    7  A    between atoms: C_23  and  N_24 
REMARK    8  A    between atoms: N_24  and  C_25 
REMARK    9  A    between atoms: C_25  and  C_26 
ROOT
HETATM    1  O   UNK N   1      29.492  25.134  -5.793  0.00  0.00    -0.305 OA
HETATM    2  C   UNK N   1      30.114  25.378  -4.666  0.00  0.00     0.137 A 
HETATM    3  C   UNK N   1      30.057  26.750  -4.405  0.00  0.00    -0.008 A 
HETATM    4  C   UNK N   1      29.343  27.319  -5.463  0.00  0.00     0.040 A 
HETATM    5  C   UNK N   1      28.925  28.637  -5.829  0.00  0.00     0.082 A 
HETATM    6  C   UNK N   1      28.237  28.783  -7.048  0.00  0.00     0.038 A 
HETATM    7  C   UNK N   1      27.945  27.677  -7.863  0.00  0.00     0.006 A 
HETATM    8  C   UNK N   1      28.339  26.394  -7.479  0.00  0.00     0.038 A 
HETATM    9  C   UNK N   1      29.036  26.255  -6.286  0.00  0.00     0.089 A 
HETATM   10  C   UNK N   1      30.685  27.406  -3.228  0.00  0.00     0.052 C 
ENDROOT
BRANCH   5  11
HETATM   11  O   UNK N   1      29.114  29.765  -5.100  0.00  0.00    -0.350 OA
BRANCH  11  12
HETATM   12  C   UNK N   1      28.374  30.912  -5.196  0.00  0.00     0.177 C 
BRANCH  12  13
HETATM   13  C   UNK N   1      27.178  30.841  -4.267  0.00  0.00     0.046 C 
BRANCH  13  14
HETATM   14  C   UNK N   1      27.608  30.336  -2.900  0.00  0.00     0.116 C 
BRANCH  14  15
HETATM   15  N   UNK N   1      27.103  28.988  -2.686  0.00  0.00    -0.417 N 
HETATM   16  H   UNK N   1      27.478  28.304  -2.029  0.00  0.00     0.153 HD
BRANCH  15  17
HETATM   17  C   UNK N   1      25.968  28.790  -3.574  0.00  0.00     0.154 C 
BRANCH  17  18
HETATM   18  C   UNK N   1      25.920  27.386  -4.091  0.00  0.00    -0.025 A 
HETATM   19  C   UNK N   1      25.275  27.122  -5.299  0.00  0.00     0.011 A 
HETATM   20  C   UNK N   1      25.210  25.813  -5.779  0.00  0.00     0.018 A 
HETATM   21  C   UNK N   1      25.800  24.783  -5.043  0.00  0.00     0.087 A 
HETATM   22  N   UNK N   1      26.432  25.057  -3.870  0.00  0.00    -0.375 N 
HETATM   23  C   UNK N   1      26.500  26.323  -3.382  0.00  0.00     0.096 A 
ATOM     24  HN  UNK N   1      26.863  24.296  -3.345  1.00  0.00     0.164 HD
ENDBRANCH  17  18
ENDBRANCH  15  17
ENDBRANCH  14  15
ENDBRANCH  13  14
ENDBRANCH  12  13
ENDBRANCH  11  12
ENDBRANCH   5  11
BRANCH   2  25
HETATM   25  C   UNK N   1      30.782  24.345  -3.817  0.00  0.00     0.250 C 
HETATM   26  O   UNK N   1      30.453  24.281  -2.641  0.00  0.00    -0.281 OA
BRANCH  25  27
HETATM   27  C   UNK N   1      31.827  23.368  -4.272  0.00  0.00     0.161 A 
HETATM   28  N   UNK N   1      31.810  22.011  -4.230  0.00  0.00    -0.343 N 
HETATM   29  C   UNK N   1      30.813  21.077  -3.747  0.00  0.00     0.157 C 
HETATM   30  C   UNK N   1      32.977  21.602  -4.754  0.00  0.00     0.109 A 
HETATM   31  C   UNK N   1      33.701  22.718  -5.113  0.00  0.00     0.107 A 
HETATM   32  N   UNK N   1      32.979  23.815  -4.811  0.00  0.00    -0.347 N 
ATOM     33  HN  UNK N   1      33.249  24.788  -4.960  1.00  0.00     0.167 HD
ENDBRANCH  25  27
ENDBRANCH   2  25
TORSDOF 9
ENDMDL
MODEL 6
REMARK VINA RESULT:      -7.2      2.331      8.786
REMARK  9 active torsions:
REMARK  status: ('A' for Active; 'I' for Inactive)
REMARK    1  A    between atoms: C_2  and  C_10 
REMARK    2  A    between atoms: C_5  and  O_20 
REMARK    3  A    between atoms: C_10  and  C_12 
REMARK    4  A    between atoms: O_20  and  C_21 
REMARK    5  A    between atoms: C_21  and  C_22 
REMARK    6  A    between atoms: C_22  and  C_23 
REMARK    7  A    between atoms: C_23  and  N_24 
REMARK    8  A    between atoms: N_24  and  C_25 
REMARK    9  A    between atoms: C_25  and  C_26 
ROOT
HETATM    1  O   UNK N   1      30.478  17.792   7.772  0.00  0.00    -0.305 OA
HETATM    2  C   UNK N   1      29.694  17.536   6.754  0.00  0.00     0.137 A 
HETATM    3  C   UNK N   1      30.480  17.166   5.658  0.00  0.00    -0.008 A 
HETATM    4  C   UNK N   1      31.806  17.211   6.097  0.00  0.00     0.040 A 
HETATM    5  C   UNK N   1      33.089  16.962   5.517  0.00  0.00     0.082 A 
HETATM    6  C   UNK N   1      34.220  17.178   6.327  0.00  0.00     0.038 A 
HETATM    7  C   UNK N   1      34.097  17.595   7.663  0.00  0.00     0.006 A 
HETATM    8  C   UNK N   1      32.835  17.810   8.221  0.00  0.00     0.038 A 
HETATM    9  C   UNK N   1      31.722  17.616   7.413  0.00  0.00     0.089 A 
HETATM   10  C   UNK N   1      29.941  16.835   4.314  0.00  0.00     0.052 C 
ENDROOT
BRANCH   5  11
HETATM   11  O   UNK N   1      33.322  16.517   4.256  0.00  0.00    -0.350 OA
BRANCH  11  12
HETATM   12  C   UNK N   1      33.809  15.283   3.923  0.00  0.00     0.177 C 
BRANCH  12  13
HETATM   13  C   UNK N   1      32.864  14.200   4.406  0.00  0.00     0.046 C 
BRANCH  13  14
HETATM   14  C   UNK N   1      33.647  12.961   4.803  0.00  0.00     0.116 C 
BRANCH  14  15
HETATM   15  N   UNK N   1      34.099  13.078   6.182  0.00  0.00    -0.417 N 
HETATM   16  H   UNK N   1      35.046  12.907   6.519  0.00  0.00     0.153 HD
BRANCH  15  17
HETATM   17  C   UNK N   1      32.961  13.482   6.992  0.00  0.00     0.154 C 
BRANCH  17  18
HETATM   18  C   UNK N   1      33.401  14.034   8.312  0.00  0.00    -0.025 A 
HETATM   19  C   UNK N   1      34.762  14.115   8.602  0.00  0.00     0.011 A 
HETATM   20  C   UNK N   1      35.181  14.613   9.836  0.00  0.00     0.018 A 
HETATM   21  C   UNK N   1      34.226  15.031  10.765  0.00  0.00     0.087 A 
HETATM   22  N   UNK N   1      32.901  14.954  10.466  0.00  0.00    -0.375 N 
HETATM   23  C   UNK N   1      32.474  14.466   9.272  0.00  0.00     0.096 A 
ATOM     24  HN  UNK N   1      32.215  15.267  11.152  1.00  0.00     0.164 HD
ENDBRANCH  17  18
ENDBRANCH  15  17
ENDBRANCH  14  15
ENDBRANCH  13  14
ENDBRANCH  12  13
ENDBRANCH  11  12
ENDBRANCH   5  11
BRANCH   2  25
HETATM   25  C   UNK N   1      28.203  17.642   6.774  0.00  0.00     0.250 C 
HETATM   26  O   UNK N   1      27.574  16.672   7.172  0.00  0.00    -0.281 OA
BRANCH  25  27
HETATM   27  C   UNK N   1      27.396  18.834   6.351  0.00  0.00     0.161 A 
HETATM   28  N   UNK N   1      26.688  19.031   5.209  0.00  0.00    -0.343 N 
HETATM   29  C   UNK N   1      26.480  18.186   4.050  0.00  0.00     0.157 C 
HETATM   30  C   UNK N   1      26.146  20.255   5.306  0.00  0.00     0.109 A 
HETATM   31  C   UNK N   1      26.529  20.799   6.513  0.00  0.00     0.107 A 
HETATM   32  N   UNK N   1      27.307  19.910   7.159  0.00  0.00    -0.347 N 
ATOM     33  HN  UNK N   1      27.741  20.025   8.075  1.00  0.00     0.167 HD
ENDBRANCH  25  27
ENDBRANCH   2  25
TORSDOF 9
ENDMDL
MODEL 7
REMARK VINA RESULT:      -7.1     11.078     14.171
REMARK  9 active torsions:
REMARK  status: ('A' for Active; 'I' for Inactive)
REMARK    1  A    between atoms: C_2  and  C_10 
REMARK    2  A    between atoms: C_5  and  O_20 
REMARK    3  A    between atoms: C_10  and  C_12 
REMARK    4  A    between atoms: O_20  and  C_21 
REMARK    5  A    between atoms: C_21  and  C_22 
REMARK    6  A    between atoms: C_22  and  C_23 
REMARK    7  A    between atoms: C_23  and  N_24 
REMARK    8  A    between atoms: N_24  and  C_25 
REMARK    9  A    between atoms: C_25  and  C_26 
ROOT
HETATM    1  O   UNK N   1      28.051  23.507  -3.318  0.00  0.00    -0.305 OA
HETATM    2  C   UNK N   1      29.338  23.752  -3.341  0.00  0.00     0.137 A 
HETATM    3  C   UNK N   1      29.568  24.894  -4.114  0.00  0.00    -0.008 A 
HETATM    4  C   UNK N   1      28.314  25.327  -4.554  0.00  0.00     0.040 A 
HETATM    5  C   UNK N   1      27.822  26.401  -5.359  0.00  0.00     0.082 A 
HETATM    6  C   UNK N   1      26.436  26.447  -5.601  0.00  0.00     0.038 A 
HETATM    7  C   UNK N   1      25.562  25.495  -5.051  0.00  0.00     0.006 A 
HETATM    8  C   UNK N   1      26.057  24.466  -4.246  0.00  0.00     0.038 A 
HETATM    9  C   UNK N   1      27.427  24.411  -4.026  0.00  0.00     0.089 A 
HETATM   10  C   UNK N   1      30.913  25.459  -4.396  0.00  0.00     0.052 C 
ENDROOT
BRANCH   5  11
HETATM   11  O   UNK N   1      28.566  27.397  -5.902  0.00  0.00    -0.350 OA
BRANCH  11  12
HETATM   12  C   UNK N   1      28.101  28.380  -6.732  0.00  0.00     0.177 C 
BRANCH  12  13
HETATM   13  C   UNK N   1      29.075  28.606  -7.871  0.00  0.00     0.046 C 
BRANCH  13  14
HETATM   14  C   UNK N   1      28.895  27.535  -8.933  0.00  0.00     0.116 C 
BRANCH  14  15
HETATM   15  N   UNK N   1      27.556  26.969  -8.846  0.00  0.00    -0.417 N 
HETATM   16  H   UNK N   1      26.764  27.376  -8.348  0.00  0.00     0.153 HD
BRANCH  15  17
HETATM   17  C   UNK N   1      27.548  25.723  -9.596  0.00  0.00     0.154 C 
BRANCH  17  18
HETATM   18  C   UNK N   1      26.916  24.618  -8.810  0.00  0.00    -0.025 A 
HETATM   19  C   UNK N   1      27.717  23.790  -8.025  0.00  0.00     0.011 A 
HETATM   20  C   UNK N   1      27.137  22.746  -7.301  0.00  0.00     0.018 A 
HETATM   21  C   UNK N   1      25.757  22.550  -7.370  0.00  0.00     0.087 A 
HETATM   22  N   UNK N   1      24.986  23.370  -8.135  0.00  0.00    -0.375 N 
HETATM   23  C   UNK N   1      25.533  24.387  -8.851  0.00  0.00     0.096 A 
ATOM     24  HN  UNK N   1      23.979  23.218  -8.171  1.00  0.00     0.164 HD
ENDBRANCH  17  18
ENDBRANCH  15  17
ENDBRANCH  14  15
ENDBRANCH  13  14
ENDBRANCH  12  13
ENDBRANCH  11  12
ENDBRANCH   5  11
BRANCH   2  25
HETATM   25  C   UNK N   1      30.379  22.926  -2.657  0.00  0.00     0.250 C 
HETATM   26  O   UNK N   1      30.520  23.080  -1.452  0.00  0.00    -0.281 OA
BRANCH  25  27
HETATM   27  C   UNK N   1      31.274  21.913  -3.311  0.00  0.00     0.161 A 
HETATM   28  N   UNK N   1      31.121  21.271  -4.498  0.00  0.00    -0.343 N 
HETATM   29  C   UNK N   1      30.079  21.343  -5.501  0.00  0.00     0.157 C 
HETATM   30  C   UNK N   1      32.188  20.467  -4.632  0.00  0.00     0.109 A 
HETATM   31  C   UNK N   1      32.987  20.625  -3.521  0.00  0.00     0.107 A 
HETATM   32  N   UNK N   1      32.413  21.527  -2.701  0.00  0.00    -0.347 N 
ATOM     33  HN  UNK N   1      32.767  21.853  -1.802  1.00  0.00     0.167 HD
ENDBRANCH  25  27
ENDBRANCH   2  25
TORSDOF 9
ENDMDL
MODEL 8
REMARK VINA RESULT:      -7.1      3.027      3.935
REMARK  9 active torsions:
REMARK  status: ('A' for Active; 'I' for Inactive)
REMARK    1  A    between atoms: C_2  and  C_10 
REMARK    2  A    between atoms: C_5  and  O_20 
REMARK    3  A    between atoms: C_10  and  C_12 
REMARK    4  A    between atoms: O_20  and  C_21 
REMARK    5  A    between atoms: C_21  and  C_22 
REMARK    6  A    between atoms: C_22  and  C_23 
REMARK    7  A    between atoms: C_23  and  N_24 
REMARK    8  A    between atoms: N_24  and  C_25 
REMARK    9  A    between atoms: C_25  and  C_26 
ROOT
HETATM    1  O   UNK N   1      31.675  18.125   9.021  0.00  0.00    -0.305 OA
HETATM    2  C   UNK N   1      32.469  17.625   8.106  0.00  0.00     0.137 A 
HETATM    3  C   UNK N   1      31.693  17.137   7.050  0.00  0.00    -0.008 A 
HETATM    4  C   UNK N   1      30.362  17.387   7.396  0.00  0.00     0.040 A 
HETATM    5  C   UNK N   1      29.084  17.157   6.798  0.00  0.00     0.082 A 
HETATM    6  C   UNK N   1      27.946  17.539   7.533  0.00  0.00     0.038 A 
HETATM    7  C   UNK N   1      28.057  18.149   8.793  0.00  0.00     0.006 A 
HETATM    8  C   UNK N   1      29.314  18.389   9.353  0.00  0.00     0.038 A 
HETATM    9  C   UNK N   1      30.434  17.993   8.634  0.00  0.00     0.089 A 
HETATM   10  C   UNK N   1      32.244  16.467   5.844  0.00  0.00     0.052 C 
ENDROOT
BRANCH   5  11
HETATM   11  O   UNK N   1      28.862  16.618   5.572  0.00  0.00    -0.350 OA
BRANCH  11  12
HETATM   12  C   UNK N   1      29.023  17.262   4.376  0.00  0.00     0.177 C 
BRANCH  12  13
HETATM   13  C   UNK N   1      27.672  17.550   3.752  0.00  0.00     0.046 C 
BRANCH  13  14
HETATM   14  C   UNK N   1      26.676  16.472   4.143  0.00  0.00     0.116 C 
BRANCH  14  15
HETATM   15  N   UNK N   1      25.852  16.116   2.997  0.00  0.00    -0.417 N 
HETATM   16  H   UNK N   1      26.144  16.136   2.020  0.00  0.00     0.153 HD
BRANCH  15  17
HETATM   17  C   UNK N   1      24.542  15.725   3.492  0.00  0.00     0.154 C 
BRANCH  17  18
HETATM   18  C   UNK N   1      23.802  14.902   2.484  0.00  0.00    -0.025 A 
HETATM   19  C   UNK N   1      24.436  14.540   1.296  0.00  0.00     0.011 A 
HETATM   20  C   UNK N   1      23.748  13.788   0.343  0.00  0.00     0.018 A 
HETATM   21  C   UNK N   1      22.430  13.402   0.597  0.00  0.00     0.087 A 
HETATM   22  N   UNK N   1      21.826  13.756   1.764  0.00  0.00    -0.375 N 
HETATM   23  C   UNK N   1      22.478  14.494   2.701  0.00  0.00     0.096 A 
ATOM     24  HN  UNK N   1      20.865  13.463   1.938  1.00  0.00     0.164 HD
ENDBRANCH  17  18
ENDBRANCH  15  17
ENDBRANCH  14  15
ENDBRANCH  13  14
ENDBRANCH  12  13
ENDBRANCH  11  12
ENDBRANCH   5  11
BRANCH   2  25
HETATM   25  C   UNK N   1      33.960  17.580   8.198  0.00  0.00     0.250 C 
HETATM   26  O   UNK N   1      34.594  18.307   7.448  0.00  0.00    -0.281 OA
BRANCH  25  27
HETATM   27  C   UNK N   1      34.762  16.723   9.134  0.00  0.00     0.161 A 
HETATM   28  N   UNK N   1      35.322  15.505   8.917  0.00  0.00    -0.343 N 
HETATM   29  C   UNK N   1      35.333  14.648   7.749  0.00  0.00     0.157 C 
HETATM   30  C   UNK N   1      35.931  15.160  10.062  0.00  0.00     0.109 A 
HETATM   31  C   UNK N   1      35.738  16.175  10.974  0.00  0.00     0.107 A 
HETATM   32  N   UNK N   1      35.010  17.146  10.390  0.00  0.00    -0.347 N 
ATOM     33  HN  UNK N   1      34.707  18.024  10.813  1.00  0.00     0.167 HD
ENDBRANCH  25  27
ENDBRANCH   2  25
TORSDOF 9
ENDMDL
MODEL 9
REMARK VINA RESULT:      -7.1      5.231     11.173
REMARK  9 active torsions:
REMARK  status: ('A' for Active; 'I' for Inactive)
REMARK    1  A    between atoms: C_2  and  C_10 
REMARK    2  A    between atoms: C_5  and  O_20 
REMARK    3  A    between atoms: C_10  and  C_12 
REMARK    4  A    between atoms: O_20  and  C_21 
REMARK    5  A    between atoms: C_21  and  C_22 
REMARK    6  A    between atoms: C_22  and  C_23 
REMARK    7  A    between atoms: C_23  and  N_24 
REMARK    8  A    between atoms: N_24  and  C_25 
REMARK    9  A    between atoms: C_25  and  C_26 
ROOT
HETATM    1  O   UNK N   1      35.124  16.011  11.245  0.00  0.00    -0.305 OA
HETATM    2  C   UNK N   1      35.045  16.073   9.939  0.00  0.00     0.137 A 
HETATM    3  C   UNK N   1      35.573  14.898   9.397  0.00  0.00    -0.008 A 
HETATM    4  C   UNK N   1      35.975  14.113  10.482  0.00  0.00     0.040 A 
HETATM    5  C   UNK N   1      36.579  12.829  10.653  0.00  0.00     0.082 A 
HETATM    6  C   UNK N   1      36.867  12.418  11.969  0.00  0.00     0.038 A 
HETATM    7  C   UNK N   1      36.548  13.223  13.075  0.00  0.00     0.006 A 
HETATM    8  C   UNK N   1      35.936  14.465  12.891  0.00  0.00     0.038 A 
HETATM    9  C   UNK N   1      35.672  14.875  11.591  0.00  0.00     0.089 A 
HETATM   10  C   UNK N   1      35.683  14.621   7.941  0.00  0.00     0.052 C 
ENDROOT
BRANCH   5  11
HETATM   11  O   UNK N   1      36.889  11.954   9.664  0.00  0.00    -0.350 OA
BRANCH  11  12
HETATM   12  C   UNK N   1      35.993  11.348   8.825  0.00  0.00     0.177 C 
BRANCH  12  13
HETATM   13  C   UNK N   1      35.252  10.247   9.560  0.00  0.00     0.046 C 
BRANCH  13  14
HETATM   14  C   UNK N   1      33.807  10.654   9.789  0.00  0.00     0.116 C 
BRANCH  14  15
HETATM   15  N   UNK N   1      33.489  10.583  11.207  0.00  0.00    -0.417 N 
HETATM   16  H   UNK N   1      32.829  11.181  11.705  0.00  0.00     0.153 HD
BRANCH  15  17
HETATM   17  C   UNK N   1      34.278   9.509  11.790  0.00  0.00     0.154 C 
BRANCH  17  18
HETATM   18  C   UNK N   1      34.530   9.746  13.246  0.00  0.00    -0.025 A 
HETATM   19  C   UNK N   1      33.778  10.704  13.925  0.00  0.00     0.011 A 
HETATM   20  C   UNK N   1      34.018  10.944  15.278  0.00  0.00     0.018 A 
HETATM   21  C   UNK N   1      35.008  10.213  15.938  0.00  0.00     0.087 A 
HETATM   22  N   UNK N   1      35.730   9.276  15.265  0.00  0.00    -0.375 N 
HETATM   23  C   UNK N   1      35.515   9.033  13.945  0.00  0.00     0.096 A 
ATOM     24  HN  UNK N   1      36.446   8.747  15.761  1.00  0.00     0.164 HD
ENDBRANCH  17  18
ENDBRANCH  15  17
ENDBRANCH  14  15
ENDBRANCH  13  14
ENDBRANCH  12  13
ENDBRANCH  11  12
ENDBRANCH   5  11
BRANCH   2  25
HETATM   25  C   UNK N   1      34.488  17.227   9.169  0.00  0.00     0.250 C 
HETATM   26  O   UNK N   1      35.163  18.244   9.111  0.00  0.00    -0.281 OA
BRANCH  25  27
HETATM   27  C   UNK N   1      33.170  17.257   8.452  0.00  0.00     0.161 A 
HETATM   28  N   UNK N   1      32.918  17.265   7.117  0.00  0.00    -0.343 N 
HETATM   29  C   UNK N   1      33.805  17.248   5.973  0.00  0.00     0.157 C 
HETATM   30  C   UNK N   1      31.582  17.297   6.985  0.00  0.00     0.109 A 
HETATM   31  C   UNK N   1      31.026  17.308   8.246  0.00  0.00     0.107 A 
HETATM   32  N   UNK N   1      32.020  17.283   9.156  0.00  0.00    -0.347 N 
ATOM     33  HN  UNK N   1      31.923  17.283  10.171  1.00  0.00     0.167 HD
ENDBRANCH  25  27
ENDBRANCH   2  25
TORSDOF 9
ENDMDL
