REMARK  9 active torsions:
REMARK  status: ('A' for Active; 'I' for Inactive)
REMARK    1  A    between atoms: C_2  and  C_10 
REMARK    2  A    between atoms: C_5  and  O_20 
REMARK    3  A    between atoms: C_10  and  C_12 
REMARK    4  A    between atoms: O_20  and  C_21 
REMARK    5  A    between atoms: C_21  and  C_22 
REMARK    6  A    between atoms: C_22  and  C_23 
REMARK    7  A    between atoms: C_23  and  N_24 
REMARK    8  A    between atoms: N_24  and  C_25 
REMARK    9  A    between atoms: C_25  and  C_26 
ROOT
HETATM    1  O   UNK N   1      -3.313   1.400   0.007  0.00  0.00    -0.305 OA
HETATM    2  C   UNK N   1      -2.009   1.528  -0.011  0.00  0.00     0.137 A 
HETATM    3  C   UNK N   1      -1.429   0.256  -0.020  0.00  0.00    -0.008 A 
HETATM    4  C   UNK N   1      -2.488  -0.656  -0.013  0.00  0.00     0.040 A 
HETATM    5  C   UNK N   1      -2.618  -2.080  -0.015  0.00  0.00     0.082 A 
HETATM    6  C   UNK N   1      -3.920  -2.612   0.043  0.00  0.00     0.038 A 
HETATM    7  C   UNK N   1      -5.052  -1.781   0.073  0.00  0.00     0.006 A 
HETATM    8  C   UNK N   1      -4.908  -0.392   0.050  0.00  0.00     0.038 A 
HETATM    9  C   UNK N   1      -3.622   0.130   0.013  0.00  0.00     0.089 A 
HETATM   10  C   UNK N   1       0.035   0.002  -0.007  0.00  0.00     0.052 C 
ENDROOT
BRANCH   5  11
HETATM   11  O   UNK N   1      -1.600  -2.974  -0.086  0.00  0.00    -0.350 OA
BRANCH  11  12
HETATM   12  C   UNK N   1      -0.342  -2.716  -0.558  0.00  0.00     0.177 C 
BRANCH  12  13
HETATM   13  C   UNK N   1       0.689  -3.454   0.274  0.00  0.00     0.046 C 
BRANCH  13  14
HETATM   14  C   UNK N   1       1.803  -2.507   0.685  0.00  0.00     0.116 C 
BRANCH  14  15
HETATM   15  N   UNK N   1       2.414  -1.915  -0.496  0.00  0.00    -0.417 N 
HETATM   16  H   UNK N   1       2.189  -2.141  -1.465  0.00  0.00     0.153 HD
BRANCH  15  17
HETATM   17  C   UNK N   1       3.401  -0.944  -0.050  0.00  0.00     0.154 C 
BRANCH  17  18
HETATM   18  C   UNK N   1       4.772  -1.542  -0.006  0.00  0.00    -0.025 A 
HETATM   19  C   UNK N   1       5.885  -0.703   0.035  0.00  0.00     0.011 A 
HETATM   20  C   UNK N   1       7.168  -1.252   0.059  0.00  0.00     0.018 A 
HETATM   21  C   UNK N   1       7.319  -2.640   0.047  0.00  0.00     0.087 A 
HETATM   22  N   UNK N   1       6.224  -3.447   0.014  0.00  0.00    -0.375 N 
HETATM   23  C   UNK N   1       4.967  -2.931  -0.016  0.00  0.00     0.096 A 
ATOM     24  HN  UNK N   1       6.349  -4.459   0.011  1.00  0.00     0.164 HD
ENDBRANCH  17  18
ENDBRANCH  15  17
ENDBRANCH  14  15
ENDBRANCH  13  14
ENDBRANCH  12  13
ENDBRANCH  11  12
ENDBRANCH   5  11
BRANCH   2  25
HETATM   25  C   UNK N   1      -1.277   2.831  -0.008  0.00  0.00     0.250 C 
HETATM   26  O   UNK N   1      -0.055   2.792  -0.012  0.00  0.00    -0.281 OA
BRANCH  25  27
HETATM   27  C   UNK N   1      -1.902   4.196  -0.003  0.00  0.00     0.161 A 
HETATM   28  N   UNK N   1      -3.216   4.539  -0.001  0.00  0.00    -0.343 N 
HETATM   29  C   UNK N   1      -4.419   3.732  -0.004  0.00  0.00     0.157 C 
HETATM   30  C   UNK N   1      -3.256   5.881   0.002  0.00  0.00     0.109 A 
HETATM   31  C   UNK N   1      -1.960   6.349   0.002  0.00  0.00     0.107 A 
HETATM   32  N   UNK N   1      -1.121   5.295  -0.001  0.00  0.00    -0.347 N 
ATOM     33  HN  UNK N   1      -0.101   5.322  -0.001  1.00  0.00     0.167 HD
ENDBRANCH  25  27
ENDBRANCH   2  25
TORSDOF 9
