MODEL 1
REMARK VINA RESULT:      -6.4      0.000      0.000
REMARK  5 active torsions:
REMARK  status: ('A' for Active; 'I' for Inactive)
REMARK    1  A    between atoms: O_1  and  C_2 
REMARK    2  A    between atoms: C_5  and  C_6 
REMARK    3  A    between atoms: C_7  and  C_8 
REMARK    4  A    between atoms: C_10  and  O_11 
REMARK    5  A    between atoms: C_13  and  O_14 
ROOT
HETATM    1  C   UNK N   1      35.729  13.723  13.275  0.00  0.00    -0.031 A 
HETATM    2  C   UNK N   1      34.969  12.877  12.463  0.00  0.00     0.048 A 
HETATM    3  C   UNK N   1      34.785  13.183  11.113  0.00  0.00     0.069 A 
HETATM    4  C   UNK N   1      35.361  14.336  10.571  0.00  0.00     0.073 A 
HETATM    5  C   UNK N   1      36.122  15.185  11.381  0.00  0.00     0.069 A 
HETATM    6  C   UNK N   1      36.306  14.880  12.729  0.00  0.00     0.048 A 
ENDROOT
BRANCH   1   7
HETATM    7  C   UNK N   1      35.908  13.382  14.689  0.00  0.00     0.012 C 
HETATM    8  C   UNK N   1      34.907  12.888  15.423  0.00  0.00     0.012 C 
BRANCH   8   9
HETATM    9  C   UNK N   1      35.085  12.547  16.836  0.00  0.00    -0.036 A 
HETATM   10  C   UNK N   1      35.037  13.534  17.833  0.00  0.00     0.014 A 
HETATM   11  C   UNK N   1      35.209  13.185  19.172  0.00  0.00     0.037 A 
HETATM   12  C   UNK N   1      35.430  11.850  19.521  0.00  0.00     0.065 A 
HETATM   13  C   UNK N   1      35.479  10.864  18.531  0.00  0.00     0.037 A 
HETATM   14  C   UNK N   1      35.306  11.213  17.189  0.00  0.00     0.014 A 
BRANCH  12  15
HETATM   15  O   UNK N   1      35.596  11.514  20.810  0.00  0.00    -0.361 OA
HETATM   16  H   UNK N   1      35.897  10.657  21.036  0.00  0.00     0.217 HD
ENDBRANCH  12  15
ENDBRANCH   8   9
ENDBRANCH   1   7
BRANCH   3  17
HETATM   17  O   UNK N   1      34.054  12.368  10.335  0.00  0.00    -0.361 OA
HETATM   18  H   UNK N   1      33.912  12.583   9.434  0.00  0.00     0.217 HD
ENDBRANCH   3  17
BRANCH   5  19
HETATM   19  O   UNK N   1      36.677  16.293  10.865  0.00  0.00    -0.361 OA
HETATM   20  H   UNK N   1      37.000  16.963  11.435  0.00  0.00     0.217 HD
ENDBRANCH   5  19
TORSDOF 5
ENDMDL
MODEL 2
REMARK VINA RESULT:      -6.3      0.237      2.023
REMARK  5 active torsions:
REMARK  status: ('A' for Active; 'I' for Inactive)
REMARK    1  A    between atoms: O_1  and  C_2 
REMARK    2  A    between atoms: C_5  and  C_6 
REMARK    3  A    between atoms: C_7  and  C_8 
REMARK    4  A    between atoms: C_10  and  O_11 
REMARK    5  A    between atoms: C_13  and  O_14 
ROOT
HETATM    1  C   UNK N   1      35.637  13.746  13.292  0.00  0.00    -0.031 A 
HETATM    2  C   UNK N   1      36.256  14.868  12.736  0.00  0.00     0.048 A 
HETATM    3  C   UNK N   1      36.166  15.108  11.363  0.00  0.00     0.069 A 
HETATM    4  C   UNK N   1      35.455  14.226  10.543  0.00  0.00     0.073 A 
HETATM    5  C   UNK N   1      34.835  13.102  11.097  0.00  0.00     0.069 A 
HETATM    6  C   UNK N   1      34.925  12.862  12.468  0.00  0.00     0.048 A 
ENDROOT
BRANCH   1   7
HETATM    7  C   UNK N   1      35.745  13.515  14.735  0.00  0.00     0.012 C 
HETATM    8  C   UNK N   1      35.175  12.459  15.321  0.00  0.00     0.012 C 
BRANCH   8   9
HETATM    9  C   UNK N   1      35.283  12.227  16.763  0.00  0.00    -0.036 A 
HETATM   10  C   UNK N   1      35.071  13.265  17.683  0.00  0.00     0.014 A 
HETATM   11  C   UNK N   1      35.179  13.020  19.052  0.00  0.00     0.037 A 
HETATM   12  C   UNK N   1      35.500  11.738  19.507  0.00  0.00     0.065 A 
HETATM   13  C   UNK N   1      35.712  10.702  18.594  0.00  0.00     0.037 A 
HETATM   14  C   UNK N   1      35.604  10.946  17.222  0.00  0.00     0.014 A 
BRANCH  12  15
HETATM   15  O   UNK N   1      35.604  11.503  20.824  0.00  0.00    -0.361 OA
HETATM   16  H   UNK N   1      35.339  10.676  21.175  0.00  0.00     0.217 HD
ENDBRANCH  12  15
ENDBRANCH   8   9
ENDBRANCH   1   7
BRANCH   3  17
HETATM   17  O   UNK N   1      36.762  16.188  10.831  0.00  0.00    -0.361 OA
HETATM   18  H   UNK N   1      37.215  16.793  11.385  0.00  0.00     0.217 HD
ENDBRANCH   3  17
BRANCH   5  19
HETATM   19  O   UNK N   1      34.151  12.253  10.314  0.00  0.00    -0.361 OA
HETATM   20  H   UNK N   1      34.002  12.464   9.414  0.00  0.00     0.217 HD
ENDBRANCH   5  19
TORSDOF 5
ENDMDL
MODEL 3
REMARK VINA RESULT:      -6.1     20.279     23.643
REMARK  5 active torsions:
REMARK  status: ('A' for Active; 'I' for Inactive)
REMARK    1  A    between atoms: O_1  and  C_2 
REMARK    2  A    between atoms: C_5  and  C_6 
REMARK    3  A    between atoms: C_7  and  C_8 
REMARK    4  A    between atoms: C_10  and  O_11 
REMARK    5  A    between atoms: C_13  and  O_14 
ROOT
HETATM    1  C   UNK N   1      30.062  23.392  -3.715  0.00  0.00    -0.031 A 
HETATM    2  C   UNK N   1      29.709  22.594  -4.807  0.00  0.00     0.048 A 
HETATM    3  C   UNK N   1      30.296  21.338  -4.974  0.00  0.00     0.069 A 
HETATM    4  C   UNK N   1      31.239  20.877  -4.049  0.00  0.00     0.073 A 
HETATM    5  C   UNK N   1      31.594  21.673  -2.956  0.00  0.00     0.069 A 
HETATM    6  C   UNK N   1      31.008  22.927  -2.789  0.00  0.00     0.048 A 
ENDROOT
BRANCH   1   7
HETATM    7  C   UNK N   1      29.433  24.706  -3.561  0.00  0.00     0.012 C 
HETATM    8  C   UNK N   1      28.295  25.016  -4.187  0.00  0.00     0.012 C 
BRANCH   8   9
HETATM    9  C   UNK N   1      27.665  26.329  -4.033  0.00  0.00    -0.036 A 
HETATM   10  C   UNK N   1      26.312  26.448  -3.677  0.00  0.00     0.014 A 
HETATM   11  C   UNK N   1      25.734  27.710  -3.536  0.00  0.00     0.037 A 
HETATM   12  C   UNK N   1      26.504  28.856  -3.750  0.00  0.00     0.065 A 
HETATM   13  C   UNK N   1      27.851  28.742  -4.104  0.00  0.00     0.037 A 
HETATM   14  C   UNK N   1      28.431  27.479  -4.245  0.00  0.00     0.014 A 
BRANCH  12  15
HETATM   15  O   UNK N   1      25.947  30.070  -3.614  0.00  0.00    -0.361 OA
HETATM   16  H   UNK N   1      26.471  30.840  -3.714  0.00  0.00     0.217 HD
ENDBRANCH  12  15
ENDBRANCH   8   9
ENDBRANCH   1   7
BRANCH   3  17
HETATM   17  O   UNK N   1      29.955  20.573  -6.024  0.00  0.00    -0.361 OA
HETATM   18  H   UNK N   1      30.534  20.498  -6.756  0.00  0.00     0.217 HD
ENDBRANCH   3  17
BRANCH   5  19
HETATM   19  O   UNK N   1      32.499  21.234  -2.066  0.00  0.00    -0.361 OA
HETATM   20  H   UNK N   1      32.453  20.355  -1.748  0.00  0.00     0.217 HD
ENDBRANCH   5  19
TORSDOF 5
ENDMDL
MODEL 4
REMARK VINA RESULT:      -6.1     14.522     17.950
REMARK  5 active torsions:
REMARK  status: ('A' for Active; 'I' for Inactive)
REMARK    1  A    between atoms: O_1  and  C_2 
REMARK    2  A    between atoms: C_5  and  C_6 
REMARK    3  A    between atoms: C_7  and  C_8 
REMARK    4  A    between atoms: C_10  and  O_11 
REMARK    5  A    between atoms: C_13  and  O_14 
ROOT
HETATM    1  C   UNK N   1      25.619  19.682   4.142  0.00  0.00    -0.031 A 
HETATM    2  C   UNK N   1      26.075  20.656   5.034  0.00  0.00     0.048 A 
HETATM    3  C   UNK N   1      27.401  20.637   5.471  0.00  0.00     0.069 A 
HETATM    4  C   UNK N   1      28.274  19.644   5.017  0.00  0.00     0.073 A 
HETATM    5  C   UNK N   1      27.820  18.668   4.125  0.00  0.00     0.069 A 
HETATM    6  C   UNK N   1      26.496  18.687   3.688  0.00  0.00     0.048 A 
ENDROOT
BRANCH   1   7
HETATM    7  C   UNK N   1      24.223  19.722   3.697  0.00  0.00     0.012 C 
HETATM    8  C   UNK N   1      23.377  18.721   3.953  0.00  0.00     0.012 C 
BRANCH   8   9
HETATM    9  C   UNK N   1      21.982  18.760   3.508  0.00  0.00    -0.036 A 
HETATM   10  C   UNK N   1      21.436  19.917   2.933  0.00  0.00     0.014 A 
HETATM   11  C   UNK N   1      20.104  19.931   2.517  0.00  0.00     0.037 A 
HETATM   12  C   UNK N   1      19.314  18.789   2.674  0.00  0.00     0.065 A 
HETATM   13  C   UNK N   1      19.854  17.635   3.247  0.00  0.00     0.037 A 
HETATM   14  C   UNK N   1      21.188  17.620   3.664  0.00  0.00     0.014 A 
BRANCH  12  15
HETATM   15  O   UNK N   1      18.033  18.803   2.274  0.00  0.00    -0.361 OA
HETATM   16  H   UNK N   1      17.592  19.619   2.143  0.00  0.00     0.217 HD
ENDBRANCH  12  15
ENDBRANCH   8   9
ENDBRANCH   1   7
BRANCH   3  17
HETATM   17  O   UNK N   1      27.837  21.574   6.328  0.00  0.00    -0.361 OA
HETATM   18  H   UNK N   1      28.755  21.737   6.418  0.00  0.00     0.217 HD
ENDBRANCH   3  17
BRANCH   5  19
HETATM   19  O   UNK N   1      28.655  17.712   3.686  0.00  0.00    -0.361 OA
HETATM   20  H   UNK N   1      28.372  17.110   3.027  0.00  0.00     0.217 HD
ENDBRANCH   5  19
TORSDOF 5
ENDMDL
MODEL 5
REMARK VINA RESULT:      -6.0     20.290     23.731
REMARK  5 active torsions:
REMARK  status: ('A' for Active; 'I' for Inactive)
REMARK    1  A    between atoms: O_1  and  C_2 
REMARK    2  A    between atoms: C_5  and  C_6 
REMARK    3  A    between atoms: C_7  and  C_8 
REMARK    4  A    between atoms: C_10  and  O_11 
REMARK    5  A    between atoms: C_13  and  O_14 
ROOT
HETATM    1  C   UNK N   1      29.969  23.364  -3.698  0.00  0.00    -0.031 A 
HETATM    2  C   UNK N   1      30.924  22.940  -2.771  0.00  0.00     0.048 A 
HETATM    3  C   UNK N   1      31.568  21.713  -2.943  0.00  0.00     0.069 A 
HETATM    4  C   UNK N   1      31.259  20.907  -4.043  0.00  0.00     0.073 A 
HETATM    5  C   UNK N   1      30.304  21.330  -4.973  0.00  0.00     0.069 A 
HETATM    6  C   UNK N   1      29.660  22.555  -4.801  0.00  0.00     0.048 A 
ENDROOT
BRANCH   1   7
HETATM    7  C   UNK N   1      29.305  24.655  -3.497  0.00  0.00     0.012 C 
HETATM    8  C   UNK N   1      28.389  25.114  -4.354  0.00  0.00     0.012 C 
BRANCH   8   9
HETATM    9  C   UNK N   1      27.726  26.404  -4.154  0.00  0.00    -0.036 A 
HETATM   10  C   UNK N   1      26.417  26.477  -3.651  0.00  0.00     0.014 A 
HETATM   11  C   UNK N   1      25.805  27.717  -3.468  0.00  0.00     0.037 A 
HETATM   12  C   UNK N   1      26.498  28.888  -3.788  0.00  0.00     0.065 A 
HETATM   13  C   UNK N   1      27.800  28.820  -4.289  0.00  0.00     0.037 A 
HETATM   14  C   UNK N   1      28.414  27.578  -4.472  0.00  0.00     0.014 A 
BRANCH  12  15
HETATM   15  O   UNK N   1      25.908  30.081  -3.612  0.00  0.00    -0.361 OA
HETATM   16  H   UNK N   1      25.040  30.226  -3.931  0.00  0.00     0.217 HD
ENDBRANCH  12  15
ENDBRANCH   8   9
ENDBRANCH   1   7
BRANCH   3  17
HETATM   17  O   UNK N   1      32.486  21.308  -2.050  0.00  0.00    -0.361 OA
HETATM   18  H   UNK N   1      33.213  21.860  -1.842  0.00  0.00     0.217 HD
ENDBRANCH   3  17
BRANCH   5  19
HETATM   19  O   UNK N   1      30.005  20.560  -6.031  0.00  0.00    -0.361 OA
HETATM   20  H   UNK N   1      30.689  20.233  -6.580  0.00  0.00     0.217 HD
ENDBRANCH   5  19
TORSDOF 5
ENDMDL
MODEL 6
REMARK VINA RESULT:      -5.9     14.491     17.843
REMARK  5 active torsions:
REMARK  status: ('A' for Active; 'I' for Inactive)
REMARK    1  A    between atoms: O_1  and  C_2 
REMARK    2  A    between atoms: C_5  and  C_6 
REMARK    3  A    between atoms: C_7  and  C_8 
REMARK    4  A    between atoms: C_10  and  O_11 
REMARK    5  A    between atoms: C_13  and  O_14 
ROOT
HETATM    1  C   UNK N   1      25.669  19.553   4.044  0.00  0.00    -0.031 A 
HETATM    2  C   UNK N   1      26.581  18.602   3.579  0.00  0.00     0.048 A 
HETATM    3  C   UNK N   1      27.895  18.604   4.051  0.00  0.00     0.069 A 
HETATM    4  C   UNK N   1      28.301  19.558   4.990  0.00  0.00     0.073 A 
HETATM    5  C   UNK N   1      27.390  20.511   5.457  0.00  0.00     0.069 A 
HETATM    6  C   UNK N   1      26.078  20.509   4.985  0.00  0.00     0.048 A 
ENDROOT
BRANCH   1   7
HETATM    7  C   UNK N   1      24.295  19.532   3.534  0.00  0.00     0.012 C 
HETATM    8  C   UNK N   1      23.326  18.861   4.161  0.00  0.00     0.012 C 
BRANCH   8   9
HETATM    9  C   UNK N   1      21.952  18.839   3.652  0.00  0.00    -0.036 A 
HETATM   10  C   UNK N   1      21.360  19.990   3.110  0.00  0.00     0.014 A 
HETATM   11  C   UNK N   1      20.051  19.945   2.631  0.00  0.00     0.037 A 
HETATM   12  C   UNK N   1      19.328  18.751   2.693  0.00  0.00     0.065 A 
HETATM   13  C   UNK N   1      19.914  17.602   3.233  0.00  0.00     0.037 A 
HETATM   14  C   UNK N   1      21.226  17.646   3.712  0.00  0.00     0.014 A 
BRANCH  12  15
HETATM   15  O   UNK N   1      18.068  18.708   2.233  0.00  0.00    -0.361 OA
HETATM   16  H   UNK N   1      17.568  19.496   2.163  0.00  0.00     0.217 HD
ENDBRANCH  12  15
ENDBRANCH   8   9
ENDBRANCH   1   7
BRANCH   3  17
HETATM   17  O   UNK N   1      28.769  17.689   3.602  0.00  0.00    -0.361 OA
HETATM   18  H   UNK N   1      28.877  17.556   2.681  0.00  0.00     0.217 HD
ENDBRANCH   3  17
BRANCH   5  19
HETATM   19  O   UNK N   1      27.776  21.429   6.358  0.00  0.00    -0.361 OA
HETATM   20  H   UNK N   1      27.278  21.552   7.142  0.00  0.00     0.217 HD
ENDBRANCH   5  19
TORSDOF 5
ENDMDL
MODEL 7
REMARK VINA RESULT:      -5.9      1.460      7.259
REMARK  5 active torsions:
REMARK  status: ('A' for Active; 'I' for Inactive)
REMARK    1  A    between atoms: O_1  and  C_2 
REMARK    2  A    between atoms: C_5  and  C_6 
REMARK    3  A    between atoms: C_7  and  C_8 
REMARK    4  A    between atoms: C_10  and  O_11 
REMARK    5  A    between atoms: C_13  and  O_14 
ROOT
HETATM    1  C   UNK N   1      35.422  12.507  17.149  0.00  0.00    -0.031 A 
HETATM    2  C   UNK N   1      35.730  11.163  17.375  0.00  0.00     0.048 A 
HETATM    3  C   UNK N   1      35.698  10.647  18.672  0.00  0.00     0.069 A 
HETATM    4  C   UNK N   1      35.359  11.474  19.747  0.00  0.00     0.073 A 
HETATM    5  C   UNK N   1      35.050  12.820  19.524  0.00  0.00     0.069 A 
HETATM    6  C   UNK N   1      35.082  13.335  18.229  0.00  0.00     0.048 A 
ENDROOT
BRANCH   1   7
HETATM    7  C   UNK N   1      35.462  13.027  15.780  0.00  0.00     0.012 C 
HETATM    8  C   UNK N   1      36.492  12.780  14.966  0.00  0.00     0.012 C 
BRANCH   8   9
HETATM    9  C   UNK N   1      36.533  13.299  13.597  0.00  0.00    -0.036 A 
HETATM   10  C   UNK N   1      36.060  14.585  13.294  0.00  0.00     0.014 A 
HETATM   11  C   UNK N   1      36.109  15.058  11.982  0.00  0.00     0.037 A 
HETATM   12  C   UNK N   1      36.630  14.248  10.970  0.00  0.00     0.065 A 
HETATM   13  C   UNK N   1      37.102  12.967  11.268  0.00  0.00     0.037 A 
HETATM   14  C   UNK N   1      37.053  12.493  12.581  0.00  0.00     0.014 A 
BRANCH  12  15
HETATM   15  O   UNK N   1      36.677  14.703   9.708  0.00  0.00    -0.361 OA
HETATM   16  H   UNK N   1      36.122  15.410   9.444  0.00  0.00     0.217 HD
ENDBRANCH  12  15
ENDBRANCH   8   9
ENDBRANCH   1   7
BRANCH   3  17
HETATM   17  O   UNK N   1      35.994   9.355  18.886  0.00  0.00    -0.361 OA
HETATM   18  H   UNK N   1      36.832   9.117  19.232  0.00  0.00     0.217 HD
ENDBRANCH   3  17
BRANCH   5  19
HETATM   19  O   UNK N   1      34.724  13.617  20.553  0.00  0.00    -0.361 OA
HETATM   20  H   UNK N   1      35.393  13.953  21.116  0.00  0.00     0.217 HD
ENDBRANCH   5  19
TORSDOF 5
ENDMDL
MODEL 8
REMARK VINA RESULT:      -5.9      1.496      7.442
REMARK  5 active torsions:
REMARK  status: ('A' for Active; 'I' for Inactive)
REMARK    1  A    between atoms: O_1  and  C_2 
REMARK    2  A    between atoms: C_5  and  C_6 
REMARK    3  A    between atoms: C_7  and  C_8 
REMARK    4  A    between atoms: C_10  and  O_11 
REMARK    5  A    between atoms: C_13  and  O_14 
ROOT
HETATM    1  C   UNK N   1      35.431  12.505  17.239  0.00  0.00    -0.031 A 
HETATM    2  C   UNK N   1      35.069  13.351  18.291  0.00  0.00     0.048 A 
HETATM    3  C   UNK N   1      34.992  12.854  19.593  0.00  0.00     0.069 A 
HETATM    4  C   UNK N   1      35.276  11.509  19.847  0.00  0.00     0.073 A 
HETATM    5  C   UNK N   1      35.639  10.660  18.797  0.00  0.00     0.069 A 
HETATM    6  C   UNK N   1      35.716  11.156  17.496  0.00  0.00     0.048 A 
ENDROOT
BRANCH   1   7
HETATM    7  C   UNK N   1      35.505  13.049  15.880  0.00  0.00     0.012 C 
HETATM    8  C   UNK N   1      36.466  12.680  15.029  0.00  0.00     0.012 C 
BRANCH   8   9
HETATM    9  C   UNK N   1      36.541  13.224  13.671  0.00  0.00    -0.036 A 
HETATM   10  C   UNK N   1      36.048  14.503  13.373  0.00  0.00     0.014 A 
HETATM   11  C   UNK N   1      36.131  15.000  12.072  0.00  0.00     0.037 A 
HETATM   12  C   UNK N   1      36.706  14.221  11.065  0.00  0.00     0.065 A 
HETATM   13  C   UNK N   1      37.198  12.946  11.358  0.00  0.00     0.037 A 
HETATM   14  C   UNK N   1      37.115  12.448  12.660  0.00  0.00     0.014 A 
BRANCH  12  15
HETATM   15  O   UNK N   1      36.785  14.699   9.813  0.00  0.00    -0.361 OA
HETATM   16  H   UNK N   1      36.190  15.364   9.527  0.00  0.00     0.217 HD
ENDBRANCH  12  15
ENDBRANCH   8   9
ENDBRANCH   1   7
BRANCH   3  17
HETATM   17  O   UNK N   1      34.644  13.670  20.602  0.00  0.00    -0.361 OA
HETATM   18  H   UNK N   1      33.968  13.415  21.198  0.00  0.00     0.217 HD
ENDBRANCH   3  17
BRANCH   5  19
HETATM   19  O   UNK N   1      35.913   9.368  19.037  0.00  0.00    -0.361 OA
HETATM   20  H   UNK N   1      36.589   8.935  18.554  0.00  0.00     0.217 HD
ENDBRANCH   5  19
TORSDOF 5
ENDMDL
MODEL 9
REMARK VINA RESULT:      -5.8     13.868     16.916
REMARK  5 active torsions:
REMARK  status: ('A' for Active; 'I' for Inactive)
REMARK    1  A    between atoms: O_1  and  C_2 
REMARK    2  A    between atoms: C_5  and  C_6 
REMARK    3  A    between atoms: C_7  and  C_8 
REMARK    4  A    between atoms: C_10  and  O_11 
REMARK    5  A    between atoms: C_13  and  O_14 
ROOT
HETATM    1  C   UNK N   1      22.385  13.382   9.355  0.00  0.00    -0.031 A 
HETATM    2  C   UNK N   1      23.695  13.094   9.748  0.00  0.00     0.048 A 
HETATM    3  C   UNK N   1      23.929  12.347  10.904  0.00  0.00     0.069 A 
HETATM    4  C   UNK N   1      22.854  11.886  11.670  0.00  0.00     0.073 A 
HETATM    5  C   UNK N   1      21.543  12.173  11.279  0.00  0.00     0.069 A 
HETATM    6  C   UNK N   1      21.308  12.919  10.125  0.00  0.00     0.048 A 
ENDROOT
BRANCH   1   7
HETATM    7  C   UNK N   1      22.164  14.168   8.137  0.00  0.00     0.012 C 
HETATM    8  C   UNK N   1      21.098  14.961   8.000  0.00  0.00     0.012 C 
BRANCH   8   9
HETATM    9  C   UNK N   1      20.876  15.746   6.784  0.00  0.00    -0.036 A 
HETATM   10  C   UNK N   1      21.762  16.768   6.407  0.00  0.00     0.014 A 
HETATM   11  C   UNK N   1      21.529  17.503   5.244  0.00  0.00     0.037 A 
HETATM   12  C   UNK N   1      20.412  17.220   4.454  0.00  0.00     0.065 A 
HETATM   13  C   UNK N   1      19.528  16.204   4.825  0.00  0.00     0.037 A 
HETATM   14  C   UNK N   1      19.760  15.467   5.990  0.00  0.00     0.014 A 
BRANCH  12  15
HETATM   15  O   UNK N   1      20.189  17.928   3.335  0.00  0.00    -0.361 OA
HETATM   16  H   UNK N   1      19.413  18.446   3.255  0.00  0.00     0.217 HD
ENDBRANCH  12  15
ENDBRANCH   8   9
ENDBRANCH   1   7
BRANCH   3  17
HETATM   17  O   UNK N   1      25.189  12.072  11.279  0.00  0.00    -0.361 OA
HETATM   18  H   UNK N   1      25.415  12.060  12.188  0.00  0.00     0.217 HD
ENDBRANCH   3  17
BRANCH   5  19
HETATM   19  O   UNK N   1      20.508  11.733  12.012  0.00  0.00    -0.361 OA
HETATM   20  H   UNK N   1      20.333  12.112  12.851  0.00  0.00     0.217 HD
ENDBRANCH   5  19
TORSDOF 5
ENDMDL
