MODEL 1
REMARK VINA RESULT:      -5.2      0.000      0.000
REMARK  2 active torsions:
REMARK  status: ('A' for Active; 'I' for Inactive)
REMARK    1  A    between atoms: C_3  and  N_4 
REMARK    2  A    between atoms: C_6  and  N_4 
ROOT
HETATM    1  C   UNK N   1      35.671  16.166  11.089  0.00  0.00     0.013 C 
HETATM    2  C   UNK N   1      35.102  16.660  10.147  0.00  0.00    -0.087 C 
HETATM    3  C   UNK N   1      34.431  17.278   9.000  0.00  0.00     0.365 C 
ENDROOT
BRANCH   3   4
HETATM    4  N   UNK N   1      33.054  16.803   8.869  0.00  0.00     0.103 N 
HETATM    5  C   UNK N   1      33.098  15.395   8.476  0.00  0.00     0.311 C 
BRANCH   4   6
HETATM    6  C   UNK N   1      32.353  17.636   7.867  0.00  0.00     0.257 A 
HETATM    7  C   UNK N   1      32.357  17.007   6.445  0.00  0.00     0.045 A 
HETATM    8  C   UNK N   1      30.902  16.903   5.952  0.00  0.00     0.041 A 
HETATM    9  C   UNK N   1      30.122  17.399   7.099  0.00  0.00    -0.050 A 
HETATM   10  C   UNK N   1      30.902  17.798   8.148  0.00  0.00    -0.019 A 
HETATM   11  C   UNK N   1      28.730  17.491   7.153  0.00  0.00     0.007 A 
HETATM   12  C   UNK N   1      30.332  18.319   9.313  0.00  0.00     0.010 A 
HETATM   13  C   UNK N   1      28.934  18.417   9.394  0.00  0.00     0.001 A 
HETATM   14  C   UNK N   1      28.133  18.002   8.314  0.00  0.00     0.001 A 
ENDBRANCH   4   6
ENDBRANCH   3   4
TORSDOF 2
ENDMDL
MODEL 2
REMARK VINA RESULT:      -5.2      6.671     10.249
REMARK  2 active torsions:
REMARK  status: ('A' for Active; 'I' for Inactive)
REMARK    1  A    between atoms: C_3  and  N_4 
REMARK    2  A    between atoms: C_6  and  N_4 
ROOT
HETATM    1  C   UNK N   1      34.977  13.090  10.987  0.00  0.00     0.013 C 
HETATM    2  C   UNK N   1      35.300  13.515  12.068  0.00  0.00    -0.087 C 
HETATM    3  C   UNK N   1      35.691  14.058  13.372  0.00  0.00     0.365 C 
ENDROOT
BRANCH   3   4
HETATM    4  N   UNK N   1      36.231  13.015  14.243  0.00  0.00     0.103 N 
HETATM    5  C   UNK N   1      37.040  12.114  13.422  0.00  0.00     0.311 C 
BRANCH   4   6
HETATM    6  C   UNK N   1      35.110  12.309  14.900  0.00  0.00     0.257 A 
HETATM    7  C   UNK N   1      35.099  10.782  14.607  0.00  0.00     0.045 A 
HETATM    8  C   UNK N   1      35.087  10.027  15.949  0.00  0.00     0.041 A 
HETATM    9  C   UNK N   1      35.156  11.111  16.946  0.00  0.00    -0.050 A 
HETATM   10  C   UNK N   1      35.171  12.357  16.385  0.00  0.00    -0.019 A 
HETATM   11  C   UNK N   1      35.185  10.937  18.330  0.00  0.00     0.007 A 
HETATM   12  C   UNK N   1      35.211  13.505  17.180  0.00  0.00     0.010 A 
HETATM   13  C   UNK N   1      35.247  13.357  18.576  0.00  0.00     0.001 A 
HETATM   14  C   UNK N   1      35.234  12.073  19.151  0.00  0.00     0.001 A 
ENDBRANCH   4   6
ENDBRANCH   3   4
TORSDOF 2
ENDMDL
MODEL 3
REMARK VINA RESULT:      -5.1      9.382     11.570
REMARK  2 active torsions:
REMARK  status: ('A' for Active; 'I' for Inactive)
REMARK    1  A    between atoms: C_3  and  N_4 
REMARK    2  A    between atoms: C_6  and  N_4 
ROOT
HETATM    1  C   UNK N   1      36.977  10.653  12.562  0.00  0.00     0.013 C 
HETATM    2  C   UNK N   1      36.359  10.063  13.412  0.00  0.00    -0.087 C 
HETATM    3  C   UNK N   1      35.615   9.322  14.435  0.00  0.00     0.365 C 
ENDROOT
BRANCH   3   4
HETATM    4  N   UNK N   1      34.734  10.206  15.198  0.00  0.00     0.103 N 
HETATM    5  C   UNK N   1      33.708  10.716  14.288  0.00  0.00     0.311 C 
BRANCH   4   6
HETATM    6  C   UNK N   1      35.541  11.294  15.790  0.00  0.00     0.257 A 
HETATM    7  C   UNK N   1      34.891  12.697  15.613  0.00  0.00     0.045 A 
HETATM    8  C   UNK N   1      34.758  13.353  16.999  0.00  0.00     0.041 A 
HETATM    9  C   UNK N   1      35.259  12.311  17.914  0.00  0.00    -0.050 A 
HETATM   10  C   UNK N   1      35.685  11.186  17.266  0.00  0.00    -0.019 A 
HETATM   11  C   UNK N   1      35.331  12.420  19.304  0.00  0.00     0.007 A 
HETATM   12  C   UNK N   1      36.215  10.103  17.973  0.00  0.00     0.010 A 
HETATM   13  C   UNK N   1      36.292  10.185  19.373  0.00  0.00     0.001 A 
HETATM   14  C   UNK N   1      35.850  11.344  20.037  0.00  0.00     0.001 A 
ENDBRANCH   4   6
ENDBRANCH   3   4
TORSDOF 2
ENDMDL
MODEL 4
REMARK VINA RESULT:      -5.1      2.853      4.520
REMARK  2 active torsions:
REMARK  status: ('A' for Active; 'I' for Inactive)
REMARK    1  A    between atoms: C_3  and  N_4 
REMARK    2  A    between atoms: C_6  and  N_4 
ROOT
HETATM    1  C   UNK N   1      31.746  17.335   8.485  0.00  0.00     0.013 C 
HETATM    2  C   UNK N   1      30.826  18.042   8.814  0.00  0.00    -0.087 C 
HETATM    3  C   UNK N   1      29.724  18.914   9.233  0.00  0.00     0.365 C 
ENDROOT
BRANCH   3   4
HETATM    4  N   UNK N   1      28.451  18.474   8.662  0.00  0.00     0.103 N 
HETATM    5  C   UNK N   1      28.056  17.239   9.337  0.00  0.00     0.311 C 
BRANCH   4   6
HETATM    6  C   UNK N   1      28.620  18.280   7.206  0.00  0.00     0.257 A 
HETATM    7  C   UNK N   1      28.202  16.859   6.731  0.00  0.00     0.045 A 
HETATM    8  C   UNK N   1      27.156  17.007   5.609  0.00  0.00     0.041 A 
HETATM    9  C   UNK N   1      26.960  18.465   5.522  0.00  0.00    -0.050 A 
HETATM   10  C   UNK N   1      27.751  19.167   6.388  0.00  0.00    -0.019 A 
HETATM   11  C   UNK N   1      26.086  19.113   4.647  0.00  0.00     0.007 A 
HETATM   12  C   UNK N   1      27.715  20.564   6.425  0.00  0.00     0.010 A 
HETATM   13  C   UNK N   1      26.840  21.239   5.561  0.00  0.00     0.001 A 
HETATM   14  C   UNK N   1      26.025  20.514   4.672  0.00  0.00     0.001 A 
ENDBRANCH   4   6
ENDBRANCH   3   4
TORSDOF 2
ENDMDL
MODEL 5
REMARK VINA RESULT:      -5.0     16.023     18.006
REMARK  2 active torsions:
REMARK  status: ('A' for Active; 'I' for Inactive)
REMARK    1  A    between atoms: C_3  and  N_4 
REMARK    2  A    between atoms: C_6  and  N_4 
ROOT
HETATM    1  C   UNK N   1      28.555  28.933  -7.519  0.00  0.00     0.013 C 
HETATM    2  C   UNK N   1      27.929  28.926  -6.489  0.00  0.00    -0.087 C 
HETATM    3  C   UNK N   1      27.184  28.937  -5.226  0.00  0.00     0.365 C 
ENDROOT
BRANCH   3   4
HETATM    4  N   UNK N   1      26.274  27.796  -5.135  0.00  0.00     0.103 N 
HETATM    5  C   UNK N   1      25.480  27.947  -3.916  0.00  0.00     0.311 C 
BRANCH   4   6
HETATM    6  C   UNK N   1      27.068  26.548  -5.128  0.00  0.00     0.257 A 
HETATM    7  C   UNK N   1      27.011  25.801  -3.765  0.00  0.00     0.045 A 
HETATM    8  C   UNK N   1      26.542  24.356  -4.018  0.00  0.00     0.041 A 
HETATM    9  C   UNK N   1      26.285  24.335  -5.469  0.00  0.00    -0.050 A 
HETATM   10  C   UNK N   1      26.566  25.524  -6.082  0.00  0.00    -0.019 A 
HETATM   11  C   UNK N   1      25.823  23.236  -6.194  0.00  0.00     0.007 A 
HETATM   12  C   UNK N   1      26.405  25.680  -7.462  0.00  0.00     0.010 A 
HETATM   13  C   UNK N   1      25.935  24.590  -8.212  0.00  0.00     0.001 A 
HETATM   14  C   UNK N   1      25.644  23.368  -7.578  0.00  0.00     0.001 A 
ENDBRANCH   4   6
ENDBRANCH   3   4
TORSDOF 2
ENDMDL
MODEL 6
REMARK VINA RESULT:      -4.9      2.100      4.275
REMARK  2 active torsions:
REMARK  status: ('A' for Active; 'I' for Inactive)
REMARK    1  A    between atoms: C_3  and  N_4 
REMARK    2  A    between atoms: C_6  and  N_4 
ROOT
HETATM    1  C   UNK N   1      29.142  14.124   4.743  0.00  0.00     0.013 C 
HETATM    2  C   UNK N   1      30.139  14.775   4.552  0.00  0.00    -0.087 C 
HETATM    3  C   UNK N   1      31.363  15.544   4.308  0.00  0.00     0.365 C 
ENDROOT
BRANCH   3   4
HETATM    4  N   UNK N   1      31.364  16.797   5.064  0.00  0.00     0.103 N 
HETATM    5  C   UNK N   1      32.481  17.612   4.586  0.00  0.00     0.311 C 
BRANCH   4   6
HETATM    6  C   UNK N   1      31.482  16.487   6.505  0.00  0.00     0.257 A 
HETATM    7  C   UNK N   1      32.810  17.002   7.130  0.00  0.00     0.045 A 
HETATM    8  C   UNK N   1      32.468  17.892   8.340  0.00  0.00     0.041 A 
HETATM    9  C   UNK N   1      30.994  17.917   8.334  0.00  0.00    -0.050 A 
HETATM   10  C   UNK N   1      30.448  17.157   7.338  0.00  0.00    -0.019 A 
HETATM   11  C   UNK N   1      30.193  18.610   9.242  0.00  0.00     0.007 A 
HETATM   12  C   UNK N   1      29.062  17.043   7.196  0.00  0.00     0.010 A 
HETATM   13  C   UNK N   1      28.234  17.737   8.093  0.00  0.00     0.001 A 
HETATM   14  C   UNK N   1      28.799  18.520   9.115  0.00  0.00     0.001 A 
ENDBRANCH   4   6
ENDBRANCH   3   4
TORSDOF 2
ENDMDL
MODEL 7
REMARK VINA RESULT:      -4.8      2.332      5.398
REMARK  2 active torsions:
REMARK  status: ('A' for Active; 'I' for Inactive)
REMARK    1  A    between atoms: C_3  and  N_4 
REMARK    2  A    between atoms: C_6  and  N_4 
ROOT
HETATM    1  C   UNK N   1      26.966  15.201   5.594  0.00  0.00     0.013 C 
HETATM    2  C   UNK N   1      27.448  16.118   6.210  0.00  0.00    -0.087 C 
HETATM    3  C   UNK N   1      28.013  17.231   6.978  0.00  0.00     0.365 C 
ENDROOT
BRANCH   3   4
HETATM    4  N   UNK N   1      29.071  17.911   6.231  0.00  0.00     0.103 N 
HETATM    5  C   UNK N   1      28.474  18.490   5.028  0.00  0.00     0.311 C 
BRANCH   4   6
HETATM    6  C   UNK N   1      30.133  16.934   5.908  0.00  0.00     0.257 A 
HETATM    7  C   UNK N   1      30.538  16.953   4.406  0.00  0.00     0.045 A 
HETATM    8  C   UNK N   1      32.059  17.177   4.312  0.00  0.00     0.041 A 
HETATM    9  C   UNK N   1      32.462  17.343   5.720  0.00  0.00    -0.050 A 
HETATM   10  C   UNK N   1      31.421  17.215   6.597  0.00  0.00    -0.019 A 
HETATM   11  C   UNK N   1      33.762  17.586   6.167  0.00  0.00     0.007 A 
HETATM   12  C   UNK N   1      31.623  17.318   7.976  0.00  0.00     0.010 A 
HETATM   13  C   UNK N   1      32.920  17.569   8.450  0.00  0.00     0.001 A 
HETATM   14  C   UNK N   1      33.990  17.702   7.545  0.00  0.00     0.001 A 
ENDBRANCH   4   6
ENDBRANCH   3   4
TORSDOF 2
ENDMDL
MODEL 8
REMARK VINA RESULT:      -4.7      3.070      4.801
REMARK  2 active torsions:
REMARK  status: ('A' for Active; 'I' for Inactive)
REMARK    1  A    between atoms: C_3  and  N_4 
REMARK    2  A    between atoms: C_6  and  N_4 
ROOT
HETATM    1  C   UNK N   1      32.471  17.010   3.052  0.00  0.00     0.013 C 
HETATM    2  C   UNK N   1      31.390  16.514   3.250  0.00  0.00    -0.087 C 
HETATM    3  C   UNK N   1      30.071  15.910   3.464  0.00  0.00     0.365 C 
ENDROOT
BRANCH   3   4
HETATM    4  N   UNK N   1      29.649  16.032   4.859  0.00  0.00     0.103 N 
HETATM    5  C   UNK N   1      28.368  15.342   5.006  0.00  0.00     0.311 C 
BRANCH   4   6
HETATM    6  C   UNK N   1      29.550  17.466   5.206  0.00  0.00     0.257 A 
HETATM    7  C   UNK N   1      28.220  18.115   4.728  0.00  0.00     0.045 A 
HETATM    8  C   UNK N   1      27.531  18.769   5.940  0.00  0.00     0.041 A 
HETATM    9  C   UNK N   1      28.426  18.429   7.060  0.00  0.00    -0.050 A 
HETATM   10  C   UNK N   1      29.527  17.718   6.672  0.00  0.00    -0.019 A 
HETATM   11  C   UNK N   1      28.227  18.789   8.394  0.00  0.00     0.007 A 
HETATM   12  C   UNK N   1      30.498  17.329   7.599  0.00  0.00     0.010 A 
HETATM   13  C   UNK N   1      30.317  17.673   8.948  0.00  0.00     0.001 A 
HETATM   14  C   UNK N   1      29.182  18.403   9.345  0.00  0.00     0.001 A 
ENDBRANCH   4   6
ENDBRANCH   3   4
TORSDOF 2
ENDMDL
MODEL 9
REMARK VINA RESULT:      -4.7      6.707      9.867
REMARK  2 active torsions:
REMARK  status: ('A' for Active; 'I' for Inactive)
REMARK    1  A    between atoms: C_3  and  N_4 
REMARK    2  A    between atoms: C_6  and  N_4 
ROOT
HETATM    1  C   UNK N   1      33.469   9.703  11.338  0.00  0.00     0.013 C 
HETATM    2  C   UNK N   1      34.315  10.549  11.481  0.00  0.00    -0.087 C 
HETATM    3  C   UNK N   1      35.361  11.565  11.639  0.00  0.00     0.365 C 
ENDROOT
BRANCH   3   4
HETATM    4  N   UNK N   1      35.040  12.496  12.720  0.00  0.00     0.103 N 
HETATM    5  C   UNK N   1      34.950  13.839  12.148  0.00  0.00     0.311 C 
BRANCH   4   6
HETATM    6  C   UNK N   1      36.088  12.406  13.759  0.00  0.00     0.257 A 
HETATM    7  C   UNK N   1      36.556  13.797  14.272  0.00  0.00     0.045 A 
HETATM    8  C   UNK N   1      36.403  13.831  15.804  0.00  0.00     0.041 A 
HETATM    9  C   UNK N   1      35.805  12.519  16.111  0.00  0.00    -0.050 A 
HETATM   10  C   UNK N   1      35.628  11.737  15.005  0.00  0.00    -0.019 A 
HETATM   11  C   UNK N   1      35.458  12.066  17.385  0.00  0.00     0.007 A 
HETATM   12  C   UNK N   1      35.095  10.449  15.111  0.00  0.00     0.010 A 
HETATM   13  C   UNK N   1      34.730   9.973  16.380  0.00  0.00     0.001 A 
HETATM   14  C   UNK N   1      34.912  10.782  17.517  0.00  0.00     0.001 A 
ENDBRANCH   4   6
ENDBRANCH   3   4
TORSDOF 2
ENDMDL
