REMARK  2 active torsions:
REMARK  status: ('A' for Active; 'I' for Inactive)
REMARK    1  A    between atoms: C_3  and  N_4 
REMARK    2  A    between atoms: C_6  and  N_4 
ROOT
HETATM    1  C   UNK N   1      -2.679   4.364   0.178  0.00  0.00     0.013 C 
HETATM    2  C   UNK N   1      -2.459   3.185   0.056  0.00  0.00    -0.087 C 
HETATM    3  C   UNK N   1      -2.218   1.746  -0.087  0.00  0.00     0.365 C 
ENDROOT
BRANCH   3   4
HETATM    4  N   UNK N   1      -0.787   1.448  -0.136  0.00  0.00     0.103 N 
HETATM    5  C   UNK N   1      -0.352   1.547  -1.529  0.00  0.00     0.311 C 
BRANCH   4   6
HETATM    6  C   UNK N   1      -0.559   0.097   0.421  0.00  0.00     0.257 A 
HETATM    7  C   UNK N   1      -1.343  -1.012  -0.337  0.00  0.00     0.045 A 
HETATM    8  C   UNK N   1      -0.344  -2.090  -0.797  0.00  0.00     0.041 A 
HETATM    9  C   UNK N   1       0.957  -1.551  -0.361  0.00  0.00    -0.050 A 
HETATM   10  C   UNK N   1       0.851  -0.360   0.301  0.00  0.00    -0.019 A 
HETATM   11  C   UNK N   1       2.195  -2.164  -0.560  0.00  0.00     0.007 A 
HETATM   12  C   UNK N   1       1.982   0.286   0.808  0.00  0.00     0.010 A 
HETATM   13  C   UNK N   1       3.240  -0.307   0.615  0.00  0.00     0.001 A 
HETATM   14  C   UNK N   1       3.346  -1.532  -0.069  0.00  0.00     0.001 A 
ENDBRANCH   4   6
ENDBRANCH   3   4
TORSDOF 2
