REMARK  1 active torsions:
REMARK  status: ('A' for Active; 'I' for Inactive)
REMARK       I    between atoms: C_3  and  N_4 
REMARK    1  A    between atoms: C_11  and  O_17 
ROOT
HETATM    1  N   UNK N   1      -1.696  -1.010   0.000  0.00  0.00    -0.175 N 
ATOM      2  HN  UNK N   1      -1.716  -2.030   0.000  1.00  0.00     0.186 HD
HETATM    3  C   UNK N   1      -2.864  -0.315  -0.000  0.00  0.00     0.680 A 
HETATM    4  N   UNK N   1      -4.091  -1.006  -0.000  0.00  0.00    -0.234 N 
HETATM    5  N   UNK N   1      -2.850   1.044  -0.000  0.00  0.00    -0.154 N 
HETATM    6  C   UNK N   1      -1.663   1.730  -0.000  0.00  0.00     0.290 A 
HETATM    7  O   UNK N   1      -1.664   2.948  -0.000  0.00  0.00    -0.265 OA
HETATM    8  C   UNK N   1      -0.462   1.023   0.000  0.00  0.00     0.148 A 
HETATM    9  N   UNK N   1       0.780   1.696   0.000  0.00  0.00    -0.331 N 
ATOM     10  HN  UNK N   1       0.776   2.716   0.000  1.00  0.00     0.168 HD
HETATM   11  C   UNK N   1       1.919   1.089  -0.000  0.00  0.00     0.144 A 
HETATM   12  C   UNK N   1       2.013  -0.471  -0.000  0.00  0.00     0.089 A 
HETATM   13  C   UNK N   1       3.528  -0.636   0.000  0.00  0.00     0.047 A 
HETATM   14  C   UNK N   1       2.612  -1.860  -0.000  0.00  0.00     0.047 A 
HETATM   15  N   UNK N   1       0.700  -1.089   0.000  0.00  0.00    -0.358 N 
HETATM   16  C   UNK N   1      -0.503  -0.361   0.000  0.00  0.00     0.150 A 
HETATM   17  H   UNK N   1      -4.938  -0.504  -0.000  0.00  0.00     0.174 HD
HETATM   18  H   UNK N   1      -4.102  -1.990  -0.000  0.00  0.00     0.174 HD
HETATM   19  H   UNK N   1      -3.700   1.541  -0.000  0.00  0.00     0.187 HD
HETATM   20  H   UNK N   1       0.648  -2.072   0.000  0.00  0.00     0.162 HD
ENDROOT
BRANCH  11  21
HETATM   21  O   UNK N   1       3.031   1.862  -0.000  0.00  0.00    -0.347 OA
HETATM   22  H   UNK N   1       3.879   1.464   0.000  0.00  0.00     0.219 HD
ENDBRANCH  11  21
TORSDOF 1
