MODEL 1
REMARK VINA RESULT:      -6.1      0.000      0.000
REMARK  1 active torsions:
REMARK  status: ('A' for Active; 'I' for Inactive)
REMARK       I    between atoms: C_3  and  N_4 
REMARK    1  A    between atoms: C_11  and  O_17 
ROOT
HETATM    1  N   UNK N   1      33.693  14.078  10.162  0.00  0.00    -0.175 N 
ATOM      2  HN  UNK N   1      33.122  13.240  10.054  1.00  0.00     0.186 HD
HETATM    3  C   UNK N   1      33.621  15.066   9.231  0.00  0.00     0.680 A 
HETATM    4  N   UNK N   1      32.759  14.925   8.126  0.00  0.00    -0.234 N 
HETATM    5  N   UNK N   1      34.377  16.187   9.365  0.00  0.00    -0.154 N 
HETATM    6  C   UNK N   1      35.220  16.337  10.436  0.00  0.00     0.290 A 
HETATM    7  O   UNK N   1      35.892  17.347  10.544  0.00  0.00    -0.265 OA
HETATM    8  C   UNK N   1      35.299  15.328  11.394  0.00  0.00     0.148 A 
HETATM    9  N   UNK N   1      36.156  15.448  12.510  0.00  0.00    -0.331 N 
ATOM     10  HN  UNK N   1      36.718  16.295  12.598  1.00  0.00     0.168 HD
HETATM   11  C   UNK N   1      36.266  14.544  13.424  0.00  0.00     0.144 A 
HETATM   12  C   UNK N   1      35.441  13.217  13.364  0.00  0.00     0.089 A 
HETATM   13  C   UNK N   1      35.942  12.547  14.637  0.00  0.00     0.047 A 
HETATM   14  C   UNK N   1      34.908  11.855  13.749  0.00  0.00     0.047 A 
HETATM   15  N   UNK N   1      34.587  13.168  12.192  0.00  0.00    -0.358 N 
HETATM   16  C   UNK N   1      34.518  14.195  11.235  0.00  0.00     0.150 A 
HETATM   17  H   UNK N   1      32.705  15.640   7.451  0.00  0.00     0.174 HD
HETATM   18  H   UNK N   1      32.212  14.114   8.029  0.00  0.00     0.174 HD
HETATM   19  H   UNK N   1      34.319  16.899   8.687  0.00  0.00     0.187 HD
HETATM   20  H   UNK N   1      34.023  12.372  12.060  0.00  0.00     0.162 HD
ENDROOT
BRANCH  11  21
HETATM   21  O   UNK N   1      37.128  14.792  14.439  0.00  0.00    -0.347 OA
HETATM   22  H   UNK N   1      37.831  14.199  14.613  0.00  0.00     0.219 HD
ENDBRANCH  11  21
TORSDOF 1
ENDMDL
MODEL 2
REMARK VINA RESULT:      -5.8      1.752      4.737
REMARK  1 active torsions:
REMARK  status: ('A' for Active; 'I' for Inactive)
REMARK       I    between atoms: C_3  and  N_4 
REMARK    1  A    between atoms: C_11  and  O_17 
ROOT
HETATM    1  N   UNK N   1      34.371  11.939  13.307  0.00  0.00    -0.175 N 
ATOM      2  HN  UNK N   1      33.711  11.332  12.821  1.00  0.00     0.186 HD
HETATM    3  C   UNK N   1      34.677  11.693  14.609  0.00  0.00     0.680 A 
HETATM    4  N   UNK N   1      34.082  10.605  15.275  0.00  0.00    -0.234 N 
HETATM    5  N   UNK N   1      35.555  12.495  15.267  0.00  0.00    -0.154 N 
HETATM    6  C   UNK N   1      36.142  13.558  14.631  0.00  0.00     0.290 A 
HETATM    7  O   UNK N   1      36.927  14.269  15.232  0.00  0.00    -0.265 OA
HETATM    8  C   UNK N   1      35.832  13.815  13.297  0.00  0.00     0.148 A 
HETATM    9  N   UNK N   1      36.418  14.902  12.609  0.00  0.00    -0.331 N 
ATOM     10  HN  UNK N   1      37.075  15.495  13.115  1.00  0.00     0.168 HD
HETATM   11  C   UNK N   1      36.165  15.182  11.375  0.00  0.00     0.144 A 
HETATM   12  C   UNK N   1      35.171  14.323  10.529  0.00  0.00     0.089 A 
HETATM   13  C   UNK N   1      35.250  15.072   9.204  0.00  0.00     0.047 A 
HETATM   14  C   UNK N   1      34.349  13.846   9.352  0.00  0.00     0.047 A 
HETATM   15  N   UNK N   1      34.613  13.230  11.302  0.00  0.00    -0.358 N 
HETATM   16  C   UNK N   1      34.935  12.984  12.648  0.00  0.00     0.150 A 
HETATM   17  H   UNK N   1      34.302  10.426  16.218  0.00  0.00     0.174 HD
HETATM   18  H   UNK N   1      33.446  10.024  14.799  0.00  0.00     0.174 HD
HETATM   19  H   UNK N   1      35.771  12.311  16.210  0.00  0.00     0.187 HD
HETATM   20  H   UNK N   1      33.973  12.626  10.860  0.00  0.00     0.162 HD
ENDROOT
BRANCH  11  21
HETATM   21  O   UNK N   1      36.799  16.254  10.843  0.00  0.00    -0.347 OA
HETATM   22  H   UNK N   1      36.824  17.065  11.312  0.00  0.00     0.219 HD
ENDBRANCH  11  21
TORSDOF 1
ENDMDL
MODEL 3
REMARK VINA RESULT:      -5.8      5.613      7.376
REMARK  1 active torsions:
REMARK  status: ('A' for Active; 'I' for Inactive)
REMARK       I    between atoms: C_3  and  N_4 
REMARK    1  A    between atoms: C_11  and  O_17 
ROOT
HETATM    1  N   UNK N   1      28.998  17.259   6.211  0.00  0.00    -0.175 N 
ATOM      2  HN  UNK N   1      29.033  17.181   5.194  1.00  0.00     0.186 HD
HETATM    3  C   UNK N   1      27.794  17.290   6.841  0.00  0.00     0.680 A 
HETATM    4  N   UNK N   1      26.607  17.216   6.088  0.00  0.00    -0.234 N 
HETATM    5  N   UNK N   1      27.735  17.394   8.195  0.00  0.00    -0.154 N 
HETATM    6  C   UNK N   1      28.883  17.467   8.940  0.00  0.00     0.290 A 
HETATM    7  O   UNK N   1      28.816  17.559  10.153  0.00  0.00    -0.265 OA
HETATM    8  C   UNK N   1      30.120  17.435   8.300  0.00  0.00     0.148 A 
HETATM    9  N   UNK N   1      31.324  17.509   9.036  0.00  0.00    -0.331 N 
ATOM     10  HN  UNK N   1      31.264  17.586  10.051  1.00  0.00     0.168 HD
HETATM   11  C   UNK N   1      32.494  17.483   8.492  0.00  0.00     0.144 A 
HETATM   12  C   UNK N   1      32.672  17.367   6.944  0.00  0.00     0.089 A 
HETATM   13  C   UNK N   1      34.194  17.382   6.860  0.00  0.00     0.047 A 
HETATM   14  C   UNK N   1      33.345  17.272   5.592  0.00  0.00     0.047 A 
HETATM   15  N   UNK N   1      31.395  17.296   6.259  0.00  0.00    -0.358 N 
HETATM   16  C   UNK N   1      30.154  17.330   6.920  0.00  0.00     0.150 A 
HETATM   17  H   UNK N   1      25.734  17.238   6.543  0.00  0.00     0.174 HD
HETATM   18  H   UNK N   1      26.649  17.141   5.107  0.00  0.00     0.174 HD
HETATM   19  H   UNK N   1      26.859  17.416   8.644  0.00  0.00     0.187 HD
HETATM   20  H   UNK N   1      31.396  17.221   5.277  0.00  0.00     0.162 HD
ENDROOT
BRANCH  11  21
HETATM   21  O   UNK N   1      33.562  17.562   9.320  0.00  0.00    -0.347 OA
HETATM   22  H   UNK N   1      33.993  16.781   9.606  0.00  0.00     0.219 HD
ENDBRANCH  11  21
TORSDOF 1
ENDMDL
MODEL 4
REMARK VINA RESULT:      -5.7      4.995      7.796
REMARK  1 active torsions:
REMARK  status: ('A' for Active; 'I' for Inactive)
REMARK       I    between atoms: C_3  and  N_4 
REMARK    1  A    between atoms: C_11  and  O_17 
ROOT
HETATM    1  N   UNK N   1      32.524  17.259   9.003  0.00  0.00    -0.175 N 
ATOM      2  HN  UNK N   1      32.037  17.344   9.895  1.00  0.00     0.186 HD
HETATM    3  C   UNK N   1      33.872  17.092   8.987  0.00  0.00     0.680 A 
HETATM    4  N   UNK N   1      34.586  17.037  10.199  0.00  0.00    -0.234 N 
HETATM    5  N   UNK N   1      34.532  16.977   7.804  0.00  0.00    -0.154 N 
HETATM    6  C   UNK N   1      33.850  17.028   6.616  0.00  0.00     0.290 A 
HETATM    7  O   UNK N   1      34.453  16.924   5.563  0.00  0.00    -0.265 OA
HETATM    8  C   UNK N   1      32.467  17.200   6.626  0.00  0.00     0.148 A 
HETATM    9  N   UNK N   1      31.731  17.258   5.421  0.00  0.00    -0.331 N 
ATOM     10  HN  UNK N   1      32.239  17.170   4.541  1.00  0.00     0.168 HD
HETATM   11  C   UNK N   1      30.451  17.415   5.376  0.00  0.00     0.144 A 
HETATM   12  C   UNK N   1      29.599  17.557   6.678  0.00  0.00     0.089 A 
HETATM   13  C   UNK N   1      28.214  17.711   6.062  0.00  0.00     0.047 A 
HETATM   14  C   UNK N   1      28.397  17.731   7.579  0.00  0.00     0.047 A 
HETATM   15  N   UNK N   1      30.423  17.488   7.870  0.00  0.00    -0.358 N 
HETATM   16  C   UNK N   1      31.818  17.314   7.843  0.00  0.00     0.150 A 
HETATM   17  H   UNK N   1      35.563  16.916  10.189  0.00  0.00     0.174 HD
HETATM   18  H   UNK N   1      34.109  17.120  11.056  0.00  0.00     0.174 HD
HETATM   19  H   UNK N   1      35.509  16.856   7.800  0.00  0.00     0.187 HD
HETATM   20  H   UNK N   1      29.982  17.567   8.747  0.00  0.00     0.162 HD
ENDROOT
BRANCH  11  21
HETATM   21  O   UNK N   1      29.876  17.452   4.150  0.00  0.00    -0.347 OA
HETATM   22  H   UNK N   1      29.396  16.712   3.835  0.00  0.00     0.219 HD
ENDBRANCH  11  21
TORSDOF 1
ENDMDL
MODEL 5
REMARK VINA RESULT:      -5.7      5.981      7.008
REMARK  1 active torsions:
REMARK  status: ('A' for Active; 'I' for Inactive)
REMARK       I    between atoms: C_3  and  N_4 
REMARK    1  A    between atoms: C_11  and  O_17 
ROOT
HETATM    1  N   UNK N   1      31.885  16.561   5.796  0.00  0.00    -0.175 N 
ATOM      2  HN  UNK N   1      31.300  16.093   5.104  1.00  0.00     0.186 HD
HETATM    3  C   UNK N   1      33.229  16.635   5.602  0.00  0.00     0.680 A 
HETATM    4  N   UNK N   1      33.802  16.066   4.448  0.00  0.00    -0.234 N 
HETATM    5  N   UNK N   1      34.018  17.256   6.517  0.00  0.00    -0.154 N 
HETATM    6  C   UNK N   1      33.474  17.815   7.644  0.00  0.00     0.290 A 
HETATM    7  O   UNK N   1      34.192  18.369   8.457  0.00  0.00    -0.265 OA
HETATM    8  C   UNK N   1      32.097  17.743   7.849  0.00  0.00     0.148 A 
HETATM    9  N   UNK N   1      31.501  18.307   8.999  0.00  0.00    -0.331 N 
ATOM     10  HN  UNK N   1      32.105  18.771   9.678  1.00  0.00     0.168 HD
HETATM   11  C   UNK N   1      30.233  18.268   9.236  0.00  0.00     0.144 A 
HETATM   12  C   UNK N   1      29.238  17.577   8.247  0.00  0.00     0.089 A 
HETATM   13  C   UNK N   1      27.930  17.817   8.991  0.00  0.00     0.047 A 
HETATM   14  C   UNK N   1      27.941  17.070   7.658  0.00  0.00     0.047 A 
HETATM   15  N   UNK N   1      29.924  17.023   7.094  0.00  0.00    -0.358 N 
HETATM   16  C   UNK N   1      31.314  17.105   6.902  0.00  0.00     0.150 A 
HETATM   17  H   UNK N   1      34.775  16.118   4.306  0.00  0.00     0.174 HD
HETATM   18  H   UNK N   1      33.231  15.615   3.785  0.00  0.00     0.174 HD
HETATM   19  H   UNK N   1      34.990  17.306   6.369  0.00  0.00     0.187 HD
HETATM   20  H   UNK N   1      29.386  16.565   6.409  0.00  0.00     0.162 HD
ENDROOT
BRANCH  11  21
HETATM   21  O   UNK N   1      29.799  18.851  10.379  0.00  0.00    -0.347 OA
HETATM   22  H   UNK N   1      29.268  18.367  10.980  0.00  0.00     0.219 HD
ENDBRANCH  11  21
TORSDOF 1
ENDMDL
MODEL 6
REMARK VINA RESULT:      -5.7     16.840     17.754
REMARK  1 active torsions:
REMARK  status: ('A' for Active; 'I' for Inactive)
REMARK       I    between atoms: C_3  and  N_4 
REMARK    1  A    between atoms: C_11  and  O_17 
ROOT
HETATM    1  N   UNK N   1      20.189  18.807   1.048  0.00  0.00    -0.175 N 
ATOM      2  HN  UNK N   1      19.983  18.580   0.075  1.00  0.00     0.186 HD
HETATM    3  C   UNK N   1      20.490  20.088   1.390  0.00  0.00     0.680 A 
HETATM    4  N   UNK N   1      20.515  21.090   0.402  0.00  0.00    -0.234 N 
HETATM    5  N   UNK N   1      20.765  20.402   2.684  0.00  0.00    -0.154 N 
HETATM    6  C   UNK N   1      20.744  19.436   3.657  0.00  0.00     0.290 A 
HETATM    7  O   UNK N   1      20.992  19.731   4.812  0.00  0.00    -0.265 OA
HETATM    8  C   UNK N   1      20.436  18.121   3.312  0.00  0.00     0.148 A 
HETATM    9  N   UNK N   1      20.404  17.100   4.287  0.00  0.00    -0.331 N 
ATOM     10  HN  UNK N   1      20.613  17.350   5.254  1.00  0.00     0.168 HD
HETATM   11  C   UNK N   1      20.126  15.869   4.020  0.00  0.00     0.144 A 
HETATM   12  C   UNK N   1      19.795  15.403   2.566  0.00  0.00     0.089 A 
HETATM   13  C   UNK N   1      19.555  13.920   2.820  0.00  0.00     0.047 A 
HETATM   14  C   UNK N   1      19.430  14.497   1.410  0.00  0.00     0.047 A 
HETATM   15  N   UNK N   1      19.847  16.505   1.623  0.00  0.00    -0.358 N 
HETATM   16  C   UNK N   1      20.159  17.827   1.987  0.00  0.00     0.150 A 
HETATM   17  H   UNK N   1      20.733  22.018   0.648  0.00  0.00     0.174 HD
HETATM   18  H   UNK N   1      20.316  20.863  -0.535  0.00  0.00     0.174 HD
HETATM   19  H   UNK N   1      20.982  21.332   2.925  0.00  0.00     0.187 HD
HETATM   20  H   UNK N   1      19.653  16.318   0.676  0.00  0.00     0.162 HD
ENDROOT
BRANCH  11  21
HETATM   21  O   UNK N   1      20.132  14.995   5.055  0.00  0.00    -0.347 OA
HETATM   22  H   UNK N   1      20.287  15.302   5.927  0.00  0.00     0.219 HD
ENDBRANCH  11  21
TORSDOF 1
ENDMDL
MODEL 7
REMARK VINA RESULT:      -5.6     13.438     16.002
REMARK  1 active torsions:
REMARK  status: ('A' for Active; 'I' for Inactive)
REMARK       I    between atoms: C_3  and  N_4 
REMARK    1  A    between atoms: C_11  and  O_17 
ROOT
HETATM    1  N   UNK N   1      21.988  20.712   1.948  0.00  0.00    -0.175 N 
ATOM      2  HN  UNK N   1      22.533  21.472   1.541  1.00  0.00     0.186 HD
HETATM    3  C   UNK N   1      20.702  20.520   1.554  0.00  0.00     0.680 A 
HETATM    4  N   UNK N   1      20.131  21.370   0.587  0.00  0.00    -0.234 N 
HETATM    5  N   UNK N   1      19.966  19.510   2.090  0.00  0.00    -0.154 N 
HETATM    6  C   UNK N   1      20.509  18.675   3.032  0.00  0.00     0.290 A 
HETATM    7  O   UNK N   1      19.840  17.774   3.505  0.00  0.00    -0.265 OA
HETATM    8  C   UNK N   1      21.828  18.867   3.441  0.00  0.00     0.148 A 
HETATM    9  N   UNK N   1      22.420  18.026   4.409  0.00  0.00    -0.331 N 
ATOM     10  HN  UNK N   1      21.857  17.273   4.803  1.00  0.00     0.168 HD
HETATM   11  C   UNK N   1      23.636  18.161   4.821  0.00  0.00     0.144 A 
HETATM   12  C   UNK N   1      24.565  19.289   4.268  0.00  0.00     0.089 A 
HETATM   13  C   UNK N   1      25.829  18.994   5.066  0.00  0.00     0.047 A 
HETATM   14  C   UNK N   1      25.792  20.152   4.069  0.00  0.00     0.047 A 
HETATM   15  N   UNK N   1      23.887  20.109   3.281  0.00  0.00    -0.358 N 
HETATM   16  C   UNK N   1      22.556  19.902   2.879  0.00  0.00     0.150 A 
HETATM   17  H   UNK N   1      19.199  21.232   0.300  0.00  0.00     0.174 HD
HETATM   18  H   UNK N   1      20.662  22.101   0.198  0.00  0.00     0.174 HD
HETATM   19  H   UNK N   1      19.035  19.377   1.799  0.00  0.00     0.187 HD
HETATM   20  H   UNK N   1      24.387  20.851   2.870  0.00  0.00     0.162 HD
ENDROOT
BRANCH  11  21
HETATM   21  O   UNK N   1      24.073  17.282   5.754  0.00  0.00    -0.347 OA
HETATM   22  H   UNK N   1      24.992  17.160   5.889  0.00  0.00     0.219 HD
ENDBRANCH  11  21
TORSDOF 1
ENDMDL
MODEL 8
REMARK VINA RESULT:      -5.6     17.467     19.545
REMARK  1 active torsions:
REMARK  status: ('A' for Active; 'I' for Inactive)
REMARK       I    between atoms: C_3  and  N_4 
REMARK    1  A    between atoms: C_11  and  O_17 
ROOT
HETATM    1  N   UNK N   1      27.485  23.433  -6.189  0.00  0.00    -0.175 N 
ATOM      2  HN  UNK N   1      27.745  22.945  -7.047  1.00  0.00     0.186 HD
HETATM    3  C   UNK N   1      26.374  24.216  -6.172  0.00  0.00     0.680 A 
HETATM    4  N   UNK N   1      25.592  24.349  -7.335  0.00  0.00    -0.234 N 
HETATM    5  N   UNK N   1      26.018  24.871  -5.035  0.00  0.00    -0.154 N 
HETATM    6  C   UNK N   1      26.770  24.751  -3.896  0.00  0.00     0.290 A 
HETATM    7  O   UNK N   1      26.440  25.343  -2.884  0.00  0.00    -0.265 OA
HETATM    8  C   UNK N   1      27.910  23.950  -3.907  0.00  0.00     0.148 A 
HETATM    9  N   UNK N   1      28.710  23.803  -2.751  0.00  0.00    -0.331 N 
ATOM     10  HN  UNK N   1      28.431  24.299  -1.905  1.00  0.00     0.168 HD
HETATM   11  C   UNK N   1      29.773  23.073  -2.709  0.00  0.00     0.144 A 
HETATM   12  C   UNK N   1      30.270  22.280  -3.961  0.00  0.00     0.089 A 
HETATM   13  C   UNK N   1      31.511  21.621  -3.371  0.00  0.00     0.047 A 
HETATM   14  C   UNK N   1      31.118  21.377  -4.828  0.00  0.00     0.047 A 
HETATM   15  N   UNK N   1      29.399  22.480  -5.105  0.00  0.00    -0.358 N 
HETATM   16  C   UNK N   1      28.252  23.293  -5.077  0.00  0.00     0.150 A 
HETATM   17  H   UNK N   1      24.787  24.916  -7.324  0.00  0.00     0.174 HD
HETATM   18  H   UNK N   1      25.849  23.875  -8.158  0.00  0.00     0.174 HD
HETATM   19  H   UNK N   1      25.212  25.436  -5.030  0.00  0.00     0.187 HD
HETATM   20  H   UNK N   1      29.624  22.023  -5.947  0.00  0.00     0.162 HD
ENDROOT
BRANCH  11  21
HETATM   21  O   UNK N   1      30.443  23.024  -1.533  0.00  0.00    -0.347 OA
HETATM   22  H   UNK N   1      29.975  22.893  -0.732  0.00  0.00     0.219 HD
ENDBRANCH  11  21
TORSDOF 1
ENDMDL
MODEL 9
REMARK VINA RESULT:      -5.5     15.080     16.591
REMARK  1 active torsions:
REMARK  status: ('A' for Active; 'I' for Inactive)
REMARK       I    between atoms: C_3  and  N_4 
REMARK    1  A    between atoms: C_11  and  O_17 
ROOT
HETATM    1  N   UNK N   1      20.102  19.264   2.036  0.00  0.00    -0.175 N 
ATOM      2  HN  UNK N   1      19.201  18.998   1.638  1.00  0.00     0.186 HD
HETATM    3  C   UNK N   1      20.809  20.281   1.477  0.00  0.00     0.680 A 
HETATM    4  N   UNK N   1      20.295  20.960   0.356  0.00  0.00    -0.234 N 
HETATM    5  N   UNK N   1      22.011  20.645   1.999  0.00  0.00    -0.154 N 
HETATM    6  C   UNK N   1      22.523  19.993   3.091  0.00  0.00     0.290 A 
HETATM    7  O   UNK N   1      23.601  20.328   3.549  0.00  0.00    -0.265 OA
HETATM    8  C   UNK N   1      21.803  18.949   3.668  0.00  0.00     0.148 A 
HETATM    9  N   UNK N   1      22.300  18.255   4.793  0.00  0.00    -0.331 N 
ATOM     10  HN  UNK N   1      23.203  18.538   5.175  1.00  0.00     0.168 HD
HETATM   11  C   UNK N   1      21.672  17.282   5.364  0.00  0.00     0.144 A 
HETATM   12  C   UNK N   1      20.285  16.788   4.843  0.00  0.00     0.089 A 
HETATM   13  C   UNK N   1      20.019  15.670   5.845  0.00  0.00     0.047 A 
HETATM   14  C   UNK N   1      19.008  15.983   4.741  0.00  0.00     0.047 A 
HETATM   15  N   UNK N   1      19.842  17.547   3.688  0.00  0.00    -0.358 N 
HETATM   16  C   UNK N   1      20.581  18.598   3.118  0.00  0.00     0.150 A 
HETATM   17  H   UNK N   1      20.807  21.697  -0.050  0.00  0.00     0.174 HD
HETATM   18  H   UNK N   1      19.425  20.698  -0.023  0.00  0.00     0.174 HD
HETATM   19  H   UNK N   1      22.518  21.383   1.589  0.00  0.00     0.187 HD
HETATM   20  H   UNK N   1      18.976  17.314   3.282  0.00  0.00     0.162 HD
ENDROOT
BRANCH  11  21
HETATM   21  O   UNK N   1      22.268  16.708   6.436  0.00  0.00    -0.347 OA
HETATM   22  H   UNK N   1      21.880  15.958   6.843  0.00  0.00     0.219 HD
ENDBRANCH  11  21
TORSDOF 1
ENDMDL
