MODEL 1
REMARK VINA RESULT:      -5.8      0.000      0.000
REMARK  8 active torsions:
REMARK  status: ('A' for Active; 'I' for Inactive)
REMARK    1  A    between atoms: S_1  and  C_2 
REMARK    2  A    between atoms: C_2  and  C_3 
REMARK    3  A    between atoms: C_3  and  C_4 
REMARK    4  A    between atoms: C_3  and  N_13 
REMARK    5  A    between atoms: C_4  and  C_5 
REMARK       I    between atoms: C_11  and  N_13 
REMARK    6  A    between atoms: C_11  and  C_14 
REMARK    7  A    between atoms: C_14  and  C_15 
REMARK    8  A    between atoms: C_15  and  O_16 
ROOT
HETATM    1  C   UNK N   1      35.216  11.672  13.093  0.00  0.00     0.097 C 
ENDROOT
BRANCH   1   2
HETATM    2  C   UNK N   1      35.347  10.396  12.249  0.00  0.00     0.096 C 
BRANCH   2   3
HETATM    3  S   UNK N   1      33.775   9.930  11.451  0.00  0.00    -0.180 SA
HETATM    4  H   UNK N   1      32.616   9.650  12.105  0.00  0.00     0.101 HD
ENDBRANCH   2   3
ENDBRANCH   1   2
BRANCH   1   5
HETATM    5  C   UNK N   1      34.159  11.467  14.184  0.00  0.00     0.064 C 
BRANCH   5   6
HETATM    6  C   UNK N   1      34.574  11.703  15.616  0.00  0.00    -0.056 A 
HETATM    7  C   UNK N   1      34.866  10.651  16.500  0.00  0.00     0.007 A 
HETATM    8  C   UNK N   1      35.221  10.919  17.825  0.00  0.00     0.001 A 
HETATM    9  C   UNK N   1      35.295  12.239  18.276  0.00  0.00     0.000 A 
HETATM   10  C   UNK N   1      35.014  13.291  17.401  0.00  0.00     0.001 A 
HETATM   11  C   UNK N   1      34.650  13.023  16.077  0.00  0.00     0.007 A 
ENDBRANCH   5   6
ENDBRANCH   1   5
BRANCH   1  12
HETATM   12  N   UNK N   1      34.768  12.782  12.272  0.00  0.00    -0.355 N 
HETATM   13  C   UNK N   1      35.331  14.016  12.251  0.00  0.00     0.227 C 
HETATM   14  O   UNK N   1      36.287  14.274  12.968  0.00  0.00    -0.273 OA
HETATM   15  H   UNK N   1      33.994  12.627  11.684  0.00  0.00     0.162 HD
BRANCH  13  16
HETATM   16  C   UNK N   1      34.738  15.069  11.348  0.00  0.00     0.212 C 
BRANCH  16  17
HETATM   17  C   UNK N   1      35.630  16.212  10.933  0.00  0.00     0.148 C 
HETATM   18  O   UNK N   1      35.175  17.315  10.667  0.00  0.00    -0.650 OA
BRANCH  17  19
HETATM   19  O   UNK N   1      36.960  16.017  10.871  0.00  0.00    -0.776 OA
HETATM   20  H   UNK N   1      37.354  15.723  10.075  0.00  0.00     0.167 HD
ENDBRANCH  17  19
ENDBRANCH  16  17
ENDBRANCH  13  16
ENDBRANCH   1  12
TORSDOF 8
ENDMDL
MODEL 2
REMARK VINA RESULT:      -5.6     20.543     24.022
REMARK  8 active torsions:
REMARK  status: ('A' for Active; 'I' for Inactive)
REMARK    1  A    between atoms: S_1  and  C_2 
REMARK    2  A    between atoms: C_2  and  C_3 
REMARK    3  A    between atoms: C_3  and  C_4 
REMARK    4  A    between atoms: C_3  and  N_13 
REMARK    5  A    between atoms: C_4  and  C_5 
REMARK       I    between atoms: C_11  and  N_13 
REMARK    6  A    between atoms: C_11  and  C_14 
REMARK    7  A    between atoms: C_14  and  C_15 
REMARK    8  A    between atoms: C_15  and  O_16 
ROOT
HETATM    1  C   UNK N   1      25.964  24.464  -5.225  0.00  0.00     0.097 C 
ENDROOT
BRANCH   1   2
HETATM    2  C   UNK N   1      25.657  23.195  -6.034  0.00  0.00     0.096 C 
BRANCH   2   3
HETATM    3  S   UNK N   1      25.870  23.452  -7.827  0.00  0.00    -0.180 SA
HETATM    4  H   UNK N   1      25.744  24.643  -8.469  0.00  0.00     0.101 HD
ENDBRANCH   2   3
ENDBRANCH   1   2
BRANCH   1   5
HETATM    5  C   UNK N   1      25.771  25.703  -6.107  0.00  0.00     0.064 C 
BRANCH   5   6
HETATM    6  C   UNK N   1      26.147  27.044  -5.525  0.00  0.00    -0.056 A 
HETATM    7  C   UNK N   1      25.594  27.528  -4.328  0.00  0.00     0.007 A 
HETATM    8  C   UNK N   1      25.954  28.789  -3.842  0.00  0.00     0.001 A 
HETATM    9  C   UNK N   1      26.874  29.571  -4.544  0.00  0.00     0.000 A 
HETATM   10  C   UNK N   1      27.434  29.093  -5.731  0.00  0.00     0.001 A 
HETATM   11  C   UNK N   1      27.067  27.836  -6.222  0.00  0.00     0.007 A 
ENDBRANCH   5   6
ENDBRANCH   1   5
BRANCH   1  12
HETATM   12  N   UNK N   1      27.348  24.467  -4.786  0.00  0.00    -0.355 N 
HETATM   13  C   UNK N   1      27.771  24.173  -3.531  0.00  0.00     0.227 C 
HETATM   14  O   UNK N   1      26.966  23.886  -2.656  0.00  0.00    -0.273 OA
HETATM   15  H   UNK N   1      28.034  24.702  -5.452  0.00  0.00     0.162 HD
BRANCH  13  16
HETATM   16  C   UNK N   1      29.248  24.234  -3.231  0.00  0.00     0.212 C 
BRANCH  16  17
HETATM   17  C   UNK N   1      29.874  23.028  -2.576  0.00  0.00     0.148 C 
HETATM   18  O   UNK N   1      30.317  23.077  -1.438  0.00  0.00    -0.650 OA
BRANCH  17  19
HETATM   19  O   UNK N   1      29.930  21.868  -3.255  0.00  0.00    -0.776 OA
HETATM   20  H   UNK N   1      29.168  21.329  -3.326  0.00  0.00     0.167 HD
ENDBRANCH  17  19
ENDBRANCH  16  17
ENDBRANCH  13  16
ENDBRANCH   1  12
TORSDOF 8
ENDMDL
MODEL 3
REMARK VINA RESULT:      -5.6      7.398     10.177
REMARK  8 active torsions:
REMARK  status: ('A' for Active; 'I' for Inactive)
REMARK    1  A    between atoms: S_1  and  C_2 
REMARK    2  A    between atoms: C_2  and  C_3 
REMARK    3  A    between atoms: C_3  and  C_4 
REMARK    4  A    between atoms: C_3  and  N_13 
REMARK    5  A    between atoms: C_4  and  C_5 
REMARK       I    between atoms: C_11  and  N_13 
REMARK    6  A    between atoms: C_11  and  C_14 
REMARK    7  A    between atoms: C_14  and  C_15 
REMARK    8  A    between atoms: C_15  and  O_16 
ROOT
HETATM    1  C   UNK N   1      33.249  17.013   8.188  0.00  0.00     0.097 C 
ENDROOT
BRANCH   1   2
HETATM    2  C   UNK N   1      34.440  16.862   9.147  0.00  0.00     0.096 C 
BRANCH   2   3
HETATM    3  S   UNK N   1      35.042  15.143   9.234  0.00  0.00    -0.180 SA
HETATM    4  H   UNK N   1      35.356  14.480  10.378  0.00  0.00     0.101 HD
ENDBRANCH   2   3
ENDBRANCH   1   2
BRANCH   1   5
HETATM    5  C   UNK N   1      33.690  17.760   6.925  0.00  0.00     0.064 C 
BRANCH   5   6
HETATM    6  C   UNK N   1      33.536  17.051   5.601  0.00  0.00    -0.056 A 
HETATM    7  C   UNK N   1      34.090  15.784   5.355  0.00  0.00     0.007 A 
HETATM    8  C   UNK N   1      33.944  15.179   4.103  0.00  0.00     0.001 A 
HETATM    9  C   UNK N   1      33.236  15.831   3.091  0.00  0.00     0.000 A 
HETATM   10  C   UNK N   1      32.675  17.088   3.330  0.00  0.00     0.001 A 
HETATM   11  C   UNK N   1      32.829  17.697   4.579  0.00  0.00     0.007 A 
ENDBRANCH   5   6
ENDBRANCH   1   5
BRANCH   1  12
HETATM   12  N   UNK N   1      32.197  17.802   8.803  0.00  0.00    -0.355 N 
HETATM   13  C   UNK N   1      30.868  17.634   8.592  0.00  0.00     0.227 C 
HETATM   14  O   UNK N   1      30.466  16.771   7.824  0.00  0.00    -0.273 OA
HETATM   15  H   UNK N   1      32.470  18.518   9.422  0.00  0.00     0.162 HD
BRANCH  13  16
HETATM   16  C   UNK N   1      29.899  18.548   9.299  0.00  0.00     0.212 C 
BRANCH  16  17
HETATM   17  C   UNK N   1      28.487  18.607   8.772  0.00  0.00     0.148 C 
HETATM   18  O   UNK N   1      28.210  19.220   7.752  0.00  0.00    -0.650 OA
BRANCH  17  19
HETATM   19  O   UNK N   1      27.513  17.953   9.432  0.00  0.00    -0.776 OA
HETATM   20  H   UNK N   1      27.724  17.423  10.174  0.00  0.00     0.167 HD
ENDBRANCH  17  19
ENDBRANCH  16  17
ENDBRANCH  13  16
ENDBRANCH   1  12
TORSDOF 8
ENDMDL
MODEL 4
REMARK VINA RESULT:      -5.4      5.414      8.279
REMARK  8 active torsions:
REMARK  status: ('A' for Active; 'I' for Inactive)
REMARK    1  A    between atoms: S_1  and  C_2 
REMARK    2  A    between atoms: C_2  and  C_3 
REMARK    3  A    between atoms: C_3  and  C_4 
REMARK    4  A    between atoms: C_3  and  N_13 
REMARK    5  A    between atoms: C_4  and  C_5 
REMARK       I    between atoms: C_11  and  N_13 
REMARK    6  A    between atoms: C_11  and  C_14 
REMARK    7  A    between atoms: C_14  and  C_15 
REMARK    8  A    between atoms: C_15  and  O_16 
ROOT
HETATM    1  C   UNK N   1      32.763  15.837   7.204  0.00  0.00     0.097 C 
ENDROOT
BRANCH   1   2
HETATM    2  C   UNK N   1      33.459  15.502   5.877  0.00  0.00     0.096 C 
BRANCH   2   3
HETATM    3  S   UNK N   1      35.211  15.056   6.109  0.00  0.00    -0.180 SA
HETATM    4  H   UNK N   1      36.137  14.970   5.118  0.00  0.00     0.101 HD
ENDBRANCH   2   3
ENDBRANCH   1   2
BRANCH   1   5
HETATM    5  C   UNK N   1      32.217  17.268   7.160  0.00  0.00     0.064 C 
BRANCH   5   6
HETATM    6  C   UNK N   1      30.873  17.527   7.795  0.00  0.00    -0.056 A 
HETATM    7  C   UNK N   1      29.672  17.057   7.238  0.00  0.00     0.007 A 
HETATM    8  C   UNK N   1      28.448  17.345   7.850  0.00  0.00     0.001 A 
HETATM    9  C   UNK N   1      28.415  18.097   9.026  0.00  0.00     0.000 A 
HETATM   10  C   UNK N   1      29.606  18.561   9.591  0.00  0.00     0.001 A 
HETATM   11  C   UNK N   1      30.829  18.281   8.974  0.00  0.00     0.007 A 
ENDBRANCH   5   6
ENDBRANCH   1   5
BRANCH   1  12
HETATM   12  N   UNK N   1      33.708  15.778   8.305  0.00  0.00    -0.355 N 
HETATM   13  C   UNK N   1      33.421  15.356   9.561  0.00  0.00     0.227 C 
HETATM   14  O   UNK N   1      32.289  14.996   9.851  0.00  0.00    -0.273 OA
HETATM   15  H   UNK N   1      34.632  16.068   8.124  0.00  0.00     0.162 HD
BRANCH  13  16
HETATM   16  C   UNK N   1      34.516  15.367  10.599  0.00  0.00     0.212 C 
BRANCH  16  17
HETATM   17  C   UNK N   1      35.579  16.430  10.477  0.00  0.00     0.148 C 
HETATM   18  O   UNK N   1      35.320  17.548  10.059  0.00  0.00    -0.650 OA
BRANCH  17  19
HETATM   19  O   UNK N   1      36.838  16.144  10.855  0.00  0.00    -0.776 OA
HETATM   20  H   UNK N   1      37.105  15.253  10.960  0.00  0.00     0.167 HD
ENDBRANCH  17  19
ENDBRANCH  16  17
ENDBRANCH  13  16
ENDBRANCH   1  12
TORSDOF 8
ENDMDL
MODEL 5
REMARK VINA RESULT:      -5.3      2.673      3.744
REMARK  8 active torsions:
REMARK  status: ('A' for Active; 'I' for Inactive)
REMARK    1  A    between atoms: S_1  and  C_2 
REMARK    2  A    between atoms: C_2  and  C_3 
REMARK    3  A    between atoms: C_3  and  C_4 
REMARK    4  A    between atoms: C_3  and  N_13 
REMARK    5  A    between atoms: C_4  and  C_5 
REMARK       I    between atoms: C_11  and  N_13 
REMARK    6  A    between atoms: C_11  and  C_14 
REMARK    7  A    between atoms: C_14  and  C_15 
REMARK    8  A    between atoms: C_15  and  O_16 
ROOT
HETATM    1  C   UNK N   1      36.208  14.468  11.068  0.00  0.00     0.097 C 
ENDROOT
BRANCH   1   2
HETATM    2  C   UNK N   1      37.130  13.307  10.669  0.00  0.00     0.096 C 
BRANCH   2   3
HETATM    3  S   UNK N   1      38.487  13.847   9.577  0.00  0.00    -0.180 SA
HETATM    4  H   UNK N   1      39.551  14.601   9.962  0.00  0.00     0.101 HD
ENDBRANCH   2   3
ENDBRANCH   1   2
BRANCH   1   5
HETATM    5  C   UNK N   1      35.100  13.957  11.996  0.00  0.00     0.064 C 
BRANCH   5   6
HETATM    6  C   UNK N   1      35.486  13.573  13.404  0.00  0.00    -0.056 A 
HETATM    7  C   UNK N   1      36.447  14.282  14.143  0.00  0.00     0.007 A 
HETATM    8  C   UNK N   1      36.791  13.872  15.435  0.00  0.00     0.001 A 
HETATM    9  C   UNK N   1      36.171  12.757  16.001  0.00  0.00     0.000 A 
HETATM   10  C   UNK N   1      35.207  12.051  15.276  0.00  0.00     0.001 A 
HETATM   11  C   UNK N   1      34.871  12.455  13.981  0.00  0.00     0.007 A 
ENDBRANCH   5   6
ENDBRANCH   1   5
BRANCH   1  12
HETATM   12  N   UNK N   1      35.556  15.027   9.898  0.00  0.00    -0.355 N 
HETATM   13  C   UNK N   1      35.298  16.344   9.700  0.00  0.00     0.227 C 
HETATM   14  O   UNK N   1      35.608  17.170  10.547  0.00  0.00    -0.273 OA
HETATM   15  H   UNK N   1      35.278  14.400   9.191  0.00  0.00     0.162 HD
BRANCH  13  16
HETATM   16  C   UNK N   1      34.600  16.764   8.431  0.00  0.00     0.212 C 
BRANCH  16  17
HETATM   17  C   UNK N   1      34.258  18.226   8.277  0.00  0.00     0.148 C 
HETATM   18  O   UNK N   1      33.113  18.595   8.066  0.00  0.00    -0.650 OA
BRANCH  17  19
HETATM   19  O   UNK N   1      35.235  19.143   8.392  0.00  0.00    -0.776 OA
HETATM   20  H   UNK N   1      35.025  20.055   8.383  0.00  0.00     0.167 HD
ENDBRANCH  17  19
ENDBRANCH  16  17
ENDBRANCH  13  16
ENDBRANCH   1  12
TORSDOF 8
ENDMDL
MODEL 6
REMARK VINA RESULT:      -5.3      6.040      9.925
REMARK  8 active torsions:
REMARK  status: ('A' for Active; 'I' for Inactive)
REMARK    1  A    between atoms: S_1  and  C_2 
REMARK    2  A    between atoms: C_2  and  C_3 
REMARK    3  A    between atoms: C_3  and  C_4 
REMARK    4  A    between atoms: C_3  and  N_13 
REMARK    5  A    between atoms: C_4  and  C_5 
REMARK       I    between atoms: C_11  and  N_13 
REMARK    6  A    between atoms: C_11  and  C_14 
REMARK    7  A    between atoms: C_14  and  C_15 
REMARK    8  A    between atoms: C_15  and  O_16 
ROOT
HETATM    1  C   UNK N   1      31.664  17.808   8.196  0.00  0.00     0.097 C 
ENDROOT
BRANCH   1   2
HETATM    2  C   UNK N   1      30.572  18.440   9.071  0.00  0.00     0.096 C 
BRANCH   2   3
HETATM    3  S   UNK N   1      28.895  17.981   8.520  0.00  0.00    -0.180 SA
HETATM    4  H   UNK N   1      28.315  18.378   7.357  0.00  0.00     0.101 HD
ENDBRANCH   2   3
ENDBRANCH   1   2
BRANCH   1   5
HETATM    5  C   UNK N   1      31.039  16.788   7.238  0.00  0.00     0.064 C 
BRANCH   5   6
HETATM    6  C   UNK N   1      31.427  16.863   5.782  0.00  0.00    -0.056 A 
HETATM    7  C   UNK N   1      32.687  17.318   5.360  0.00  0.00     0.007 A 
HETATM    8  C   UNK N   1      32.991  17.395   3.997  0.00  0.00     0.001 A 
HETATM    9  C   UNK N   1      32.042  17.011   3.047  0.00  0.00     0.000 A 
HETATM   10  C   UNK N   1      30.789  16.550   3.459  0.00  0.00     0.001 A 
HETATM   11  C   UNK N   1      30.482  16.481   4.822  0.00  0.00     0.007 A 
ENDBRANCH   5   6
ENDBRANCH   1   5
BRANCH   1  12
HETATM   12  N   UNK N   1      32.621  17.088   9.017  0.00  0.00    -0.355 N 
HETATM   13  C   UNK N   1      33.962  17.292   9.017  0.00  0.00     0.227 C 
HETATM   14  O   UNK N   1      34.462  18.130   8.279  0.00  0.00    -0.273 OA
HETATM   15  H   UNK N   1      32.269  16.395   9.622  0.00  0.00     0.162 HD
BRANCH  13  16
HETATM   16  C   UNK N   1      34.825  16.450   9.923  0.00  0.00     0.212 C 
BRANCH  16  17
HETATM   17  C   UNK N   1      34.304  15.087  10.310  0.00  0.00     0.148 C 
HETATM   18  O   UNK N   1      34.803  14.063   9.867  0.00  0.00    -0.650 OA
BRANCH  17  19
HETATM   19  O   UNK N   1      33.279  14.999  11.176  0.00  0.00    -0.776 OA
HETATM   20  H   UNK N   1      32.757  15.754  11.363  0.00  0.00     0.167 HD
ENDBRANCH  17  19
ENDBRANCH  16  17
ENDBRANCH  13  16
ENDBRANCH   1  12
TORSDOF 8
ENDMDL
MODEL 7
REMARK VINA RESULT:      -5.1     16.059     17.584
REMARK  8 active torsions:
REMARK  status: ('A' for Active; 'I' for Inactive)
REMARK    1  A    between atoms: S_1  and  C_2 
REMARK    2  A    between atoms: C_2  and  C_3 
REMARK    3  A    between atoms: C_3  and  C_4 
REMARK    4  A    between atoms: C_3  and  N_13 
REMARK    5  A    between atoms: C_4  and  C_5 
REMARK       I    between atoms: C_11  and  N_13 
REMARK    6  A    between atoms: C_11  and  C_14 
REMARK    7  A    between atoms: C_14  and  C_15 
REMARK    8  A    between atoms: C_15  and  O_16 
ROOT
HETATM    1  C   UNK N   1      21.364  17.899   4.603  0.00  0.00     0.097 C 
ENDROOT
BRANCH   1   2
HETATM    2  C   UNK N   1      20.346  17.698   3.472  0.00  0.00     0.096 C 
BRANCH   2   3
HETATM    3  S   UNK N   1      19.783  19.280   2.760  0.00  0.00    -0.180 SA
HETATM    4  H   UNK N   1      19.483  20.398   3.472  0.00  0.00     0.101 HD
ENDBRANCH   2   3
ENDBRANCH   1   2
BRANCH   1   5
HETATM    5  C   UNK N   1      22.745  17.408   4.153  0.00  0.00     0.064 C 
BRANCH   5   6
HETATM    6  C   UNK N   1      23.789  18.450   3.830  0.00  0.00    -0.056 A 
HETATM    7  C   UNK N   1      23.457  19.722   3.336  0.00  0.00     0.007 A 
HETATM    8  C   UNK N   1      24.461  20.644   3.025  0.00  0.00     0.001 A 
HETATM    9  C   UNK N   1      25.803  20.305   3.214  0.00  0.00     0.000 A 
HETATM   10  C   UNK N   1      26.141  19.045   3.712  0.00  0.00     0.001 A 
HETATM   11  C   UNK N   1      25.137  18.119   4.014  0.00  0.00     0.007 A 
ENDBRANCH   5   6
ENDBRANCH   1   5
BRANCH   1  12
HETATM   12  N   UNK N   1      20.994  17.115   5.768  0.00  0.00    -0.355 N 
HETATM   13  C   UNK N   1      20.760  17.617   7.006  0.00  0.00     0.227 C 
HETATM   14  O   UNK N   1      20.865  18.817   7.219  0.00  0.00    -0.273 OA
HETATM   15  H   UNK N   1      20.907  16.142   5.650  0.00  0.00     0.162 HD
BRANCH  13  16
HETATM   16  C   UNK N   1      20.396  16.665   8.118  0.00  0.00     0.212 C 
BRANCH  16  17
HETATM   17  C   UNK N   1      19.120  16.936   8.876  0.00  0.00     0.148 C 
HETATM   18  O   UNK N   1      18.379  16.029   9.226  0.00  0.00    -0.650 OA
BRANCH  17  19
HETATM   19  O   UNK N   1      18.800  18.205   9.187  0.00  0.00    -0.776 OA
HETATM   20  H   UNK N   1      17.939  18.409   9.496  0.00  0.00     0.167 HD
ENDBRANCH  17  19
ENDBRANCH  16  17
ENDBRANCH  13  16
ENDBRANCH   1  12
TORSDOF 8
ENDMDL
MODEL 8
REMARK VINA RESULT:      -5.1      5.462      9.563
REMARK  8 active torsions:
REMARK  status: ('A' for Active; 'I' for Inactive)
REMARK    1  A    between atoms: S_1  and  C_2 
REMARK    2  A    between atoms: C_2  and  C_3 
REMARK    3  A    between atoms: C_3  and  C_4 
REMARK    4  A    between atoms: C_3  and  N_13 
REMARK    5  A    between atoms: C_4  and  C_5 
REMARK       I    between atoms: C_11  and  N_13 
REMARK    6  A    between atoms: C_11  and  C_14 
REMARK    7  A    between atoms: C_14  and  C_15 
REMARK    8  A    between atoms: C_15  and  O_16 
ROOT
HETATM    1  C   UNK N   1      32.764  17.421   7.878  0.00  0.00     0.097 C 
ENDROOT
BRANCH   1   2
HETATM    2  C   UNK N   1      31.406  16.993   7.303  0.00  0.00     0.096 C 
BRANCH   2   3
HETATM    3  S   UNK N   1      30.010  17.576   8.321  0.00  0.00    -0.180 SA
HETATM    4  H   UNK N   1      29.480  18.827   8.282  0.00  0.00     0.101 HD
ENDBRANCH   2   3
ENDBRANCH   1   2
BRANCH   1   5
HETATM    5  C   UNK N   1      33.731  17.755   6.736  0.00  0.00     0.064 C 
BRANCH   5   6
HETATM    6  C   UNK N   1      33.521  17.062   5.412  0.00  0.00    -0.056 A 
HETATM    7  C   UNK N   1      32.788  17.644   4.365  0.00  0.00     0.007 A 
HETATM    8  C   UNK N   1      32.598  16.950   3.165  0.00  0.00     0.001 A 
HETATM    9  C   UNK N   1      33.145  15.676   3.001  0.00  0.00     0.000 A 
HETATM   10  C   UNK N   1      33.881  15.094   4.035  0.00  0.00     0.001 A 
HETATM   11  C   UNK N   1      34.064  15.783   5.238  0.00  0.00     0.007 A 
ENDBRANCH   5   6
ENDBRANCH   1   5
BRANCH   1  12
HETATM   12  N   UNK N   1      33.362  16.336   8.636  0.00  0.00    -0.355 N 
HETATM   13  C   UNK N   1      34.367  16.471   9.536  0.00  0.00     0.227 C 
HETATM   14  O   UNK N   1      34.856  17.570   9.759  0.00  0.00    -0.273 OA
HETATM   15  H   UNK N   1      33.010  15.429   8.483  0.00  0.00     0.162 HD
BRANCH  13  16
HETATM   16  C   UNK N   1      34.888  15.240  10.233  0.00  0.00     0.212 C 
BRANCH  16  17
HETATM   17  C   UNK N   1      35.986  15.428  11.250  0.00  0.00     0.148 C 
HETATM   18  O   UNK N   1      35.867  15.034  12.400  0.00  0.00    -0.650 OA
BRANCH  17  19
HETATM   19  O   UNK N   1      37.130  16.029  10.875  0.00  0.00    -0.776 OA
HETATM   20  H   UNK N   1      37.878  15.513  10.648  0.00  0.00     0.167 HD
ENDBRANCH  17  19
ENDBRANCH  16  17
ENDBRANCH  13  16
ENDBRANCH   1  12
TORSDOF 8
ENDMDL
MODEL 9
REMARK VINA RESULT:      -5.0      8.422      9.550
REMARK  8 active torsions:
REMARK  status: ('A' for Active; 'I' for Inactive)
REMARK    1  A    between atoms: S_1  and  C_2 
REMARK    2  A    between atoms: C_2  and  C_3 
REMARK    3  A    between atoms: C_3  and  C_4 
REMARK    4  A    between atoms: C_3  and  N_13 
REMARK    5  A    between atoms: C_4  and  C_5 
REMARK       I    between atoms: C_11  and  N_13 
REMARK    6  A    between atoms: C_11  and  C_14 
REMARK    7  A    between atoms: C_14  and  C_15 
REMARK    8  A    between atoms: C_15  and  O_16 
ROOT
HETATM    1  C   UNK N   1      30.863  16.701   5.366  0.00  0.00     0.097 C 
ENDROOT
BRANCH   1   2
HETATM    2  C   UNK N   1      30.771  16.457   3.853  0.00  0.00     0.096 C 
BRANCH   2   3
HETATM    3  S   UNK N   1      32.361  16.747   3.009  0.00  0.00    -0.180 SA
HETATM    4  H   UNK N   1      32.600  17.731   2.102  0.00  0.00     0.101 HD
ENDBRANCH   2   3
ENDBRANCH   1   2
BRANCH   1   5
HETATM    5  C   UNK N   1      29.811  17.731   5.792  0.00  0.00     0.064 C 
BRANCH   5   6
HETATM    6  C   UNK N   1      29.388  17.745   7.241  0.00  0.00    -0.056 A 
HETATM    7  C   UNK N   1      30.155  18.357   8.245  0.00  0.00     0.007 A 
HETATM    8  C   UNK N   1      29.735  18.321   9.578  0.00  0.00     0.001 A 
HETATM    9  C   UNK N   1      28.542  17.679   9.917  0.00  0.00     0.000 A 
HETATM   10  C   UNK N   1      27.768  17.074   8.923  0.00  0.00     0.001 A 
HETATM   11  C   UNK N   1      28.193  17.103   7.591  0.00  0.00     0.007 A 
ENDBRANCH   5   6
ENDBRANCH   1   5
BRANCH   1  12
HETATM   12  N   UNK N   1      32.160  17.250   5.716  0.00  0.00    -0.355 N 
HETATM   13  C   UNK N   1      32.951  16.808   6.726  0.00  0.00     0.227 C 
HETATM   14  O   UNK N   1      32.587  15.882   7.438  0.00  0.00    -0.273 OA
HETATM   15  H   UNK N   1      32.493  18.005   5.179  0.00  0.00     0.162 HD
BRANCH  13  16
HETATM   16  C   UNK N   1      34.270  17.496   6.970  0.00  0.00     0.212 C 
BRANCH  16  17
HETATM   17  C   UNK N   1      34.488  18.122   8.325  0.00  0.00     0.148 C 
HETATM   18  O   UNK N   1      35.204  19.102   8.468  0.00  0.00    -0.650 OA
BRANCH  17  19
HETATM   19  O   UNK N   1      33.866  17.599   9.396  0.00  0.00    -0.776 OA
HETATM   20  H   UNK N   1      33.862  18.063  10.210  0.00  0.00     0.167 HD
ENDBRANCH  17  19
ENDBRANCH  16  17
ENDBRANCH  13  16
ENDBRANCH   1  12
TORSDOF 8
ENDMDL
