REMARK  8 active torsions:
REMARK  status: ('A' for Active; 'I' for Inactive)
REMARK    1  A    between atoms: S_1  and  C_2 
REMARK    2  A    between atoms: C_2  and  C_3 
REMARK    3  A    between atoms: C_3  and  C_4 
REMARK    4  A    between atoms: C_3  and  N_13 
REMARK    5  A    between atoms: C_4  and  C_5 
REMARK       I    between atoms: C_11  and  N_13 
REMARK    6  A    between atoms: C_11  and  C_14 
REMARK    7  A    between atoms: C_14  and  C_15 
REMARK    8  A    between atoms: C_15  and  O_16 
ROOT
HETATM    1  C   UNK N   1      -0.262   0.204   0.041  0.00  0.00     0.097 C 
ENDROOT
BRANCH   1   2
HETATM    2  C   UNK N   1      -0.284  -0.940  -0.983  0.00  0.00     0.096 C 
BRANCH   2   3
HETATM    3  S   UNK N   1       0.286  -2.518  -0.268  0.00  0.00    -0.180 SA
HETATM    4  H   UNK N   1      -0.520  -3.474   0.265  0.00  0.00     0.101 HD
ENDBRANCH   2   3
ENDBRANCH   1   2
BRANCH   1   5
HETATM    5  C   UNK N   1      -1.463   1.129  -0.186  0.00  0.00     0.064 C 
BRANCH   5   6
HETATM    6  C   UNK N   1      -2.843   0.530  -0.065  0.00  0.00    -0.056 A 
HETATM    7  C   UNK N   1      -3.055  -0.849   0.095  0.00  0.00     0.007 A 
HETATM    8  C   UNK N   1      -4.354  -1.360   0.176  0.00  0.00     0.001 A 
HETATM    9  C   UNK N   1      -5.450  -0.497   0.106  0.00  0.00     0.000 A 
HETATM   10  C   UNK N   1      -5.247   0.877  -0.045  0.00  0.00     0.001 A 
HETATM   11  C   UNK N   1      -3.948   1.387  -0.135  0.00  0.00     0.007 A 
ENDBRANCH   5   6
ENDBRANCH   1   5
BRANCH   1  12
HETATM   12  N   UNK N   1       0.933   1.012  -0.123  0.00  0.00    -0.355 N 
HETATM   13  C   UNK N   1       2.204   0.575   0.059  0.00  0.00     0.227 C 
HETATM   14  O   UNK N   1       2.420  -0.580   0.399  0.00  0.00    -0.273 OA
HETATM   15  H   UNK N   1       0.811   1.953  -0.386  0.00  0.00     0.162 HD
BRANCH  13  16
HETATM   16  C   UNK N   1       3.341   1.546  -0.139  0.00  0.00     0.212 C 
BRANCH  16  17
HETATM   17  C   UNK N   1       4.745   1.005  -0.029  0.00  0.00     0.148 C 
HETATM   18  O   UNK N   1       4.963  -0.194   0.058  0.00  0.00    -0.650 OA
BRANCH  17  19
HETATM   19  O   UNK N   1       5.781   1.863  -0.045  0.00  0.00    -0.776 OA
HETATM   20  H   UNK N   1       6.659   1.538  -0.056  0.00  0.00     0.167 HD
ENDBRANCH  17  19
ENDBRANCH  16  17
ENDBRANCH  13  16
ENDBRANCH   1  12
TORSDOF 8
