REMARK  8 active torsions:
REMARK  status: ('A' for Active; 'I' for Inactive)
REMARK    1  A    between atoms: C_1  and  C_6 
REMARK       I    between atoms: C_6  and  N_8 
REMARK    2  A    between atoms: C_9  and  N_8 
REMARK    3  A    between atoms: C_9  and  C_10 
REMARK    4  A    between atoms: C_9  and  C_29 
REMARK    5  A    between atoms: C_10  and  C_11 
REMARK    6  A    between atoms: C_11  and  C_12 
REMARK    7  A    between atoms: C_12  and  N_13 
REMARK       I    between atoms: N_13  and  C_14 
REMARK       I    between atoms: C_14  and  N_17 
REMARK    8  A    between atoms: C_21  and  C_29 
ROOT
HETATM    1  C   UNK N   1      -2.410  -0.195  -0.232  0.00  0.00     0.161 C 
ENDROOT
BRANCH   1   2
HETATM    2  N   UNK N   1      -3.420  -0.771   0.643  0.00  0.00    -0.349 N 
HETATM    3  C   UNK N   1      -3.658  -2.097   0.892  0.00  0.00     0.222 C 
HETATM    4  O   UNK N   1      -4.677  -2.398   1.491  0.00  0.00    -0.273 OA
HETATM    5  H   UNK N   1      -4.002  -0.130   1.113  0.00  0.00     0.163 HD
BRANCH   3   6
HETATM    6  C   UNK N   1      -2.723  -3.226   0.512  0.00  0.00     0.078 C 
HETATM    7  C   UNK N   1      -1.459  -3.281   1.339  0.00  0.00     0.014 C 
HETATM    8  C   UNK N   1      -0.498  -4.123   0.523  0.00  0.00     0.001 C 
HETATM    9  C   UNK N   1      -1.043  -4.168  -0.902  0.00  0.00     0.001 C 
HETATM   10  C   UNK N   1      -2.303  -3.317  -0.934  0.00  0.00     0.014 C 
ENDBRANCH   3   6
ENDBRANCH   1   2
BRANCH   1  11
HETATM   11  C   UNK N   1      -1.015  -0.729   0.089  0.00  0.00     0.035 C 
BRANCH  11  12
HETATM   12  C   UNK N   1      -0.056  -0.614  -1.089  0.00  0.00     0.023 C 
BRANCH  12  13
HETATM   13  C   UNK N   1       1.215  -1.362  -0.745  0.00  0.00     0.138 C 
BRANCH  13  14
HETATM   14  N   UNK N   1       2.294  -0.440  -0.498  0.00  0.00    -0.227 N 
HETATM   15  C   UNK N   1       3.535  -0.883   0.030  0.00  0.00     0.665 C 
HETATM   16  N   UNK N   1       3.693  -2.104   0.390  0.00  0.00    -0.235 N 
HETATM   17  N   UNK N   1       4.602   0.030   0.174  0.00  0.00    -0.235 N 
HETATM   18  H   UNK N   1       2.942  -2.678   0.667  0.00  0.00     0.174 HD
ATOM     19  HN  UNK N   1       4.634  -2.497   0.390  1.00  0.00     0.174 HD
HETATM   20  H   UNK N   1       5.525  -0.295   0.274  0.00  0.00     0.174 HD
HETATM   21  H   UNK N   1       4.421   0.998   0.174  0.00  0.00     0.174 HD
HETATM   22  H   UNK N   1       2.169   0.516  -0.698  0.00  0.00     0.177 HD
ENDBRANCH  13  14
ENDBRANCH  12  13
ENDBRANCH  11  12
ENDBRANCH   1  11
BRANCH   1  23
HETATM   23  C   UNK N   1      -2.514   1.332  -0.182  0.00  0.00     0.205 C 
HETATM   24  O   UNK N   1      -3.593   1.846  -0.428  0.00  0.00    -0.288 OA
BRANCH  23  25
HETATM   25  C   UNK N   1      -1.345   2.227   0.062  0.00  0.00     0.123 A 
HETATM   26  N   UNK N   1      -0.092   1.805   0.384  0.00  0.00    -0.346 N 
HETATM   27  C   UNK N   1       0.824   2.829   0.369  0.00  0.00     0.050 A 
ATOM     28  HN  UNK N   1       0.140   0.838   0.610  1.00  0.00     0.167 HD
HETATM   29  C   UNK N   1       0.306   4.078   0.043  0.00  0.00     0.033 A 
HETATM   30  C   UNK N   1       2.183   2.663   0.607  0.00  0.00     0.031 A 
HETATM   31  S   UNK N   1      -1.313   3.874  -0.208  0.00  0.00    -0.067 SA
HETATM   32  C   UNK N   1       1.112   5.206  -0.068  0.00  0.00     0.021 A 
HETATM   33  C   UNK N   1       2.490   5.049   0.165  0.00  0.00     0.002 A 
HETATM   34  C   UNK N   1       3.022   3.785   0.503  0.00  0.00     0.002 A 
ENDBRANCH  23  25
ENDBRANCH   1  23
TORSDOF 8
