MODEL 1
REMARK VINA RESULT:      -7.3      0.000      0.000
REMARK  8 active torsions:
REMARK  status: ('A' for Active; 'I' for Inactive)
REMARK    1  A    between atoms: C_1  and  C_6 
REMARK       I    between atoms: C_6  and  N_8 
REMARK    2  A    between atoms: C_9  and  N_8 
REMARK    3  A    between atoms: C_9  and  C_10 
REMARK    4  A    between atoms: C_9  and  C_29 
REMARK    5  A    between atoms: C_10  and  C_11 
REMARK    6  A    between atoms: C_11  and  C_12 
REMARK    7  A    between atoms: C_12  and  N_13 
REMARK       I    between atoms: N_13  and  C_14 
REMARK       I    between atoms: C_14  and  N_17 
REMARK    8  A    between atoms: C_21  and  C_29 
ROOT
HETATM    1  C   UNK N   1      22.287  15.364   6.811  0.00  0.00     0.161 C 
ENDROOT
BRANCH   1   2
HETATM    2  N   UNK N   1      21.420  14.206   6.664  0.00  0.00    -0.349 N 
HETATM    3  C   UNK N   1      21.353  13.100   7.470  0.00  0.00     0.222 C 
HETATM    4  O   UNK N   1      20.714  12.137   7.077  0.00  0.00    -0.273 OA
HETATM    5  H   UNK N   1      20.807  14.219   5.893  0.00  0.00     0.163 HD
BRANCH   3   6
HETATM    6  C   UNK N   1      21.983  12.994   8.842  0.00  0.00     0.078 C 
HETATM    7  C   UNK N   1      22.914  11.814   9.002  0.00  0.00     0.014 C 
HETATM    8  C   UNK N   1      23.044  11.623  10.500  0.00  0.00     0.001 C 
HETATM    9  C   UNK N   1      21.889  12.379  11.149  0.00  0.00     0.001 C 
HETATM   10  C   UNK N   1      21.053  12.981  10.030  0.00  0.00     0.014 C 
ENDBRANCH   3   6
ENDBRANCH   1   2
BRANCH   1  11
HETATM   11  C   UNK N   1      21.494  16.622   7.164  0.00  0.00     0.035 C 
BRANCH  11  12
HETATM   12  C   UNK N   1      20.010  16.488   6.849  0.00  0.00     0.023 C 
BRANCH  12  13
HETATM   13  C   UNK N   1      19.233  16.631   8.140  0.00  0.00     0.138 C 
BRANCH  13  14
HETATM   14  N   UNK N   1      19.600  17.848   8.820  0.00  0.00    -0.227 N 
HETATM   15  C   UNK N   1      18.729  18.456   9.762  0.00  0.00     0.665 C 
HETATM   16  N   UNK N   1      17.552  17.988   9.961  0.00  0.00    -0.235 N 
HETATM   17  N   UNK N   1      19.157  19.596  10.478  0.00  0.00    -0.235 N 
HETATM   18  H   UNK N   1      17.063  17.471   9.280  0.00  0.00     0.174 HD
ATOM     19  HN  UNK N   1      17.102  18.158  10.860  1.00  0.00     0.174 HD
HETATM   20  H   UNK N   1      18.698  19.864  11.305  0.00  0.00     0.174 HD
HETATM   21  H   UNK N   1      19.919  20.124  10.146  0.00  0.00     0.174 HD
HETATM   22  H   UNK N   1      20.470  18.266   8.627  0.00  0.00     0.177 HD
ENDBRANCH  13  14
ENDBRANCH  12  13
ENDBRANCH  11  12
ENDBRANCH   1  11
BRANCH   1  23
HETATM   23  C   UNK N   1      23.148  15.510   5.552  0.00  0.00     0.205 C 
HETATM   24  O   UNK N   1      23.343  14.518   4.868  0.00  0.00    -0.288 OA
BRANCH  23  25
HETATM   25  C   UNK N   1      23.835  16.778   5.169  0.00  0.00     0.123 A 
HETATM   26  N   UNK N   1      25.120  17.097   5.486  0.00  0.00    -0.346 N 
HETATM   27  C   UNK N   1      25.546  18.238   4.850  0.00  0.00     0.050 A 
ATOM     28  HN  UNK N   1      25.699  16.550   6.122  1.00  0.00     0.167 HD
HETATM   29  C   UNK N   1      24.602  18.842   4.028  0.00  0.00     0.033 A 
HETATM   30  C   UNK N   1      26.832  18.754   4.955  0.00  0.00     0.031 A 
HETATM   31  S   UNK N   1      23.228  17.932   4.127  0.00  0.00    -0.067 SA
HETATM   32  C   UNK N   1      24.895  19.974   3.273  0.00  0.00     0.021 A 
HETATM   33  C   UNK N   1      26.195  20.502   3.367  0.00  0.00     0.002 A 
HETATM   34  C   UNK N   1      27.157  19.897   4.205  0.00  0.00     0.002 A 
ENDBRANCH  23  25
ENDBRANCH   1  23
TORSDOF 8
ENDMDL
MODEL 2
REMARK VINA RESULT:      -7.2     14.695     16.391
REMARK  8 active torsions:
REMARK  status: ('A' for Active; 'I' for Inactive)
REMARK    1  A    between atoms: C_1  and  C_6 
REMARK       I    between atoms: C_6  and  N_8 
REMARK    2  A    between atoms: C_9  and  N_8 
REMARK    3  A    between atoms: C_9  and  C_10 
REMARK    4  A    between atoms: C_9  and  C_29 
REMARK    5  A    between atoms: C_10  and  C_11 
REMARK    6  A    between atoms: C_11  and  C_12 
REMARK    7  A    between atoms: C_12  and  N_13 
REMARK       I    between atoms: N_13  and  C_14 
REMARK       I    between atoms: C_14  and  N_17 
REMARK    8  A    between atoms: C_21  and  C_29 
ROOT
HETATM    1  C   UNK N   1      26.423  24.808  -5.984  0.00  0.00     0.161 C 
ENDROOT
BRANCH   1   2
HETATM    2  N   UNK N   1      26.230  24.656  -4.549  0.00  0.00    -0.349 N 
HETATM    3  C   UNK N   1      27.151  24.259  -3.616  0.00  0.00     0.222 C 
HETATM    4  O   UNK N   1      26.756  23.990  -2.494  0.00  0.00    -0.273 OA
HETATM    5  H   UNK N   1      25.330  24.865  -4.209  0.00  0.00     0.163 HD
BRANCH   3   6
HETATM    6  C   UNK N   1      28.642  24.164  -3.862  0.00  0.00     0.078 C 
HETATM    7  C   UNK N   1      29.356  23.199  -2.944  0.00  0.00     0.014 C 
HETATM    8  C   UNK N   1      30.816  23.599  -3.022  0.00  0.00     0.001 C 
HETATM    9  C   UNK N   1      30.864  25.006  -3.610  0.00  0.00     0.001 C 
HETATM   10  C   UNK N   1      29.428  25.452  -3.840  0.00  0.00     0.014 C 
ENDBRANCH   3   6
ENDBRANCH   1   2
BRANCH   1  11
HETATM   11  C   UNK N   1      25.587  25.956  -6.547  0.00  0.00     0.035 C 
BRANCH  11  12
HETATM   12  C   UNK N   1      25.208  26.982  -5.487  0.00  0.00     0.023 C 
BRANCH  12  13
HETATM   13  C   UNK N   1      26.248  28.083  -5.495  0.00  0.00     0.138 C 
BRANCH  13  14
HETATM   14  N   UNK N   1      26.952  28.124  -4.239  0.00  0.00    -0.227 N 
HETATM   15  C   UNK N   1      26.804  29.219  -3.348  0.00  0.00     0.665 C 
HETATM   16  N   UNK N   1      26.112  30.246  -3.683  0.00  0.00    -0.235 N 
HETATM   17  N   UNK N   1      27.436  29.186  -2.085  0.00  0.00    -0.235 N 
HETATM   18  H   UNK N   1      25.967  30.505  -4.622  0.00  0.00     0.174 HD
ATOM     19  HN  UNK N   1      25.696  30.817  -2.948  1.00  0.00     0.174 HD
HETATM   20  H   UNK N   1      27.137  29.784  -1.364  0.00  0.00     0.174 HD
HETATM   21  H   UNK N   1      28.179  28.560  -1.926  0.00  0.00     0.174 HD
HETATM   22  H   UNK N   1      27.547  27.380  -3.993  0.00  0.00     0.177 HD
ENDBRANCH  13  14
ENDBRANCH  12  13
ENDBRANCH  11  12
ENDBRANCH   1  11
BRANCH   1  23
HETATM   23  C   UNK N   1      26.168  23.463  -6.670  0.00  0.00     0.205 C 
HETATM   24  O   UNK N   1      25.012  23.100  -6.819  0.00  0.00    -0.288 OA
BRANCH  23  25
HETATM   25  C   UNK N   1      27.258  22.532  -7.083  0.00  0.00     0.123 A 
HETATM   26  N   UNK N   1      28.472  22.432  -6.476  0.00  0.00    -0.346 N 
HETATM   27  C   UNK N   1      29.206  21.370  -6.946  0.00  0.00     0.050 A 
ATOM     28  HN  UNK N   1      28.799  23.074  -5.753  1.00  0.00     0.167 HD
HETATM   29  C   UNK N   1      28.586  20.619  -7.939  0.00  0.00     0.033 A 
HETATM   30  C   UNK N   1      30.457  21.010  -6.459  0.00  0.00     0.031 A 
HETATM   31  S   UNK N   1      27.117  21.319  -8.221  0.00  0.00    -0.067 SA
HETATM   32  C   UNK N   1      29.173  19.481  -8.480  0.00  0.00     0.021 A 
HETATM   33  C   UNK N   1      30.437  19.103  -7.991  0.00  0.00     0.002 A 
HETATM   34  C   UNK N   1      31.076  19.865  -6.987  0.00  0.00     0.002 A 
ENDBRANCH  23  25
ENDBRANCH   1  23
TORSDOF 8
ENDMDL
MODEL 3
REMARK VINA RESULT:      -7.2      8.598     12.196
REMARK  8 active torsions:
REMARK  status: ('A' for Active; 'I' for Inactive)
REMARK    1  A    between atoms: C_1  and  C_6 
REMARK       I    between atoms: C_6  and  N_8 
REMARK    2  A    between atoms: C_9  and  N_8 
REMARK    3  A    between atoms: C_9  and  C_10 
REMARK    4  A    between atoms: C_9  and  C_29 
REMARK    5  A    between atoms: C_10  and  C_11 
REMARK    6  A    between atoms: C_11  and  C_12 
REMARK    7  A    between atoms: C_12  and  N_13 
REMARK       I    between atoms: N_13  and  C_14 
REMARK       I    between atoms: C_14  and  N_17 
REMARK    8  A    between atoms: C_21  and  C_29 
ROOT
HETATM    1  C   UNK N   1      32.824  17.797   7.785  0.00  0.00     0.161 C 
ENDROOT
BRANCH   1   2
HETATM    2  N   UNK N   1      31.842  17.346   8.760  0.00  0.00    -0.349 N 
HETATM    3  C   UNK N   1      30.478  17.458   8.691  0.00  0.00     0.222 C 
HETATM    4  O   UNK N   1      29.828  17.210   9.693  0.00  0.00    -0.273 OA
HETATM    5  H   UNK N   1      32.202  16.908   9.565  0.00  0.00     0.163 HD
BRANCH   3   6
HETATM    6  C   UNK N   1      29.706  17.830   7.443  0.00  0.00     0.078 C 
HETATM    7  C   UNK N   1      28.537  18.754   7.697  0.00  0.00     0.014 C 
HETATM    8  C   UNK N   1      27.659  18.614   6.469  0.00  0.00     0.001 C 
HETATM    9  C   UNK N   1      28.089  17.335   5.756  0.00  0.00     0.001 C 
HETATM   10  C   UNK N   1      29.192  16.699   6.588  0.00  0.00     0.014 C 
ENDBRANCH   3   6
ENDBRANCH   1   2
BRANCH   1  11
HETATM   11  C   UNK N   1      32.850  16.895   6.552  0.00  0.00     0.035 C 
BRANCH  11  12
HETATM   12  C   UNK N   1      33.382  17.606   5.315  0.00  0.00     0.023 C 
BRANCH  12  13
HETATM   13  C   UNK N   1      32.324  17.539   4.233  0.00  0.00     0.138 C 
BRANCH  13  14
HETATM   14  N   UNK N   1      31.842  16.190   4.080  0.00  0.00    -0.227 N 
HETATM   15  C   UNK N   1      30.734  15.894   3.243  0.00  0.00     0.665 C 
HETATM   16  N   UNK N   1      30.074  16.837   2.676  0.00  0.00    -0.235 N 
HETATM   17  N   UNK N   1      30.345  14.552   3.043  0.00  0.00    -0.235 N 
HETATM   18  H   UNK N   1      30.035  17.752   3.039  0.00  0.00     0.174 HD
ATOM     19  HN  UNK N   1      29.568  16.631   1.815  1.00  0.00     0.174 HD
HETATM   20  H   UNK N   1      29.776  14.308   2.279  0.00  0.00     0.174 HD
HETATM   21  H   UNK N   1      30.645  13.857   3.672  0.00  0.00     0.174 HD
HETATM   22  H   UNK N   1      32.288  15.459   4.565  0.00  0.00     0.177 HD
ENDBRANCH  13  14
ENDBRANCH  12  13
ENDBRANCH  11  12
ENDBRANCH   1  11
BRANCH   1  23
HETATM   23  C   UNK N   1      34.184  17.943   8.473  0.00  0.00     0.205 C 
HETATM   24  O   UNK N   1      34.814  18.973   8.296  0.00  0.00    -0.288 OA
BRANCH  23  25
HETATM   25  C   UNK N   1      34.820  16.856   9.274  0.00  0.00     0.123 A 
HETATM   26  N   UNK N   1      35.097  16.926  10.605  0.00  0.00    -0.346 N 
HETATM   27  C   UNK N   1      35.509  15.720  11.117  0.00  0.00     0.050 A 
ATOM     28  HN  UNK N   1      35.007  17.778  11.159  1.00  0.00     0.167 HD
HETATM   29  C   UNK N   1      35.573  14.680  10.195  0.00  0.00     0.033 A 
HETATM   30  C   UNK N   1      35.802  15.501  12.457  0.00  0.00     0.031 A 
HETATM   31  S   UNK N   1      35.120  15.305   8.736  0.00  0.00    -0.067 SA
HETATM   32  C   UNK N   1      35.920  13.385  10.566  0.00  0.00     0.021 A 
HETATM   33  C   UNK N   1      36.213  13.150  11.921  0.00  0.00     0.002 A 
HETATM   34  C   UNK N   1      36.157  14.203  12.861  0.00  0.00     0.002 A 
ENDBRANCH  23  25
ENDBRANCH   1  23
TORSDOF 8
ENDMDL
MODEL 4
REMARK VINA RESULT:      -7.0     14.725     17.040
REMARK  8 active torsions:
REMARK  status: ('A' for Active; 'I' for Inactive)
REMARK    1  A    between atoms: C_1  and  C_6 
REMARK       I    between atoms: C_6  and  N_8 
REMARK    2  A    between atoms: C_9  and  N_8 
REMARK    3  A    between atoms: C_9  and  C_10 
REMARK    4  A    between atoms: C_9  and  C_29 
REMARK    5  A    between atoms: C_10  and  C_11 
REMARK    6  A    between atoms: C_11  and  C_12 
REMARK    7  A    between atoms: C_12  and  N_13 
REMARK       I    between atoms: N_13  and  C_14 
REMARK       I    between atoms: C_14  and  N_17 
REMARK    8  A    between atoms: C_21  and  C_29 
ROOT
HETATM    1  C   UNK N   1      26.959  25.450  -4.486  0.00  0.00     0.161 C 
ENDROOT
BRANCH   1   2
HETATM    2  N   UNK N   1      26.349  26.561  -3.771  0.00  0.00    -0.349 N 
HETATM    3  C   UNK N   1      26.746  27.872  -3.761  0.00  0.00     0.222 C 
HETATM    4  O   UNK N   1      26.240  28.622  -2.942  0.00  0.00    -0.273 OA
HETATM    5  H   UNK N   1      25.555  26.344  -3.230  0.00  0.00     0.163 HD
BRANCH   3   6
HETATM    6  C   UNK N   1      27.746  28.477  -4.724  0.00  0.00     0.078 C 
HETATM    7  C   UNK N   1      28.029  29.941  -4.476  0.00  0.00     0.014 C 
HETATM    8  C   UNK N   1      28.638  30.442  -5.771  0.00  0.00     0.001 C 
HETATM    9  C   UNK N   1      28.303  29.416  -6.849  0.00  0.00     0.001 C 
HETATM   10  C   UNK N   1      27.460  28.331  -6.198  0.00  0.00     0.014 C 
ENDBRANCH   3   6
ENDBRANCH   1   2
BRANCH   1  11
HETATM   11  C   UNK N   1      26.042  24.914  -5.584  0.00  0.00     0.035 C 
BRANCH  11  12
HETATM   12  C   UNK N   1      26.769  24.698  -6.904  0.00  0.00     0.023 C 
BRANCH  12  13
HETATM   13  C   UNK N   1      26.542  23.267  -7.347  0.00  0.00     0.138 C 
BRANCH  13  14
HETATM   14  N   UNK N   1      25.415  22.696  -6.654  0.00  0.00    -0.227 N 
HETATM   15  C   UNK N   1      24.728  21.567  -7.171  0.00  0.00     0.665 C 
HETATM   16  N   UNK N   1      25.036  21.085  -8.319  0.00  0.00    -0.235 N 
HETATM   17  N   UNK N   1      23.687  20.976  -6.423  0.00  0.00    -0.235 N 
HETATM   18  H   UNK N   1      25.454  21.625  -9.028  0.00  0.00     0.174 HD
ATOM     19  HN  UNK N   1      24.840  20.102  -8.506  1.00  0.00     0.174 HD
HETATM   20  H   UNK N   1      23.389  20.060  -6.622  0.00  0.00     0.174 HD
HETATM   21  H   UNK N   1      23.257  21.484  -5.698  0.00  0.00     0.174 HD
HETATM   22  H   UNK N   1      25.114  23.097  -5.806  0.00  0.00     0.177 HD
ENDBRANCH  13  14
ENDBRANCH  12  13
ENDBRANCH  11  12
ENDBRANCH   1  11
BRANCH   1  23
HETATM   23  C   UNK N   1      27.402  24.386  -3.477  0.00  0.00     0.205 C 
HETATM   24  O   UNK N   1      26.735  24.235  -2.467  0.00  0.00    -0.288 OA
BRANCH  23  25
HETATM   25  C   UNK N   1      28.656  23.590  -3.621  0.00  0.00     0.123 A 
HETATM   26  N   UNK N   1      29.357  23.438  -4.778  0.00  0.00    -0.346 N 
HETATM   27  C   UNK N   1      30.563  22.811  -4.580  0.00  0.00     0.050 A 
ATOM     28  HN  UNK N   1      29.024  23.756  -5.688  1.00  0.00     0.167 HD
HETATM   29  C   UNK N   1      30.830  22.449  -3.263  0.00  0.00     0.033 A 
HETATM   30  C   UNK N   1      31.496  22.580  -5.583  0.00  0.00     0.031 A 
HETATM   31  S   UNK N   1      29.525  22.916  -2.365  0.00  0.00    -0.067 SA
HETATM   32  C   UNK N   1      32.030  21.855  -2.889  0.00  0.00     0.021 A 
HETATM   33  C   UNK N   1      32.984  21.622  -3.896  0.00  0.00     0.002 A 
HETATM   34  C   UNK N   1      32.718  21.980  -5.236  0.00  0.00     0.002 A 
ENDBRANCH  23  25
ENDBRANCH   1  23
TORSDOF 8
ENDMDL
MODEL 5
REMARK VINA RESULT:      -7.0     10.856     13.430
REMARK  8 active torsions:
REMARK  status: ('A' for Active; 'I' for Inactive)
REMARK    1  A    between atoms: C_1  and  C_6 
REMARK       I    between atoms: C_6  and  N_8 
REMARK    2  A    between atoms: C_9  and  N_8 
REMARK    3  A    between atoms: C_9  and  C_10 
REMARK    4  A    between atoms: C_9  and  C_29 
REMARK    5  A    between atoms: C_10  and  C_11 
REMARK    6  A    between atoms: C_11  and  C_12 
REMARK    7  A    between atoms: C_12  and  N_13 
REMARK       I    between atoms: N_13  and  C_14 
REMARK       I    between atoms: C_14  and  N_17 
REMARK    8  A    between atoms: C_21  and  C_29 
ROOT
HETATM    1  C   UNK N   1      36.013  15.034  10.630  0.00  0.00     0.161 C 
ENDROOT
BRANCH   1   2
HETATM    2  N   UNK N   1      36.387  15.215  12.025  0.00  0.00    -0.349 N 
HETATM    3  C   UNK N   1      36.273  14.312  13.049  0.00  0.00     0.222 C 
HETATM    4  O   UNK N   1      36.444  14.709  14.190  0.00  0.00    -0.273 OA
HETATM    5  H   UNK N   1      36.768  16.093  12.260  0.00  0.00     0.163 HD
BRANCH   3   6
HETATM    6  C   UNK N   1      35.988  12.836  12.868  0.00  0.00     0.078 C 
HETATM    7  C   UNK N   1      34.856  12.320  13.726  0.00  0.00     0.014 C 
HETATM    8  C   UNK N   1      35.048  10.816  13.757  0.00  0.00     0.001 C 
HETATM    9  C   UNK N   1      36.479  10.539  13.305  0.00  0.00     0.001 C 
HETATM   10  C   UNK N   1      37.143  11.883  13.049  0.00  0.00     0.014 C 
ENDBRANCH   3   6
ENDBRANCH   1   2
BRANCH   1  11
HETATM   11  C   UNK N   1      37.182  14.511   9.797  0.00  0.00     0.035 C 
BRANCH  11  12
HETATM   12  C   UNK N   1      36.841  13.230   9.046  0.00  0.00     0.023 C 
BRANCH  12  13
HETATM   13  C   UNK N   1      35.394  12.883   9.325  0.00  0.00     0.138 C 
BRANCH  13  14
HETATM   14  N   UNK N   1      34.645  12.805   8.097  0.00  0.00    -0.227 N 
HETATM   15  C   UNK N   1      33.235  12.965   8.083  0.00  0.00     0.665 C 
HETATM   16  N   UNK N   1      32.580  13.089   9.179  0.00  0.00    -0.235 N 
HETATM   17  N   UNK N   1      32.542  12.974   6.852  0.00  0.00    -0.235 N 
HETATM   18  H   UNK N   1      32.908  12.733  10.037  0.00  0.00     0.174 HD
ATOM     19  HN  UNK N   1      31.684  13.576   9.162  1.00  0.00     0.174 HD
HETATM   20  H   UNK N   1      31.633  13.346   6.796  0.00  0.00     0.174 HD
HETATM   21  H   UNK N   1      32.972  12.606   6.046  0.00  0.00     0.174 HD
HETATM   22  H   UNK N   1      35.120  12.636   7.251  0.00  0.00     0.177 HD
ENDBRANCH  13  14
ENDBRANCH  12  13
ENDBRANCH  11  12
ENDBRANCH   1  11
BRANCH   1  23
HETATM   23  C   UNK N   1      35.410  16.337  10.099  0.00  0.00     0.205 C 
HETATM   24  O   UNK N   1      35.820  17.392  10.554  0.00  0.00    -0.288 OA
BRANCH  23  25
HETATM   25  C   UNK N   1      34.283  16.382   9.121  0.00  0.00     0.123 A 
HETATM   26  N   UNK N   1      32.972  16.542   9.447  0.00  0.00    -0.346 N 
HETATM   27  C   UNK N   1      32.178  16.730   8.342  0.00  0.00     0.050 A 
ATOM     28  HN  UNK N   1      32.619  16.525  10.404  1.00  0.00     0.167 HD
HETATM   29  C   UNK N   1      32.850  16.713   7.124  0.00  0.00     0.033 A 
HETATM   30  C   UNK N   1      30.811  16.973   8.396  0.00  0.00     0.031 A 
HETATM   31  S   UNK N   1      34.444  16.443   7.461  0.00  0.00    -0.067 SA
HETATM   32  C   UNK N   1      32.198  16.942   5.917  0.00  0.00     0.021 A 
HETATM   33  C   UNK N   1      30.815  17.195   5.960  0.00  0.00     0.002 A 
HETATM   34  C   UNK N   1      30.125  17.207   7.192  0.00  0.00     0.002 A 
ENDBRANCH  23  25
ENDBRANCH   1  23
TORSDOF 8
ENDMDL
MODEL 6
REMARK VINA RESULT:      -6.9     12.724     15.370
REMARK  8 active torsions:
REMARK  status: ('A' for Active; 'I' for Inactive)
REMARK    1  A    between atoms: C_1  and  C_6 
REMARK       I    between atoms: C_6  and  N_8 
REMARK    2  A    between atoms: C_9  and  N_8 
REMARK    3  A    between atoms: C_9  and  C_10 
REMARK    4  A    between atoms: C_9  and  C_29 
REMARK    5  A    between atoms: C_10  and  C_11 
REMARK    6  A    between atoms: C_11  and  C_12 
REMARK    7  A    between atoms: C_12  and  N_13 
REMARK       I    between atoms: N_13  and  C_14 
REMARK       I    between atoms: C_14  and  N_17 
REMARK    8  A    between atoms: C_21  and  C_29 
ROOT
HETATM    1  C   UNK N   1      35.766  14.408  12.467  0.00  0.00     0.161 C 
ENDROOT
BRANCH   1   2
HETATM    2  N   UNK N   1      36.695  14.855  13.493  0.00  0.00    -0.349 N 
HETATM    3  C   UNK N   1      36.731  14.485  14.812  0.00  0.00     0.222 C 
HETATM    4  O   UNK N   1      37.448  15.117  15.570  0.00  0.00    -0.273 OA
HETATM    5  H   UNK N   1      37.382  15.500  13.205  0.00  0.00     0.163 HD
BRANCH   3   6
HETATM    6  C   UNK N   1      35.970  13.314  15.399  0.00  0.00     0.078 C 
HETATM    7  C   UNK N   1      35.463  13.554  16.803  0.00  0.00     0.014 C 
HETATM    8  C   UNK N   1      35.178  12.171  17.354  0.00  0.00     0.001 C 
HETATM    9  C   UNK N   1      35.914  11.175  16.461  0.00  0.00     0.001 C 
HETATM   10  C   UNK N   1      36.665  11.976  15.409  0.00  0.00     0.014 C 
ENDBRANCH   3   6
ENDBRANCH   1   2
BRANCH   1  11
HETATM   11  C   UNK N   1      36.041  12.965  12.046  0.00  0.00     0.035 C 
BRANCH  11  12
HETATM   12  C   UNK N   1      37.465  12.760  11.546  0.00  0.00     0.023 C 
BRANCH  12  13
HETATM   13  C   UNK N   1      37.402  12.142  10.165  0.00  0.00     0.138 C 
BRANCH  13  14
HETATM   14  N   UNK N   1      38.687  11.608   9.790  0.00  0.00    -0.227 N 
HETATM   15  C   UNK N   1      39.548  12.312   8.908  0.00  0.00     0.665 C 
HETATM   16  N   UNK N   1      39.162  13.400   8.348  0.00  0.00    -0.235 N 
HETATM   17  N   UNK N   1      40.837  11.806   8.634  0.00  0.00    -0.235 N 
HETATM   18  H   UNK N   1      38.212  13.608   8.189  0.00  0.00     0.174 HD
ATOM     19  HN  UNK N   1      39.866  14.076   8.054  1.00  0.00     0.174 HD
HETATM   20  H   UNK N   1      41.532  12.392   8.259  0.00  0.00     0.174 HD
HETATM   21  H   UNK N   1      41.041  10.861   8.819  0.00  0.00     0.174 HD
HETATM   22  H   UNK N   1      38.973  10.738  10.151  0.00  0.00     0.177 HD
ENDBRANCH  13  14
ENDBRANCH  12  13
ENDBRANCH  11  12
ENDBRANCH   1  11
BRANCH   1  23
HETATM   23  C   UNK N   1      35.784  15.405  11.304  0.00  0.00     0.205 C 
HETATM   24  O   UNK N   1      36.761  16.125  11.176  0.00  0.00    -0.288 OA
BRANCH  23  25
HETATM   25  C   UNK N   1      34.634  15.605  10.376  0.00  0.00     0.123 A 
HETATM   26  N   UNK N   1      34.188  16.812   9.932  0.00  0.00    -0.346 N 
HETATM   27  C   UNK N   1      33.238  16.688   8.948  0.00  0.00     0.050 A 
ATOM     28  HN  UNK N   1      34.523  17.706  10.290  1.00  0.00     0.167 HD
HETATM   29  C   UNK N   1      32.911  15.380   8.605  0.00  0.00     0.033 A 
HETATM   30  C   UNK N   1      32.657  17.763   8.285  0.00  0.00     0.031 A 
HETATM   31  S   UNK N   1      33.821  14.392   9.565  0.00  0.00    -0.067 SA
HETATM   32  C   UNK N   1      32.007  15.086   7.590  0.00  0.00     0.021 A 
HETATM   33  C   UNK N   1      31.418  16.166   6.908  0.00  0.00     0.002 A 
HETATM   34  C   UNK N   1      31.739  17.497   7.255  0.00  0.00     0.002 A 
ENDBRANCH  23  25
ENDBRANCH   1  23
TORSDOF 8
ENDMDL
MODEL 7
REMARK VINA RESULT:      -6.8     15.078     16.752
REMARK  8 active torsions:
REMARK  status: ('A' for Active; 'I' for Inactive)
REMARK    1  A    between atoms: C_1  and  C_6 
REMARK       I    between atoms: C_6  and  N_8 
REMARK    2  A    between atoms: C_9  and  N_8 
REMARK    3  A    between atoms: C_9  and  C_10 
REMARK    4  A    between atoms: C_9  and  C_29 
REMARK    5  A    between atoms: C_10  and  C_11 
REMARK    6  A    between atoms: C_11  and  C_12 
REMARK    7  A    between atoms: C_12  and  N_13 
REMARK       I    between atoms: N_13  and  C_14 
REMARK       I    between atoms: C_14  and  N_17 
REMARK    8  A    between atoms: C_21  and  C_29 
ROOT
HETATM    1  C   UNK N   1      29.286  24.358  -4.966  0.00  0.00     0.161 C 
ENDROOT
BRANCH   1   2
HETATM    2  N   UNK N   1      28.146  23.866  -4.208  0.00  0.00    -0.349 N 
HETATM    3  C   UNK N   1      26.997  24.539  -3.887  0.00  0.00     0.222 C 
HETATM    4  O   UNK N   1      26.242  24.037  -3.071  0.00  0.00    -0.273 OA
HETATM    5  H   UNK N   1      28.208  22.936  -3.888  0.00  0.00     0.163 HD
BRANCH   3   6
HETATM    6  C   UNK N   1      26.569  25.854  -4.504  0.00  0.00     0.078 C 
HETATM    7  C   UNK N   1      26.257  26.934  -3.493  0.00  0.00     0.014 C 
HETATM    8  C   UNK N   1      25.425  27.948  -4.253  0.00  0.00     0.001 C 
HETATM    9  C   UNK N   1      24.917  27.255  -5.513  0.00  0.00     0.001 C 
HETATM   10  C   UNK N   1      25.414  25.818  -5.474  0.00  0.00     0.014 C 
ENDBRANCH   3   6
ENDBRANCH   1   2
BRANCH   1  11
HETATM   11  C   UNK N   1      29.439  23.622  -6.297  0.00  0.00     0.035 C 
BRANCH  11  12
HETATM   12  C   UNK N   1      28.444  22.480  -6.454  0.00  0.00     0.023 C 
BRANCH  12  13
HETATM   13  C   UNK N   1      27.407  22.888  -7.480  0.00  0.00     0.138 C 
BRANCH  13  14
HETATM   14  N   UNK N   1      26.077  22.692  -6.962  0.00  0.00    -0.227 N 
HETATM   15  C   UNK N   1      25.242  21.653  -7.451  0.00  0.00     0.665 C 
HETATM   16  N   UNK N   1      25.617  20.922  -8.436  0.00  0.00    -0.235 N 
HETATM   17  N   UNK N   1      23.980  21.431  -6.859  0.00  0.00    -0.235 N 
HETATM   18  H   UNK N   1      26.265  21.231  -9.111  0.00  0.00     0.174 HD
ATOM     19  HN  UNK N   1      25.230  19.983  -8.524  1.00  0.00     0.174 HD
HETATM   20  H   UNK N   1      23.513  20.575  -6.989  0.00  0.00     0.174 HD
HETATM   21  H   UNK N   1      23.565  22.137  -6.312  0.00  0.00     0.174 HD
HETATM   22  H   UNK N   1      25.740  23.290  -6.256  0.00  0.00     0.177 HD
ENDBRANCH  13  14
ENDBRANCH  12  13
ENDBRANCH  11  12
ENDBRANCH   1  11
BRANCH   1  23
HETATM   23  C   UNK N   1      30.537  24.305  -4.084  0.00  0.00     0.205 C 
HETATM   24  O   UNK N   1      30.667  25.153  -3.215  0.00  0.00    -0.288 OA
BRANCH  23  25
HETATM   25  C   UNK N   1      31.646  23.328  -4.289  0.00  0.00     0.123 A 
HETATM   26  N   UNK N   1      32.781  23.573  -4.998  0.00  0.00    -0.346 N 
HETATM   27  C   UNK N   1      33.706  22.566  -4.867  0.00  0.00     0.050 A 
ATOM     28  HN  UNK N   1      32.929  24.411  -5.561  1.00  0.00     0.167 HD
HETATM   29  C   UNK N   1      33.311  21.504  -4.060  0.00  0.00     0.033 A 
HETATM   30  C   UNK N   1      34.971  22.590  -5.442  0.00  0.00     0.031 A 
HETATM   31  S   UNK N   1      31.785  21.847  -3.531  0.00  0.00    -0.067 SA
HETATM   32  C   UNK N   1      34.154  20.433  -3.783  0.00  0.00     0.021 A 
HETATM   33  C   UNK N   1      35.439  20.449  -4.355  0.00  0.00     0.002 A 
HETATM   34  C   UNK N   1      35.844  21.520  -5.181  0.00  0.00     0.002 A 
ENDBRANCH  23  25
ENDBRANCH   1  23
TORSDOF 8
ENDMDL
MODEL 8
REMARK VINA RESULT:      -6.8     14.989     17.376
REMARK  8 active torsions:
REMARK  status: ('A' for Active; 'I' for Inactive)
REMARK    1  A    between atoms: C_1  and  C_6 
REMARK       I    between atoms: C_6  and  N_8 
REMARK    2  A    between atoms: C_9  and  N_8 
REMARK    3  A    between atoms: C_9  and  C_10 
REMARK    4  A    between atoms: C_9  and  C_29 
REMARK    5  A    between atoms: C_10  and  C_11 
REMARK    6  A    between atoms: C_11  and  C_12 
REMARK    7  A    between atoms: C_12  and  N_13 
REMARK       I    between atoms: N_13  and  C_14 
REMARK       I    between atoms: C_14  and  N_17 
REMARK    8  A    between atoms: C_21  and  C_29 
ROOT
HETATM    1  C   UNK N   1      26.337  26.055  -5.858  0.00  0.00     0.161 C 
ENDROOT
BRANCH   1   2
HETATM    2  N   UNK N   1      25.623  26.739  -4.790  0.00  0.00    -0.349 N 
HETATM    3  C   UNK N   1      26.088  27.736  -3.973  0.00  0.00     0.222 C 
HETATM    4  O   UNK N   1      25.418  28.044  -3.001  0.00  0.00    -0.273 OA
HETATM    5  H   UNK N   1      24.693  26.451  -4.638  0.00  0.00     0.163 HD
BRANCH   3   6
HETATM    6  C   UNK N   1      27.362  28.519  -4.209  0.00  0.00     0.078 C 
HETATM    7  C   UNK N   1      27.386  29.273  -5.518  0.00  0.00     0.014 C 
HETATM    8  C   UNK N   1      28.851  29.570  -5.768  0.00  0.00     0.001 C 
HETATM    9  C   UNK N   1      29.656  28.638  -4.867  0.00  0.00     0.001 C 
HETATM   10  C   UNK N   1      28.664  27.762  -4.117  0.00  0.00     0.014 C 
ENDBRANCH   3   6
ENDBRANCH   1   2
BRANCH   1  11
HETATM   11  C   UNK N   1      25.705  26.325  -7.222  0.00  0.00     0.035 C 
BRANCH  11  12
HETATM   12  C   UNK N   1      26.570  25.838  -8.378  0.00  0.00     0.023 C 
BRANCH  12  13
HETATM   13  C   UNK N   1      25.714  24.984  -9.288  0.00  0.00     0.138 C 
BRANCH  13  14
HETATM   14  N   UNK N   1      24.925  24.056  -8.518  0.00  0.00    -0.227 N 
HETATM   15  C   UNK N   1      25.266  22.680  -8.448  0.00  0.00     0.665 C 
HETATM   16  N   UNK N   1      26.233  22.211  -9.148  0.00  0.00    -0.235 N 
HETATM   17  N   UNK N   1      24.527  21.816  -7.612  0.00  0.00    -0.235 N 
HETATM   18  H   UNK N   1      26.533  22.628  -9.988  0.00  0.00     0.174 HD
ATOM     19  HN  UNK N   1      26.711  21.371  -8.822  1.00  0.00     0.174 HD
HETATM   20  H   UNK N   1      24.899  20.947  -7.341  0.00  0.00     0.174 HD
HETATM   21  H   UNK N   1      23.633  22.085  -7.297  0.00  0.00     0.174 HD
HETATM   22  H   UNK N   1      24.133  24.382  -8.032  0.00  0.00     0.177 HD
ENDBRANCH  13  14
ENDBRANCH  12  13
ENDBRANCH  11  12
ENDBRANCH   1  11
BRANCH   1  23
HETATM   23  C   UNK N   1      26.452  24.568  -5.513  0.00  0.00     0.205 C 
HETATM   24  O   UNK N   1      25.424  23.916  -5.417  0.00  0.00    -0.288 OA
BRANCH  23  25
HETATM   25  C   UNK N   1      27.746  23.895  -5.199  0.00  0.00     0.123 A 
HETATM   26  N   UNK N   1      28.391  23.961  -4.002  0.00  0.00    -0.346 N 
HETATM   27  C   UNK N   1      29.460  23.101  -3.937  0.00  0.00     0.050 A 
ATOM     28  HN  UNK N   1      28.112  24.580  -3.241  1.00  0.00     0.167 HD
HETATM   29  C   UNK N   1      29.681  22.347  -5.085  0.00  0.00     0.033 A 
HETATM   30  C   UNK N   1      30.255  22.930  -2.810  0.00  0.00     0.031 A 
HETATM   31  S   UNK N   1      28.527  22.791  -6.178  0.00  0.00    -0.067 SA
HETATM   32  C   UNK N   1      30.689  21.392  -5.158  0.00  0.00     0.021 A 
HETATM   33  C   UNK N   1      31.497  21.206  -4.022  0.00  0.00     0.002 A 
HETATM   34  C   UNK N   1      31.283  21.973  -2.855  0.00  0.00     0.002 A 
ENDBRANCH  23  25
ENDBRANCH   1  23
TORSDOF 8
ENDMDL
MODEL 9
REMARK VINA RESULT:      -6.6      3.376      4.757
REMARK  8 active torsions:
REMARK  status: ('A' for Active; 'I' for Inactive)
REMARK    1  A    between atoms: C_1  and  C_6 
REMARK       I    between atoms: C_6  and  N_8 
REMARK    2  A    between atoms: C_9  and  N_8 
REMARK    3  A    between atoms: C_9  and  C_10 
REMARK    4  A    between atoms: C_9  and  C_29 
REMARK    5  A    between atoms: C_10  and  C_11 
REMARK    6  A    between atoms: C_11  and  C_12 
REMARK    7  A    between atoms: C_12  and  N_13 
REMARK       I    between atoms: N_13  and  C_14 
REMARK       I    between atoms: C_14  and  N_17 
REMARK    8  A    between atoms: C_21  and  C_29 
ROOT
HETATM    1  C   UNK N   1      20.902  15.828   7.088  0.00  0.00     0.161 C 
ENDROOT
BRANCH   1   2
HETATM    2  N   UNK N   1      20.169  15.359   8.254  0.00  0.00    -0.349 N 
HETATM    3  C   UNK N   1      20.470  14.296   9.064  0.00  0.00     0.222 C 
HETATM    4  O   UNK N   1      19.631  13.928   9.869  0.00  0.00    -0.273 OA
HETATM    5  H   UNK N   1      19.359  15.868   8.490  0.00  0.00     0.163 HD
BRANCH   3   6
HETATM    6  C   UNK N   1      21.795  13.562   9.065  0.00  0.00     0.078 C 
HETATM    7  C   UNK N   1      21.856  12.406   8.092  0.00  0.00     0.014 C 
HETATM    8  C   UNK N   1      23.015  11.555   8.574  0.00  0.00     0.001 C 
HETATM    9  C   UNK N   1      23.310  11.975  10.012  0.00  0.00     0.001 C 
HETATM   10  C   UNK N   1      22.297  13.045  10.390  0.00  0.00     0.014 C 
ENDBRANCH   3   6
ENDBRANCH   1   2
BRANCH   1  11
HETATM   11  C   UNK N   1      20.767  17.339   6.907  0.00  0.00     0.035 C 
BRANCH  11  12
HETATM   12  C   UNK N   1      21.736  17.896   5.871  0.00  0.00     0.023 C 
BRANCH  12  13
HETATM   13  C   UNK N   1      20.968  18.161   4.593  0.00  0.00     0.138 C 
BRANCH  13  14
HETATM   14  N   UNK N   1      21.340  19.435   4.033  0.00  0.00    -0.227 N 
HETATM   15  C   UNK N   1      20.582  20.031   2.992  0.00  0.00     0.665 C 
HETATM   16  N   UNK N   1      19.599  19.404   2.458  0.00  0.00    -0.235 N 
HETATM   17  N   UNK N   1      20.920  21.321   2.529  0.00  0.00    -0.235 N 
HETATM   18  H   UNK N   1      19.537  18.421   2.450  0.00  0.00     0.174 HD
ATOM     19  HN  UNK N   1      18.851  19.944   2.023  1.00  0.00     0.174 HD
HETATM   20  H   UNK N   1      20.269  21.854   2.019  0.00  0.00     0.174 HD
HETATM   21  H   UNK N   1      21.813  21.691   2.718  0.00  0.00     0.174 HD
HETATM   22  H   UNK N   1      22.136  19.901   4.378  0.00  0.00     0.177 HD
ENDBRANCH  13  14
ENDBRANCH  12  13
ENDBRANCH  11  12
ENDBRANCH   1  11
BRANCH   1  23
HETATM   23  C   UNK N   1      20.469  15.018   5.863  0.00  0.00     0.205 C 
HETATM   24  O   UNK N   1      19.311  14.639   5.801  0.00  0.00    -0.288 OA
BRANCH  23  25
HETATM   25  C   UNK N   1      21.410  14.589   4.787  0.00  0.00     0.123 A 
HETATM   26  N   UNK N   1      21.091  14.477   3.469  0.00  0.00    -0.346 N 
HETATM   27  C   UNK N   1      22.193  14.244   2.683  0.00  0.00     0.050 A 
ATOM     28  HN  UNK N   1      20.141  14.558   3.107  1.00  0.00     0.167 HD
HETATM   29  C   UNK N   1      23.400  14.159   3.370  0.00  0.00     0.033 A 
HETATM   30  C   UNK N   1      22.155  14.143   1.297  0.00  0.00     0.031 A 
HETATM   31  S   UNK N   1      23.054  14.366   4.971  0.00  0.00    -0.067 SA
HETATM   32  C   UNK N   1      24.613  13.980   2.713  0.00  0.00     0.021 A 
HETATM   33  C   UNK N   1      24.587  13.882   1.311  0.00  0.00     0.002 A 
HETATM   34  C   UNK N   1      23.365  13.961   0.607  0.00  0.00     0.002 A 
ENDBRANCH  23  25
ENDBRANCH   1  23
TORSDOF 8
ENDMDL
