MODEL 1
REMARK VINA RESULT:      -6.5      0.000      0.000
REMARK  14 active torsions:
REMARK  status: ('A' for Active; 'I' for Inactive)
REMARK    1  A    between atoms: N_3  and  C_26 
REMARK    2  A    between atoms: C_8  and  N_9 
REMARK       I    between atoms: N_9  and  C_10 
REMARK    3  A    between atoms: C_10  and  C_11 
REMARK    4  A    between atoms: C_11  and  C_12 
REMARK    5  A    between atoms: C_11  and  C_21 
REMARK    6  A    between atoms: C_12  and  C_13 
REMARK    7  A    between atoms: C_12  and  C_17 
REMARK       I    between atoms: C_13  and  N_15 
REMARK    8  A    between atoms: N_15  and  O_16 
REMARK    9  A    between atoms: C_17  and  C_18 
REMARK   10  A    between atoms: C_18  and  C_19 
REMARK   11  A    between atoms: C_19  and  O_20 
REMARK   12  A    between atoms: C_21  and  C_22 
REMARK   13  A    between atoms: C_26  and  C_27 
REMARK   14  A    between atoms: C_27  and  O_28 
ROOT
HETATM    1  C   UNK N   1      20.433  16.615   6.798  0.00  0.00     0.091 C 
ENDROOT
BRANCH   1   2
HETATM    2  C   UNK N   1      21.317  17.778   6.390  0.00  0.00     0.223 C 
HETATM    3  N   UNK N   1      22.275  17.605   5.435  0.00  0.00    -0.347 N 
HETATM    4  H   UNK N   1      22.368  16.687   5.091  0.00  0.00     0.163 HD
HETATM    5  O   UNK N   1      21.123  18.874   6.896  0.00  0.00    -0.273 OA
BRANCH   3   6
HETATM    6  C   UNK N   1      23.184  18.586   4.848  0.00  0.00     0.176 C 
HETATM    7  C   UNK N   1      24.565  17.953   4.734  0.00  0.00     0.242 C 
HETATM    8  O   UNK N   1      24.671  16.761   5.002  0.00  0.00    -0.271 OA
HETATM    9  N   UNK N   1      25.675  18.678   4.362  0.00  0.00    -0.348 N 
HETATM   10  C   UNK N   1      25.558  20.093   4.082  0.00  0.00     0.126 C 
HETATM   11  C   UNK N   1      24.792  20.324   2.792  0.00  0.00     0.020 C 
HETATM   12  C   UNK N   1      23.312  20.447   3.087  0.00  0.00     0.004 C 
HETATM   13  C   UNK N   1      22.702  19.111   3.484  0.00  0.00     0.035 C 
BRANCH   9  14
HETATM   14  C   UNK N   1      27.027  18.134   4.246  0.00  0.00     0.152 C 
BRANCH  14  15
HETATM   15  C   UNK N   1      28.108  18.676   5.179  0.00  0.00     0.186 C 
BRANCH  15  16
HETATM   16  O   UNK N   1      27.769  18.405   6.506  0.00  0.00    -0.394 OA
HETATM   17  C   UNK N   1      27.809  19.643   7.147  0.00  0.00     0.201 C 
ENDBRANCH  15  16
ENDBRANCH  14  15
ENDBRANCH   9  14
ENDBRANCH   3   6
ENDBRANCH   1   2
BRANCH   1  18
HETATM   18  C   UNK N   1      20.249  16.448   8.347  0.00  0.00     0.093 C 
BRANCH  18  19
HETATM   19  C   UNK N   1      18.957  17.064   8.893  0.00  0.00     0.245 C 
HETATM   20  O   UNK N   1      17.930  16.402   8.929  0.00  0.00    -0.271 OA
HETATM   21  N   UNK N   1      18.934  18.324   9.400  0.00  0.00    -0.237 N 
HETATM   22  H   UNK N   1      18.080  18.696   9.719  0.00  0.00     0.197 HD
BRANCH  21  23
HETATM   23  O   UNK N   1      20.043  19.073   9.479  0.00  0.00    -0.287 OA
HETATM   24  H   UNK N   1      20.729  19.397   8.874  0.00  0.00     0.244 HD
ENDBRANCH  21  23
ENDBRANCH  18  19
BRANCH  18  25
HETATM   25  C   UNK N   1      20.297  14.938   8.633  0.00  0.00     0.017 C 
BRANCH  25  26
HETATM   26  C   UNK N   1      21.444  14.472   9.509  0.00  0.00     0.027 C 
BRANCH  26  27
HETATM   27  C   UNK N   1      21.129  13.054   9.944  0.00  0.00     0.164 C 
BRANCH  27  28
HETATM   28  O   UNK N   1      19.866  13.001  10.527  0.00  0.00    -0.401 OA
HETATM   29  H   UNK N   1      19.178  13.671  10.390  0.00  0.00     0.209 HD
ENDBRANCH  27  28
ENDBRANCH  26  27
ENDBRANCH  25  26
ENDBRANCH  18  25
ENDBRANCH   1  18
BRANCH   1  30
HETATM   30  C   UNK N   1      20.985  15.336   6.116  0.00  0.00     0.018 C 
BRANCH  30  31
HETATM   31  C   UNK N   1      20.164  14.643   5.031  0.00  0.00    -0.022 C 
HETATM   32  C   UNK N   1      19.931  13.175   5.331  0.00  0.00     0.009 C 
HETATM   33  C   UNK N   1      18.812  15.327   4.977  0.00  0.00     0.009 C 
ENDBRANCH  30  31
ENDBRANCH   1  30
TORSDOF 14
ENDMDL
MODEL 2
REMARK VINA RESULT:      -6.1      4.780      9.573
REMARK  14 active torsions:
REMARK  status: ('A' for Active; 'I' for Inactive)
REMARK    1  A    between atoms: N_3  and  C_26 
REMARK    2  A    between atoms: C_8  and  N_9 
REMARK       I    between atoms: N_9  and  C_10 
REMARK    3  A    between atoms: C_10  and  C_11 
REMARK    4  A    between atoms: C_11  and  C_12 
REMARK    5  A    between atoms: C_11  and  C_21 
REMARK    6  A    between atoms: C_12  and  C_13 
REMARK    7  A    between atoms: C_12  and  C_17 
REMARK       I    between atoms: C_13  and  N_15 
REMARK    8  A    between atoms: N_15  and  O_16 
REMARK    9  A    between atoms: C_17  and  C_18 
REMARK   10  A    between atoms: C_18  and  C_19 
REMARK   11  A    between atoms: C_19  and  O_20 
REMARK   12  A    between atoms: C_21  and  C_22 
REMARK   13  A    between atoms: C_26  and  C_27 
REMARK   14  A    between atoms: C_27  and  O_28 
ROOT
HETATM    1  C   UNK N   1      31.503  16.000   6.675  0.00  0.00     0.091 C 
ENDROOT
BRANCH   1   2
HETATM    2  C   UNK N   1      30.311  15.357   5.993  0.00  0.00     0.223 C 
HETATM    3  N   UNK N   1      29.218  16.109   5.676  0.00  0.00    -0.347 N 
HETATM    4  H   UNK N   1      29.254  17.050   5.966  0.00  0.00     0.163 HD
HETATM    5  O   UNK N   1      30.369  14.174   5.693  0.00  0.00    -0.273 OA
BRANCH   3   6
HETATM    6  C   UNK N   1      28.001  15.720   4.969  0.00  0.00     0.176 C 
HETATM    7  C   UNK N   1      26.844  15.736   5.960  0.00  0.00     0.242 C 
HETATM    8  O   UNK N   1      27.062  16.173   7.085  0.00  0.00    -0.271 OA
HETATM    9  N   UNK N   1      25.593  15.264   5.633  0.00  0.00    -0.348 N 
HETATM   10  C   UNK N   1      25.345  14.714   4.319  0.00  0.00     0.126 C 
HETATM   11  C   UNK N   1      25.370  15.806   3.265  0.00  0.00     0.020 C 
HETATM   12  C   UNK N   1      26.776  15.972   2.729  0.00  0.00     0.004 C 
HETATM   13  C   UNK N   1      27.700  16.615   3.753  0.00  0.00     0.035 C 
BRANCH   9  14
HETATM   14  C   UNK N   1      24.446  15.240   6.541  0.00  0.00     0.152 C 
BRANCH  14  15
HETATM   15  C   UNK N   1      24.078  13.916   7.207  0.00  0.00     0.186 C 
BRANCH  15  16
HETATM   16  O   UNK N   1      25.192  13.390   7.865  0.00  0.00    -0.394 OA
HETATM   17  C   UNK N   1      24.788  13.241   9.192  0.00  0.00     0.201 C 
ENDBRANCH  15  16
ENDBRANCH  14  15
ENDBRANCH   9  14
ENDBRANCH   3   6
ENDBRANCH   1   2
BRANCH   1  18
HETATM   18  C   UNK N   1      31.324  16.237   8.216  0.00  0.00     0.093 C 
BRANCH  18  19
HETATM   19  C   UNK N   1      32.477  15.695   9.068  0.00  0.00     0.245 C 
HETATM   20  O   UNK N   1      33.621  15.722   8.640  0.00  0.00    -0.271 OA
HETATM   21  N   UNK N   1      32.267  15.236  10.329  0.00  0.00    -0.237 N 
HETATM   22  H   UNK N   1      33.027  14.873  10.839  0.00  0.00     0.197 HD
BRANCH  21  23
HETATM   23  O   UNK N   1      31.054  15.264  10.899  0.00  0.00    -0.287 OA
HETATM   24  H   UNK N   1      30.264  15.827  10.866  0.00  0.00     0.244 HD
ENDBRANCH  21  23
ENDBRANCH  18  19
BRANCH  18  25
HETATM   25  C   UNK N   1      31.166  17.753   8.411  0.00  0.00     0.017 C 
BRANCH  25  26
HETATM   26  C   UNK N   1      29.745  18.278   8.350  0.00  0.00     0.027 C 
BRANCH  26  27
HETATM   27  C   UNK N   1      29.028  17.780   9.591  0.00  0.00     0.164 C 
BRANCH  27  28
HETATM   28  O   UNK N   1      27.653  17.937   9.445  0.00  0.00    -0.401 OA
HETATM   29  H   UNK N   1      26.999  17.277   9.725  0.00  0.00     0.209 HD
ENDBRANCH  27  28
ENDBRANCH  26  27
ENDBRANCH  25  26
ENDBRANCH  18  25
ENDBRANCH   1  18
BRANCH   1  30
HETATM   30  C   UNK N   1      31.847  17.301   5.903  0.00  0.00     0.018 C 
BRANCH  30  31
HETATM   31  C   UNK N   1      33.049  17.327   4.962  0.00  0.00    -0.022 C 
HETATM   32  C   UNK N   1      33.977  16.146   5.177  0.00  0.00     0.009 C 
HETATM   33  C   UNK N   1      32.519  17.251   3.544  0.00  0.00     0.009 C 
ENDBRANCH  30  31
ENDBRANCH   1  30
TORSDOF 14
ENDMDL
MODEL 3
REMARK VINA RESULT:      -5.8      9.517     13.878
REMARK  14 active torsions:
REMARK  status: ('A' for Active; 'I' for Inactive)
REMARK    1  A    between atoms: N_3  and  C_26 
REMARK    2  A    between atoms: C_8  and  N_9 
REMARK       I    between atoms: N_9  and  C_10 
REMARK    3  A    between atoms: C_10  and  C_11 
REMARK    4  A    between atoms: C_11  and  C_12 
REMARK    5  A    between atoms: C_11  and  C_21 
REMARK    6  A    between atoms: C_12  and  C_13 
REMARK    7  A    between atoms: C_12  and  C_17 
REMARK       I    between atoms: C_13  and  N_15 
REMARK    8  A    between atoms: N_15  and  O_16 
REMARK    9  A    between atoms: C_17  and  C_18 
REMARK   10  A    between atoms: C_18  and  C_19 
REMARK   11  A    between atoms: C_19  and  O_20 
REMARK   12  A    between atoms: C_21  and  C_22 
REMARK   13  A    between atoms: C_26  and  C_27 
REMARK   14  A    between atoms: C_27  and  O_28 
ROOT
HETATM    1  C   UNK N   1      33.547  15.502   7.597  0.00  0.00     0.091 C 
ENDROOT
BRANCH   1   2
HETATM    2  C   UNK N   1      34.615  14.596   8.180  0.00  0.00     0.223 C 
HETATM    3  N   UNK N   1      34.523  14.178   9.475  0.00  0.00    -0.347 N 
HETATM    4  H   UNK N   1      33.765  14.545   9.984  0.00  0.00     0.163 HD
HETATM    5  O   UNK N   1      35.524  14.214   7.458  0.00  0.00    -0.273 OA
BRANCH   3   6
HETATM    6  C   UNK N   1      35.389  13.264  10.215  0.00  0.00     0.176 C 
HETATM    7  C   UNK N   1      35.280  13.596  11.699  0.00  0.00     0.242 C 
HETATM    8  O   UNK N   1      34.442  14.425  12.038  0.00  0.00    -0.271 OA
HETATM    9  N   UNK N   1      36.096  13.012  12.642  0.00  0.00    -0.348 N 
HETATM   10  C   UNK N   1      37.109  12.063  12.237  0.00  0.00     0.126 C 
HETATM   11  C   UNK N   1      36.475  10.766  11.768  0.00  0.00     0.020 C 
HETATM   12  C   UNK N   1      36.205  10.834  10.280  0.00  0.00     0.004 C 
HETATM   13  C   UNK N   1      35.062  11.783   9.954  0.00  0.00     0.035 C 
BRANCH   9  14
HETATM   14  C   UNK N   1      36.050  13.296  14.076  0.00  0.00     0.152 C 
BRANCH  14  15
HETATM   15  C   UNK N   1      34.915  12.688  14.898  0.00  0.00     0.186 C 
BRANCH  15  16
HETATM   16  O   UNK N   1      35.028  11.297  14.906  0.00  0.00    -0.394 OA
HETATM   17  C   UNK N   1      33.762  10.831  14.554  0.00  0.00     0.201 C 
ENDBRANCH  15  16
ENDBRANCH  14  15
ENDBRANCH   9  14
ENDBRANCH   3   6
ENDBRANCH   1   2
BRANCH   1  18
HETATM   18  C   UNK N   1      33.251  16.789   8.444  0.00  0.00     0.093 C 
BRANCH  18  19
HETATM   19  C   UNK N   1      34.453  17.727   8.596  0.00  0.00     0.245 C 
HETATM   20  O   UNK N   1      34.742  18.503   7.697  0.00  0.00    -0.271 OA
HETATM   21  N   UNK N   1      35.180  17.764   9.742  0.00  0.00    -0.237 N 
HETATM   22  H   UNK N   1      35.961  18.362   9.795  0.00  0.00     0.197 HD
BRANCH  21  23
HETATM   23  O   UNK N   1      34.864  17.010  10.804  0.00  0.00    -0.287 OA
HETATM   24  H   UNK N   1      35.149  16.924  11.728  0.00  0.00     0.244 HD
ENDBRANCH  21  23
ENDBRANCH  18  19
BRANCH  18  25
HETATM   25  C   UNK N   1      32.081  17.508   7.754  0.00  0.00     0.017 C 
BRANCH  25  26
HETATM   26  C   UNK N   1      31.001  18.039   8.676  0.00  0.00     0.027 C 
BRANCH  26  27
HETATM   27  C   UNK N   1      29.664  17.680   8.056  0.00  0.00     0.164 C 
BRANCH  27  28
HETATM   28  O   UNK N   1      28.764  17.298   9.047  0.00  0.00    -0.401 OA
HETATM   29  H   UNK N   1      27.818  17.147   8.892  0.00  0.00     0.209 HD
ENDBRANCH  27  28
ENDBRANCH  26  27
ENDBRANCH  25  26
ENDBRANCH  18  25
ENDBRANCH   1  18
BRANCH   1  30
HETATM   30  C   UNK N   1      32.280  14.642   7.345  0.00  0.00     0.018 C 
BRANCH  30  31
HETATM   31  C   UNK N   1      31.897  14.262   5.918  0.00  0.00    -0.022 C 
HETATM   32  C   UNK N   1      30.462  14.625   5.587  0.00  0.00     0.009 C 
HETATM   33  C   UNK N   1      32.802  15.037   4.981  0.00  0.00     0.009 C 
ENDBRANCH  30  31
ENDBRANCH   1  30
TORSDOF 14
ENDMDL
MODEL 4
REMARK VINA RESULT:      -5.8      6.812     10.857
REMARK  14 active torsions:
REMARK  status: ('A' for Active; 'I' for Inactive)
REMARK    1  A    between atoms: N_3  and  C_26 
REMARK    2  A    between atoms: C_8  and  N_9 
REMARK       I    between atoms: N_9  and  C_10 
REMARK    3  A    between atoms: C_10  and  C_11 
REMARK    4  A    between atoms: C_11  and  C_12 
REMARK    5  A    between atoms: C_11  and  C_21 
REMARK    6  A    between atoms: C_12  and  C_13 
REMARK    7  A    between atoms: C_12  and  C_17 
REMARK       I    between atoms: C_13  and  N_15 
REMARK    8  A    between atoms: N_15  and  O_16 
REMARK    9  A    between atoms: C_17  and  C_18 
REMARK   10  A    between atoms: C_18  and  C_19 
REMARK   11  A    between atoms: C_19  and  O_20 
REMARK   12  A    between atoms: C_21  and  C_22 
REMARK   13  A    between atoms: C_26  and  C_27 
REMARK   14  A    between atoms: C_27  and  O_28 
ROOT
HETATM    1  C   UNK N   1      30.436  17.417   6.907  0.00  0.00     0.091 C 
ENDROOT
BRANCH   1   2
HETATM    2  C   UNK N   1      31.119  16.870   8.145  0.00  0.00     0.223 C 
HETATM    3  N   UNK N   1      32.432  16.504   8.094  0.00  0.00    -0.347 N 
HETATM    4  H   UNK N   1      32.856  16.575   7.209  0.00  0.00     0.163 HD
HETATM    5  O   UNK N   1      30.489  16.811   9.191  0.00  0.00    -0.273 OA
BRANCH   3   6
HETATM    6  C   UNK N   1      33.300  16.021   9.165  0.00  0.00     0.176 C 
HETATM    7  C   UNK N   1      33.548  14.534   8.947  0.00  0.00     0.242 C 
HETATM    8  O   UNK N   1      33.130  14.031   7.910  0.00  0.00    -0.271 OA
HETATM    9  N   UNK N   1      34.202  13.756   9.878  0.00  0.00    -0.348 N 
HETATM   10  C   UNK N   1      34.662  14.341  11.118  0.00  0.00     0.126 C 
HETATM   11  C   UNK N   1      35.826  15.282  10.869  0.00  0.00     0.020 C 
HETATM   12  C   UNK N   1      35.311  16.682  10.614  0.00  0.00     0.004 C 
HETATM   13  C   UNK N   1      34.626  16.796   9.260  0.00  0.00     0.035 C 
BRANCH   9  14
HETATM   14  C   UNK N   1      34.460  12.324   9.734  0.00  0.00     0.152 C 
BRANCH  14  15
HETATM   15  C   UNK N   1      34.732  11.508  10.996  0.00  0.00     0.186 C 
BRANCH  15  16
HETATM   16  O   UNK N   1      34.383  10.173  10.783  0.00  0.00    -0.394 OA
HETATM   17  C   UNK N   1      33.148  10.223  10.137  0.00  0.00     0.201 C 
ENDBRANCH  15  16
ENDBRANCH  14  15
ENDBRANCH   9  14
ENDBRANCH   3   6
ENDBRANCH   1   2
BRANCH   1  18
HETATM   18  C   UNK N   1      28.868  17.356   6.947  0.00  0.00     0.093 C 
BRANCH  18  19
HETATM   19  C   UNK N   1      28.214  18.549   7.653  0.00  0.00     0.245 C 
HETATM   20  O   UNK N   1      28.187  19.643   7.110  0.00  0.00    -0.271 OA
HETATM   21  N   UNK N   1      27.601  18.408   8.857  0.00  0.00    -0.237 N 
HETATM   22  H   UNK N   1      27.214  19.201   9.293  0.00  0.00     0.197 HD
BRANCH  21  23
HETATM   23  O   UNK N   1      27.509  17.218   9.468  0.00  0.00    -0.287 OA
HETATM   24  H   UNK N   1      27.249  16.883  10.341  0.00  0.00     0.244 HD
ENDBRANCH  21  23
ENDBRANCH  18  19
BRANCH  18  25
HETATM   25  C   UNK N   1      28.396  17.261   5.488  0.00  0.00     0.017 C 
BRANCH  25  26
HETATM   26  C   UNK N   1      26.999  16.706   5.285  0.00  0.00     0.027 C 
BRANCH  26  27
HETATM   27  C   UNK N   1      26.845  15.521   6.220  0.00  0.00     0.164 C 
BRANCH  27  28
HETATM   28  O   UNK N   1      26.017  15.858   7.287  0.00  0.00    -0.401 OA
HETATM   29  H   UNK N   1      25.187  15.401   7.494  0.00  0.00     0.209 HD
ENDBRANCH  27  28
ENDBRANCH  26  27
ENDBRANCH  25  26
ENDBRANCH  18  25
ENDBRANCH   1  18
BRANCH   1  30
HETATM   30  C   UNK N   1      31.034  16.693   5.673  0.00  0.00     0.018 C 
BRANCH  30  31
HETATM   31  C   UNK N   1      31.816  17.491   4.633  0.00  0.00    -0.022 C 
HETATM   32  C   UNK N   1      33.300  17.545   4.940  0.00  0.00     0.009 C 
HETATM   33  C   UNK N   1      31.641  16.794   3.298  0.00  0.00     0.009 C 
ENDBRANCH  30  31
ENDBRANCH   1  30
TORSDOF 14
ENDMDL
MODEL 5
REMARK VINA RESULT:      -5.8     11.991     15.966
REMARK  14 active torsions:
REMARK  status: ('A' for Active; 'I' for Inactive)
REMARK    1  A    between atoms: N_3  and  C_26 
REMARK    2  A    between atoms: C_8  and  N_9 
REMARK       I    between atoms: N_9  and  C_10 
REMARK    3  A    between atoms: C_10  and  C_11 
REMARK    4  A    between atoms: C_11  and  C_12 
REMARK    5  A    between atoms: C_11  and  C_21 
REMARK    6  A    between atoms: C_12  and  C_13 
REMARK    7  A    between atoms: C_12  and  C_17 
REMARK       I    between atoms: C_13  and  N_15 
REMARK    8  A    between atoms: N_15  and  O_16 
REMARK    9  A    between atoms: C_17  and  C_18 
REMARK   10  A    between atoms: C_18  and  C_19 
REMARK   11  A    between atoms: C_19  and  O_20 
REMARK   12  A    between atoms: C_21  and  C_22 
REMARK   13  A    between atoms: C_26  and  C_27 
REMARK   14  A    between atoms: C_27  and  O_28 
ROOT
HETATM    1  C   UNK N   1      36.396  14.379   8.823  0.00  0.00     0.091 C 
ENDROOT
BRANCH   1   2
HETATM    2  C   UNK N   1      36.659  13.574  10.081  0.00  0.00     0.223 C 
HETATM    3  N   UNK N   1      35.627  12.951  10.720  0.00  0.00    -0.347 N 
HETATM    4  H   UNK N   1      34.734  13.111  10.336  0.00  0.00     0.163 HD
HETATM    5  O   UNK N   1      37.808  13.456  10.479  0.00  0.00    -0.273 OA
BRANCH   3   6
HETATM    6  C   UNK N   1      35.656  12.082  11.893  0.00  0.00     0.176 C 
HETATM    7  C   UNK N   1      35.581  12.955  13.139  0.00  0.00     0.242 C 
HETATM    8  O   UNK N   1      35.384  14.155  12.985  0.00  0.00    -0.271 OA
HETATM    9  N   UNK N   1      35.746  12.439  14.406  0.00  0.00    -0.348 N 
HETATM   10  C   UNK N   1      36.017  11.030  14.586  0.00  0.00     0.126 C 
HETATM   11  C   UNK N   1      34.793  10.199  14.247  0.00  0.00     0.020 C 
HETATM   12  C   UNK N   1      34.813   9.827  12.780  0.00  0.00     0.004 C 
HETATM   13  C   UNK N   1      34.535  11.028  11.888  0.00  0.00     0.035 C 
BRANCH   9  14
HETATM   14  C   UNK N   1      35.698  13.224  15.639  0.00  0.00     0.152 C 
BRANCH  14  15
HETATM   15  C   UNK N   1      34.576  12.939  16.635  0.00  0.00     0.186 C 
BRANCH  15  16
HETATM   16  O   UNK N   1      35.031  13.153  17.937  0.00  0.00    -0.394 OA
HETATM   17  C   UNK N   1      35.286  11.879  18.443  0.00  0.00     0.201 C 
ENDBRANCH  15  16
ENDBRANCH  14  15
ENDBRANCH   9  14
ENDBRANCH   3   6
ENDBRANCH   1   2
BRANCH   1  18
HETATM   18  C   UNK N   1      35.017  15.127   8.803  0.00  0.00     0.093 C 
BRANCH  18  19
HETATM   19  C   UNK N   1      34.870  16.196   9.892  0.00  0.00     0.245 C 
HETATM   20  O   UNK N   1      35.415  17.282   9.761  0.00  0.00    -0.271 OA
HETATM   21  N   UNK N   1      34.092  15.989  10.985  0.00  0.00    -0.237 N 
HETATM   22  H   UNK N   1      34.041  16.688  11.676  0.00  0.00     0.197 HD
BRANCH  21  23
HETATM   23  O   UNK N   1      33.390  14.858  11.149  0.00  0.00    -0.287 OA
HETATM   24  H   UNK N   1      32.830  14.282  10.605  0.00  0.00     0.244 HD
ENDBRANCH  21  23
ENDBRANCH  18  19
BRANCH  18  25
HETATM   25  C   UNK N   1      34.876  15.750   7.405  0.00  0.00     0.017 C 
BRANCH  25  26
HETATM   26  C   UNK N   1      33.457  16.042   6.957  0.00  0.00     0.027 C 
BRANCH  26  27
HETATM   27  C   UNK N   1      33.334  17.546   6.804  0.00  0.00     0.164 C 
BRANCH  27  28
HETATM   28  O   UNK N   1      34.577  18.148   6.986  0.00  0.00    -0.401 OA
HETATM   29  H   UNK N   1      34.961  18.794   6.372  0.00  0.00     0.209 HD
ENDBRANCH  27  28
ENDBRANCH  26  27
ENDBRANCH  25  26
ENDBRANCH  18  25
ENDBRANCH   1  18
BRANCH   1  30
HETATM   30  C   UNK N   1      36.586  13.436   7.606  0.00  0.00     0.018 C 
BRANCH  30  31
HETATM   31  C   UNK N   1      37.832  13.568   6.734  0.00  0.00    -0.022 C 
HETATM   32  C   UNK N   1      38.542  12.243   6.534  0.00  0.00     0.009 C 
HETATM   33  C   UNK N   1      37.385  14.067   5.374  0.00  0.00     0.009 C 
ENDBRANCH  30  31
ENDBRANCH   1  30
TORSDOF 14
ENDMDL
MODEL 6
REMARK VINA RESULT:      -5.7     14.247     16.781
REMARK  14 active torsions:
REMARK  status: ('A' for Active; 'I' for Inactive)
REMARK    1  A    between atoms: N_3  and  C_26 
REMARK    2  A    between atoms: C_8  and  N_9 
REMARK       I    between atoms: N_9  and  C_10 
REMARK    3  A    between atoms: C_10  and  C_11 
REMARK    4  A    between atoms: C_11  and  C_12 
REMARK    5  A    between atoms: C_11  and  C_21 
REMARK    6  A    between atoms: C_12  and  C_13 
REMARK    7  A    between atoms: C_12  and  C_17 
REMARK       I    between atoms: C_13  and  N_15 
REMARK    8  A    between atoms: N_15  and  O_16 
REMARK    9  A    between atoms: C_17  and  C_18 
REMARK   10  A    between atoms: C_18  and  C_19 
REMARK   11  A    between atoms: C_19  and  O_20 
REMARK   12  A    between atoms: C_21  and  C_22 
REMARK   13  A    between atoms: C_26  and  C_27 
REMARK   14  A    between atoms: C_27  and  O_28 
ROOT
HETATM    1  C   UNK N   1      25.583  25.172  -6.459  0.00  0.00     0.091 C 
ENDROOT
BRANCH   1   2
HETATM    2  C   UNK N   1      26.418  24.516  -5.377  0.00  0.00     0.223 C 
HETATM    3  N   UNK N   1      27.674  24.064  -5.663  0.00  0.00    -0.347 N 
HETATM    4  H   UNK N   1      27.949  24.152  -6.604  0.00  0.00     0.163 HD
HETATM    5  O   UNK N   1      25.968  24.445  -4.243  0.00  0.00    -0.273 OA
BRANCH   3   6
HETATM    6  C   UNK N   1      28.667  23.469  -4.775  0.00  0.00     0.176 C 
HETATM    7  C   UNK N   1      29.362  22.337  -5.522  0.00  0.00     0.242 C 
HETATM    8  O   UNK N   1      29.102  22.194  -6.712  0.00  0.00    -0.271 OA
HETATM    9  N   UNK N   1      30.241  21.479  -4.899  0.00  0.00    -0.348 N 
HETATM   10  C   UNK N   1      30.519  21.623  -3.487  0.00  0.00     0.126 C 
HETATM   11  C   UNK N   1      31.328  22.880  -3.223  0.00  0.00     0.020 C 
HETATM   12  C   UNK N   1      30.398  24.048  -2.973  0.00  0.00     0.004 C 
HETATM   13  C   UNK N   1      29.688  24.490  -4.244  0.00  0.00     0.035 C 
BRANCH   9  14
HETATM   14  C   UNK N   1      30.930  20.368  -5.556  0.00  0.00     0.152 C 
BRANCH  14  15
HETATM   15  C   UNK N   1      32.419  20.519  -5.860  0.00  0.00     0.186 C 
BRANCH  15  16
HETATM   16  O   UNK N   1      32.599  21.397  -6.930  0.00  0.00    -0.394 OA
HETATM   17  C   UNK N   1      33.338  22.457  -6.405  0.00  0.00     0.201 C 
ENDBRANCH  15  16
ENDBRANCH  14  15
ENDBRANCH   9  14
ENDBRANCH   3   6
ENDBRANCH   1   2
BRANCH   1  18
HETATM   18  C   UNK N   1      26.114  24.948  -7.919  0.00  0.00     0.093 C 
BRANCH  18  19
HETATM   19  C   UNK N   1      25.748  23.584  -8.513  0.00  0.00     0.245 C 
HETATM   20  O   UNK N   1      24.576  23.251  -8.608  0.00  0.00    -0.271 OA
HETATM   21  N   UNK N   1      26.700  22.747  -9.001  0.00  0.00    -0.237 N 
HETATM   22  H   UNK N   1      26.430  21.868  -9.354  0.00  0.00     0.197 HD
BRANCH  21  23
HETATM   23  O   UNK N   1      27.997  23.086  -9.018  0.00  0.00    -0.287 OA
HETATM   24  H   UNK N   1      28.521  23.902  -8.978  0.00  0.00     0.244 HD
ENDBRANCH  21  23
ENDBRANCH  18  19
BRANCH  18  25
HETATM   25  C   UNK N   1      25.539  26.088  -8.774  0.00  0.00     0.017 C 
BRANCH  25  26
HETATM   26  C   UNK N   1      26.155  26.249 -10.151  0.00  0.00     0.027 C 
BRANCH  26  27
HETATM   27  C   UNK N   1      25.013  26.335 -11.146  0.00  0.00     0.164 C 
BRANCH  27  28
HETATM   28  O   UNK N   1      24.129  25.277 -10.953  0.00  0.00    -0.401 OA
HETATM   29  H   UNK N   1      24.386  24.342 -10.991  0.00  0.00     0.209 HD
ENDBRANCH  27  28
ENDBRANCH  26  27
ENDBRANCH  25  26
ENDBRANCH  18  25
ENDBRANCH   1  18
BRANCH   1  30
HETATM   30  C   UNK N   1      25.431  26.673  -6.099  0.00  0.00     0.018 C 
BRANCH  30  31
HETATM   31  C   UNK N   1      26.592  27.414  -5.440  0.00  0.00    -0.022 C 
HETATM   32  C   UNK N   1      27.362  28.275  -6.424  0.00  0.00     0.009 C 
HETATM   33  C   UNK N   1      26.008  28.327  -4.380  0.00  0.00     0.009 C 
ENDBRANCH  30  31
ENDBRANCH   1  30
TORSDOF 14
ENDMDL
MODEL 7
REMARK VINA RESULT:      -5.7      7.884     12.179
REMARK  14 active torsions:
REMARK  status: ('A' for Active; 'I' for Inactive)
REMARK    1  A    between atoms: N_3  and  C_26 
REMARK    2  A    between atoms: C_8  and  N_9 
REMARK       I    between atoms: N_9  and  C_10 
REMARK    3  A    between atoms: C_10  and  C_11 
REMARK    4  A    between atoms: C_11  and  C_12 
REMARK    5  A    between atoms: C_11  and  C_21 
REMARK    6  A    between atoms: C_12  and  C_13 
REMARK    7  A    between atoms: C_12  and  C_17 
REMARK       I    between atoms: C_13  and  N_15 
REMARK    8  A    between atoms: N_15  and  O_16 
REMARK    9  A    between atoms: C_17  and  C_18 
REMARK   10  A    between atoms: C_18  and  C_19 
REMARK   11  A    between atoms: C_19  and  O_20 
REMARK   12  A    between atoms: C_21  and  C_22 
REMARK   13  A    between atoms: C_26  and  C_27 
REMARK   14  A    between atoms: C_27  and  O_28 
ROOT
HETATM    1  C   UNK N   1      30.532  16.321   6.887  0.00  0.00     0.091 C 
ENDROOT
BRANCH   1   2
HETATM    2  C   UNK N   1      31.354  16.408   8.159  0.00  0.00     0.223 C 
HETATM    3  N   UNK N   1      32.415  15.571   8.344  0.00  0.00    -0.347 N 
HETATM    4  H   UNK N   1      32.555  14.903   7.634  0.00  0.00     0.163 HD
HETATM    5  O   UNK N   1      31.079  17.268   8.983  0.00  0.00    -0.273 OA
BRANCH   3   6
HETATM    6  C   UNK N   1      33.372  15.522   9.445  0.00  0.00     0.176 C 
HETATM    7  C   UNK N   1      33.821  14.077   9.627  0.00  0.00     0.242 C 
HETATM    8  O   UNK N   1      33.446  13.254   8.798  0.00  0.00    -0.271 OA
HETATM    9  N   UNK N   1      34.604  13.681  10.688  0.00  0.00    -0.348 N 
HETATM   10  C   UNK N   1      35.014  14.644  11.687  0.00  0.00     0.126 C 
HETATM   11  C   UNK N   1      36.027  15.617  11.112  0.00  0.00     0.020 C 
HETATM   12  C   UNK N   1      35.313  16.812  10.518  0.00  0.00     0.004 C 
HETATM   13  C   UNK N   1      34.579  16.453   9.234  0.00  0.00     0.035 C 
BRANCH   9  14
HETATM   14  C   UNK N   1      35.057  12.311  10.926  0.00  0.00     0.152 C 
BRANCH  14  15
HETATM   15  C   UNK N   1      35.167  11.825  12.370  0.00  0.00     0.186 C 
BRANCH  15  16
HETATM   16  O   UNK N   1      36.375  11.151  12.554  0.00  0.00    -0.394 OA
HETATM   17  C   UNK N   1      37.181  12.043  13.261  0.00  0.00     0.201 C 
ENDBRANCH  15  16
ENDBRANCH  14  15
ENDBRANCH   9  14
ENDBRANCH   3   6
ENDBRANCH   1   2
BRANCH   1  18
HETATM   18  C   UNK N   1      31.332  15.842   5.625  0.00  0.00     0.093 C 
BRANCH  18  19
HETATM   19  C   UNK N   1      30.771  14.573   4.975  0.00  0.00     0.245 C 
HETATM   20  O   UNK N   1      30.026  14.656   4.009  0.00  0.00    -0.271 OA
HETATM   21  N   UNK N   1      31.131  13.338   5.410  0.00  0.00    -0.237 N 
HETATM   22  H   UNK N   1      30.732  12.545   4.984  0.00  0.00     0.197 HD
BRANCH  21  23
HETATM   23  O   UNK N   1      32.017  13.169   6.402  0.00  0.00    -0.287 OA
HETATM   24  H   UNK N   1      32.977  13.061   6.490  0.00  0.00     0.244 HD
ENDBRANCH  21  23
ENDBRANCH  18  19
BRANCH  18  25
HETATM   25  C   UNK N   1      31.323  17.014   4.630  0.00  0.00     0.017 C 
BRANCH  25  26
HETATM   26  C   UNK N   1      32.685  17.564   4.254  0.00  0.00     0.027 C 
BRANCH  26  27
HETATM   27  C   UNK N   1      33.695  16.958   5.210  0.00  0.00     0.164 C 
BRANCH  27  28
HETATM   28  O   UNK N   1      34.188  17.937   6.069  0.00  0.00    -0.401 OA
HETATM   29  H   UNK N   1      35.132  18.114   6.203  0.00  0.00     0.209 HD
ENDBRANCH  27  28
ENDBRANCH  26  27
ENDBRANCH  25  26
ENDBRANCH  18  25
ENDBRANCH   1  18
BRANCH   1  30
HETATM   30  C   UNK N   1      29.837  17.692   6.675  0.00  0.00     0.018 C 
BRANCH  30  31
HETATM   31  C   UNK N   1      28.324  17.807   6.844  0.00  0.00    -0.022 C 
HETATM   32  C   UNK N   1      27.812  19.201   6.538  0.00  0.00     0.009 C 
HETATM   33  C   UNK N   1      27.682  16.848   5.861  0.00  0.00     0.009 C 
ENDBRANCH  30  31
ENDBRANCH   1  30
TORSDOF 14
ENDMDL
MODEL 8
REMARK VINA RESULT:      -5.6      2.762      7.491
REMARK  14 active torsions:
REMARK  status: ('A' for Active; 'I' for Inactive)
REMARK    1  A    between atoms: N_3  and  C_26 
REMARK    2  A    between atoms: C_8  and  N_9 
REMARK       I    between atoms: N_9  and  C_10 
REMARK    3  A    between atoms: C_10  and  C_11 
REMARK    4  A    between atoms: C_11  and  C_12 
REMARK    5  A    between atoms: C_11  and  C_21 
REMARK    6  A    between atoms: C_12  and  C_13 
REMARK    7  A    between atoms: C_12  and  C_17 
REMARK       I    between atoms: C_13  and  N_15 
REMARK    8  A    between atoms: N_15  and  O_16 
REMARK    9  A    between atoms: C_17  and  C_18 
REMARK   10  A    between atoms: C_18  and  C_19 
REMARK   11  A    between atoms: C_19  and  O_20 
REMARK   12  A    between atoms: C_21  and  C_22 
REMARK   13  A    between atoms: C_26  and  C_27 
REMARK   14  A    between atoms: C_27  and  O_28 
ROOT
HETATM    1  C   UNK N   1      22.464  18.282   4.939  0.00  0.00     0.091 C 
ENDROOT
BRANCH   1   2
HETATM    2  C   UNK N   1      21.732  17.397   5.929  0.00  0.00     0.223 C 
HETATM    3  N   UNK N   1      22.226  16.164   6.239  0.00  0.00    -0.347 N 
HETATM    4  H   UNK N   1      23.033  15.896   5.742  0.00  0.00     0.163 HD
HETATM    5  O   UNK N   1      20.727  17.828   6.476  0.00  0.00    -0.273 OA
BRANCH   3   6
HETATM    6  C   UNK N   1      21.730  15.184   7.200  0.00  0.00     0.176 C 
HETATM    7  C   UNK N   1      22.887  14.277   7.600  0.00  0.00     0.242 C 
HETATM    8  O   UNK N   1      24.007  14.567   7.194  0.00  0.00    -0.271 OA
HETATM    9  N   UNK N   1      22.703  13.153   8.376  0.00  0.00    -0.348 N 
HETATM   10  C   UNK N   1      21.377  12.790   8.824  0.00  0.00     0.126 C 
HETATM   11  C   UNK N   1      20.873  13.772   9.866  0.00  0.00     0.020 C 
HETATM   12  C   UNK N   1      20.134  14.906   9.189  0.00  0.00     0.004 C 
HETATM   13  C   UNK N   1      21.081  15.830   8.437  0.00  0.00     0.035 C 
BRANCH   9  14
HETATM   14  C   UNK N   1      23.768  12.237   8.783  0.00  0.00     0.152 C 
BRANCH  14  15
HETATM   15  C   UNK N   1      24.272  12.308  10.224  0.00  0.00     0.186 C 
BRANCH  15  16
HETATM   16  O   UNK N   1      23.621  11.349  11.002  0.00  0.00    -0.394 OA
HETATM   17  C   UNK N   1      23.234  12.026  12.158  0.00  0.00     0.201 C 
ENDBRANCH  15  16
ENDBRANCH  14  15
ENDBRANCH   9  14
ENDBRANCH   3   6
ENDBRANCH   1   2
BRANCH   1  18
HETATM   18  C   UNK N   1      21.814  18.339   3.511  0.00  0.00     0.093 C 
BRANCH  18  19
HETATM   19  C   UNK N   1      20.732  17.280   3.275  0.00  0.00     0.245 C 
HETATM   20  O   UNK N   1      19.551  17.573   3.398  0.00  0.00    -0.271 OA
HETATM   21  N   UNK N   1      21.049  16.024   2.869  0.00  0.00    -0.237 N 
HETATM   22  H   UNK N   1      20.329  15.363   2.751  0.00  0.00     0.197 HD
BRANCH  21  23
HETATM   23  O   UNK N   1      22.315  15.659   2.623  0.00  0.00    -0.287 OA
HETATM   24  H   UNK N   1      22.878  14.885   2.783  0.00  0.00     0.244 HD
ENDBRANCH  21  23
ENDBRANCH  18  19
BRANCH  18  25
HETATM   25  C   UNK N   1      21.238  19.754   3.349  0.00  0.00     0.017 C 
BRANCH  25  26
HETATM   26  C   UNK N   1      21.739  20.532   2.147  0.00  0.00     0.027 C 
BRANCH  26  27
HETATM   27  C   UNK N   1      20.526  20.907   1.317  0.00  0.00     0.164 C 
BRANCH  27  28
HETATM   28  O   UNK N   1      20.721  20.532  -0.010  0.00  0.00    -0.401 OA
HETATM   29  H   UNK N   1      21.439  19.953  -0.309  0.00  0.00     0.209 HD
ENDBRANCH  27  28
ENDBRANCH  26  27
ENDBRANCH  25  26
ENDBRANCH  18  25
ENDBRANCH   1  18
BRANCH   1  30
HETATM   30  C   UNK N   1      23.949  17.832   4.906  0.00  0.00     0.018 C 
BRANCH  30  31
HETATM   31  C   UNK N   1      24.834  18.232   3.729  0.00  0.00    -0.022 C 
HETATM   32  C   UNK N   1      25.276  19.681   3.803  0.00  0.00     0.009 C 
HETATM   33  C   UNK N   1      26.076  17.363   3.777  0.00  0.00     0.009 C 
ENDBRANCH  30  31
ENDBRANCH   1  30
TORSDOF 14
ENDMDL
MODEL 9
REMARK VINA RESULT:      -5.6     14.137     16.079
REMARK  14 active torsions:
REMARK  status: ('A' for Active; 'I' for Inactive)
REMARK    1  A    between atoms: N_3  and  C_26 
REMARK    2  A    between atoms: C_8  and  N_9 
REMARK       I    between atoms: N_9  and  C_10 
REMARK    3  A    between atoms: C_10  and  C_11 
REMARK    4  A    between atoms: C_11  and  C_12 
REMARK    5  A    between atoms: C_11  and  C_21 
REMARK    6  A    between atoms: C_12  and  C_13 
REMARK    7  A    between atoms: C_12  and  C_17 
REMARK       I    between atoms: C_13  and  N_15 
REMARK    8  A    between atoms: N_15  and  O_16 
REMARK    9  A    between atoms: C_17  and  C_18 
REMARK   10  A    between atoms: C_18  and  C_19 
REMARK   11  A    between atoms: C_19  and  O_20 
REMARK   12  A    between atoms: C_21  and  C_22 
REMARK   13  A    between atoms: C_26  and  C_27 
REMARK   14  A    between atoms: C_27  and  O_28 
ROOT
HETATM    1  C   UNK N   1      27.068  26.044  -6.901  0.00  0.00     0.091 C 
ENDROOT
BRANCH   1   2
HETATM    2  C   UNK N   1      28.244  25.089  -6.947  0.00  0.00     0.223 C 
HETATM    3  N   UNK N   1      28.055  23.760  -6.705  0.00  0.00    -0.347 N 
HETATM    4  H   UNK N   1      27.137  23.503  -6.457  0.00  0.00     0.163 HD
HETATM    5  O   UNK N   1      29.346  25.522  -7.251  0.00  0.00    -0.273 OA
BRANCH   3   6
HETATM    6  C   UNK N   1      29.017  22.663  -6.760  0.00  0.00     0.176 C 
HETATM    7  C   UNK N   1      29.447  22.331  -5.336  0.00  0.00     0.242 C 
HETATM    8  O   UNK N   1      28.863  22.894  -4.417  0.00  0.00    -0.271 OA
HETATM    9  N   UNK N   1      30.466  21.444  -5.067  0.00  0.00    -0.348 N 
HETATM   10  C   UNK N   1      31.180  20.807  -6.152  0.00  0.00     0.126 C 
HETATM   11  C   UNK N   1      30.293  19.801  -6.862  0.00  0.00     0.020 C 
HETATM   12  C   UNK N   1      29.549  20.478  -7.993  0.00  0.00     0.004 C 
HETATM   13  C   UNK N   1      28.469  21.417  -7.478  0.00  0.00     0.035 C 
BRANCH   9  14
HETATM   14  C   UNK N   1      30.934  21.092  -3.727  0.00  0.00     0.152 C 
BRANCH  14  15
HETATM   15  C   UNK N   1      31.897  22.046  -3.023  0.00  0.00     0.186 C 
BRANCH  15  16
HETATM   16  O   UNK N   1      32.765  21.323  -2.202  0.00  0.00    -0.394 OA
HETATM   17  C   UNK N   1      33.725  20.799  -3.068  0.00  0.00     0.201 C 
ENDBRANCH  15  16
ENDBRANCH  14  15
ENDBRANCH   9  14
ENDBRANCH   3   6
ENDBRANCH   1   2
BRANCH   1  18
HETATM   18  C   UNK N   1      26.533  26.351  -5.457  0.00  0.00     0.093 C 
BRANCH  18  19
HETATM   19  C   UNK N   1      27.546  26.066  -4.343  0.00  0.00     0.245 C 
HETATM   20  O   UNK N   1      28.524  26.785  -4.205  0.00  0.00    -0.271 OA
HETATM   21  N   UNK N   1      27.353  25.058  -3.453  0.00  0.00    -0.237 N 
HETATM   22  H   UNK N   1      28.037  24.888  -2.766  0.00  0.00     0.197 HD
BRANCH  21  23
HETATM   23  O   UNK N   1      26.256  24.288  -3.486  0.00  0.00    -0.287 OA
HETATM   24  H   UNK N   1      26.038  23.351  -3.353  0.00  0.00     0.244 HD
ENDBRANCH  21  23
ENDBRANCH  18  19
BRANCH  18  25
HETATM   25  C   UNK N   1      26.116  27.830  -5.449  0.00  0.00     0.017 C 
BRANCH  25  26
HETATM   26  C   UNK N   1      25.481  28.326  -4.165  0.00  0.00     0.027 C 
BRANCH  26  27
HETATM   27  C   UNK N   1      26.360  29.440  -3.629  0.00  0.00     0.164 C 
BRANCH  27  28
HETATM   28  O   UNK N   1      27.045  29.006  -2.497  0.00  0.00    -0.401 OA
HETATM   29  H   UNK N   1      26.903  29.366  -1.607  0.00  0.00     0.209 HD
ENDBRANCH  27  28
ENDBRANCH  26  27
ENDBRANCH  25  26
ENDBRANCH  18  25
ENDBRANCH   1  18
BRANCH   1  30
HETATM   30  C   UNK N   1      25.968  25.490  -7.844  0.00  0.00     0.018 C 
BRANCH  30  31
HETATM   31  C   UNK N   1      26.277  25.277  -9.323  0.00  0.00    -0.022 C 
HETATM   32  C   UNK N   1      26.076  23.837  -9.755  0.00  0.00     0.009 C 
HETATM   33  C   UNK N   1      25.318  26.141 -10.119  0.00  0.00     0.009 C 
ENDBRANCH  30  31
ENDBRANCH   1  30
TORSDOF 14
ENDMDL
