MODEL 1
REMARK VINA RESULT:      -6.7      0.000      0.000
REMARK  0 active torsions:
REMARK  status: ('A' for Active; 'I' for Inactive)
ROOT
HETATM    1  C   UNK N   1      25.646  20.477   3.133  0.00  0.00     0.117 A 
HETATM    2  F   UNK N   1      26.384  21.286   2.338  0.00  0.00    -0.206 F 
HETATM    3  C   UNK N   1      26.208  19.847   4.228  0.00  0.00     0.045 A 
HETATM    4  C   UNK N   1      25.420  19.020   5.016  0.00  0.00     0.040 A 
HETATM    5  C   UNK N   1      24.067  18.798   4.720  0.00  0.00     0.078 A 
HETATM    6  O   UNK N   1      23.415  17.975   5.544  0.00  0.00    -0.350 OA
HETATM    7  C   UNK N   1      22.116  17.633   5.405  0.00  0.00     0.179 A 
HETATM    8  C   UNK N   1      21.458  18.294   4.228  0.00  0.00     0.073 A 
HETATM    9  C   UNK N   1      21.895  19.253   3.083  0.00  0.00     0.148 A 
HETATM   10  C   UNK N   1      20.281  19.110   2.651  0.00  0.00     0.259 A 
HETATM   11  O   UNK N   1      19.375  18.443   3.178  0.00  0.00    -0.270 OA
HETATM   12  N   UNK N   1      19.941  19.814   1.575  0.00  0.00    -0.277 N 
HETATM   13  C   UNK N   1      21.004  20.407   1.163  0.00  0.00     0.324 A 
HETATM   14  O   UNK N   1      21.033  21.139   0.190  0.00  0.00    -0.247 OA
HETATM   15  N   UNK N   1      22.060  20.148   1.906  0.00  0.00    -0.320 N 
HETATM   16  C   UNK N   1      23.440  19.425   3.582  0.00  0.00     0.016 A 
HETATM   17  C   UNK N   1      24.317  20.269   2.831  0.00  0.00     0.055 A 
HETATM   18  H   UNK N   1      19.045  19.869   1.171  0.00  0.00     0.173 HD
HETATM   19  H   UNK N   1      22.937  20.537   1.687  0.00  0.00     0.165 HD
ENDROOT
TORSDOF 0
ENDMDL
MODEL 2
REMARK VINA RESULT:      -6.6      8.482     10.339
REMARK  0 active torsions:
REMARK  status: ('A' for Active; 'I' for Inactive)
ROOT
HETATM    1  C   UNK N   1      29.514  18.418   9.391  0.00  0.00     0.117 A 
HETATM    2  F   UNK N   1      29.857  19.145  10.479  0.00  0.00    -0.206 F 
HETATM    3  C   UNK N   1      28.207  18.017   9.183  0.00  0.00     0.045 A 
HETATM    4  C   UNK N   1      27.897  17.267   8.057  0.00  0.00     0.040 A 
HETATM    5  C   UNK N   1      28.881  16.897   7.129  0.00  0.00     0.078 A 
HETATM    6  O   UNK N   1      28.462  16.167   6.093  0.00  0.00    -0.350 OA
HETATM    7  C   UNK N   1      29.269  15.708   5.112  0.00  0.00     0.179 A 
HETATM    8  C   UNK N   1      30.702  16.119   5.291  0.00  0.00     0.073 A 
HETATM    9  C   UNK N   1      31.524  16.914   6.347  0.00  0.00     0.148 A 
HETATM   10  C   UNK N   1      32.782  16.579   5.289  0.00  0.00     0.259 A 
HETATM   11  O   UNK N   1      32.775  15.936   4.226  0.00  0.00    -0.270 OA
HETATM   12  N   UNK N   1      33.957  17.073   5.667  0.00  0.00    -0.277 N 
HETATM   13  C   UNK N   1      33.769  17.674   6.788  0.00  0.00     0.324 A 
HETATM   14  O   UNK N   1      34.653  18.242   7.405  0.00  0.00    -0.247 OA
HETATM   15  N   UNK N   1      32.519  17.620   7.198  0.00  0.00    -0.320 N 
HETATM   16  C   UNK N   1      30.258  17.284   7.309  0.00  0.00     0.016 A 
HETATM   17  C   UNK N   1      30.492  18.062   8.485  0.00  0.00     0.055 A 
HETATM   18  H   UNK N   1      34.810  16.994   5.180  0.00  0.00     0.173 HD
HETATM   19  H   UNK N   1      32.250  18.036   8.048  0.00  0.00     0.165 HD
ENDROOT
TORSDOF 0
ENDMDL
MODEL 3
REMARK VINA RESULT:      -6.6      6.152      8.515
REMARK  0 active torsions:
REMARK  status: ('A' for Active; 'I' for Inactive)
ROOT
HETATM    1  C   UNK N   1      26.741  20.773   6.095  0.00  0.00     0.117 A 
HETATM    2  F   UNK N   1      26.152  21.773   6.791  0.00  0.00    -0.206 F 
HETATM    3  C   UNK N   1      26.444  20.562   4.761  0.00  0.00     0.045 A 
HETATM    4  C   UNK N   1      27.064  19.522   4.083  0.00  0.00     0.040 A 
HETATM    5  C   UNK N   1      27.979  18.672   4.723  0.00  0.00     0.078 A 
HETATM    6  O   UNK N   1      28.502  17.702   3.969  0.00  0.00    -0.350 OA
HETATM    7  C   UNK N   1      29.384  16.784   4.419  0.00  0.00     0.179 A 
HETATM    8  C   UNK N   1      29.741  16.972   5.866  0.00  0.00     0.073 A 
HETATM    9  C   UNK N   1      29.326  17.938   7.013  0.00  0.00     0.148 A 
HETATM   10  C   UNK N   1      30.436  17.026   7.878  0.00  0.00     0.259 A 
HETATM   11  O   UNK N   1      31.119  16.053   7.516  0.00  0.00    -0.270 OA
HETATM   12  N   UNK N   1      30.587  17.408   9.143  0.00  0.00    -0.277 N 
HETATM   13  C   UNK N   1      29.790  18.398   9.334  0.00  0.00     0.324 A 
HETATM   14  O   UNK N   1      29.688  18.985  10.397  0.00  0.00    -0.247 OA
HETATM   15  N   UNK N   1      29.099  18.718   8.260  0.00  0.00    -0.320 N 
HETATM   16  C   UNK N   1      28.312  18.848   6.115  0.00  0.00     0.016 A 
HETATM   17  C   UNK N   1      27.639  19.947   6.736  0.00  0.00     0.055 A 
HETATM   18  H   UNK N   1      31.195  17.009   9.807  0.00  0.00     0.173 HD
HETATM   19  H   UNK N   1      28.447  19.454   8.282  0.00  0.00     0.165 HD
ENDROOT
TORSDOF 0
ENDMDL
MODEL 4
REMARK VINA RESULT:      -6.5      6.695      8.581
REMARK  0 active torsions:
REMARK  status: ('A' for Active; 'I' for Inactive)
ROOT
HETATM    1  C   UNK N   1      21.482  12.278  10.963  0.00  0.00     0.117 A 
HETATM    2  F   UNK N   1      20.694  11.892  11.993  0.00  0.00    -0.206 F 
HETATM    3  C   UNK N   1      22.681  11.639  10.704  0.00  0.00     0.045 A 
HETATM    4  C   UNK N   1      23.465  12.068   9.642  0.00  0.00     0.040 A 
HETATM    5  C   UNK N   1      23.074  13.143   8.830  0.00  0.00     0.078 A 
HETATM    6  O   UNK N   1      23.916  13.469   7.847  0.00  0.00    -0.350 OA
HETATM    7  C   UNK N   1      23.713  14.484   6.979  0.00  0.00     0.179 A 
HETATM    8  C   UNK N   1      22.420  15.210   7.217  0.00  0.00     0.073 A 
HETATM    9  C   UNK N   1      21.251  15.126   8.241  0.00  0.00     0.148 A 
HETATM   10  C   UNK N   1      20.649  16.388   7.317  0.00  0.00     0.259 A 
HETATM   11  O   UNK N   1      21.143  16.954   6.328  0.00  0.00    -0.270 OA
HETATM   12  N   UNK N   1      19.470  16.847   7.726  0.00  0.00    -0.277 N 
HETATM   13  C   UNK N   1      19.139  16.163   8.762  0.00  0.00     0.324 A 
HETATM   14  O   UNK N   1      18.102  16.333   9.379  0.00  0.00    -0.247 OA
HETATM   15  N   UNK N   1      20.032  15.252   9.085  0.00  0.00    -0.320 N 
HETATM   16  C   UNK N   1      21.837  13.845   9.067  0.00  0.00     0.016 A 
HETATM   17  C   UNK N   1      21.085  13.335  10.171  0.00  0.00     0.055 A 
HETATM   18  H   UNK N   1      18.948  17.574   7.312  0.00  0.00     0.173 HD
HETATM   19  H   UNK N   1      19.897  14.669   9.867  0.00  0.00     0.165 HD
ENDROOT
TORSDOF 0
ENDMDL
MODEL 5
REMARK VINA RESULT:      -6.4     17.473     19.634
REMARK  0 active torsions:
REMARK  status: ('A' for Active; 'I' for Inactive)
ROOT
HETATM    1  C   UNK N   1      35.175  13.778  18.312  0.00  0.00     0.117 A 
HETATM    2  F   UNK N   1      35.146  15.129  18.380  0.00  0.00    -0.206 F 
HETATM    3  C   UNK N   1      35.299  13.009  19.454  0.00  0.00     0.045 A 
HETATM    4  C   UNK N   1      35.332  11.626  19.343  0.00  0.00     0.040 A 
HETATM    5  C   UNK N   1      35.252  10.989  18.096  0.00  0.00     0.078 A 
HETATM    6  O   UNK N   1      35.305   9.655  18.116  0.00  0.00    -0.350 OA
HETATM    7  C   UNK N   1      35.258   8.877  17.013  0.00  0.00     0.179 A 
HETATM    8  C   UNK N   1      35.121   9.667  15.743  0.00  0.00     0.073 A 
HETATM    9  C   UNK N   1      35.057  11.172  15.352  0.00  0.00     0.148 A 
HETATM   10  C   UNK N   1      34.903  10.533  13.809  0.00  0.00     0.259 A 
HETATM   11  O   UNK N   1      34.902   9.347  13.438  0.00  0.00    -0.270 OA
HETATM   12  N   UNK N   1      34.776  11.447  12.852  0.00  0.00    -0.277 N 
HETATM   13  C   UNK N   1      34.826  12.597  13.422  0.00  0.00     0.324 A 
HETATM   14  O   UNK N   1      34.735  13.653  12.819  0.00  0.00    -0.247 OA
HETATM   15  N   UNK N   1      34.978  12.520  14.727  0.00  0.00    -0.320 N 
HETATM   16  C   UNK N   1      35.131  11.750  16.877  0.00  0.00     0.016 A 
HETATM   17  C   UNK N   1      35.094  13.165  17.079  0.00  0.00     0.055 A 
HETATM   18  H   UNK N   1      34.664  11.274  11.888  0.00  0.00     0.173 HD
HETATM   19  H   UNK N   1      35.039  13.334  15.276  0.00  0.00     0.165 HD
ENDROOT
TORSDOF 0
ENDMDL
MODEL 6
REMARK VINA RESULT:      -6.2      7.181      9.165
REMARK  0 active torsions:
REMARK  status: ('A' for Active; 'I' for Inactive)
ROOT
HETATM    1  C   UNK N   1      33.066  17.571   7.868  0.00  0.00     0.117 A 
HETATM    2  F   UNK N   1      33.578  17.804   9.099  0.00  0.00    -0.206 F 
HETATM    3  C   UNK N   1      33.887  17.494   6.757  0.00  0.00     0.045 A 
HETATM    4  C   UNK N   1      33.324  17.260   5.511  0.00  0.00     0.040 A 
HETATM    5  C   UNK N   1      31.939  17.109   5.349  0.00  0.00     0.078 A 
HETATM    6  O   UNK N   1      31.515  16.899   4.100  0.00  0.00    -0.350 OA
HETATM    7  C   UNK N   1      30.219  16.747   3.754  0.00  0.00     0.179 A 
HETATM    8  C   UNK N   1      29.285  16.821   4.928  0.00  0.00     0.073 A 
HETATM    9  C   UNK N   1      29.415  17.069   6.459  0.00  0.00     0.148 A 
HETATM   10  C   UNK N   1      27.752  16.859   6.406  0.00  0.00     0.259 A 
HETATM   11  O   UNK N   1      27.010  16.641   5.435  0.00  0.00    -0.270 OA
HETATM   12  N   UNK N   1      27.154  16.953   7.590  0.00  0.00    -0.277 N 
HETATM   13  C   UNK N   1      28.071  17.204   8.455  0.00  0.00     0.324 A 
HETATM   14  O   UNK N   1      27.854  17.346   9.646  0.00  0.00    -0.247 OA
HETATM   15  N   UNK N   1      29.273  17.283   7.924  0.00  0.00    -0.320 N 
HETATM   16  C   UNK N   1      31.043  17.191   6.476  0.00  0.00     0.016 A 
HETATM   17  C   UNK N   1      31.703  17.423   7.724  0.00  0.00     0.055 A 
HETATM   18  H   UNK N   1      26.191  16.851   7.770  0.00  0.00     0.173 HD
HETATM   19  H   UNK N   1      30.059  17.479   8.484  0.00  0.00     0.165 HD
ENDROOT
TORSDOF 0
ENDMDL
MODEL 7
REMARK VINA RESULT:      -6.1      5.464      7.238
REMARK  0 active torsions:
REMARK  status: ('A' for Active; 'I' for Inactive)
ROOT
HETATM    1  C   UNK N   1      29.703  18.055   9.181  0.00  0.00     0.117 A 
HETATM    2  F   UNK N   1      29.680  18.474  10.467  0.00  0.00    -0.206 F 
HETATM    3  C   UNK N   1      30.533  17.024   8.781  0.00  0.00     0.045 A 
HETATM    4  C   UNK N   1      30.532  16.627   7.451  0.00  0.00     0.040 A 
HETATM    5  C   UNK N   1      29.716  17.255   6.499  0.00  0.00     0.078 A 
HETATM    6  O   UNK N   1      29.811  16.791   5.251  0.00  0.00    -0.350 OA
HETATM    7  C   UNK N   1      29.114  17.284   4.204  0.00  0.00     0.179 A 
HETATM    8  C   UNK N   1      28.194  18.407   4.587  0.00  0.00     0.073 A 
HETATM    9  C   UNK N   1      27.853  19.193   5.887  0.00  0.00     0.148 A 
HETATM   10  C   UNK N   1      26.796  19.991   4.859  0.00  0.00     0.259 A 
HETATM   11  O   UNK N   1      26.601  19.833   3.642  0.00  0.00    -0.270 OA
HETATM   12  N   UNK N   1      26.073  20.938   5.450  0.00  0.00    -0.277 N 
HETATM   13  C   UNK N   1      26.430  20.968   6.684  0.00  0.00     0.324 A 
HETATM   14  O   UNK N   1      25.952  21.730   7.506  0.00  0.00    -0.247 OA
HETATM   15  N   UNK N   1      27.362  20.084   6.972  0.00  0.00    -0.320 N 
HETATM   16  C   UNK N   1      28.840  18.340   6.868  0.00  0.00     0.016 A 
HETATM   17  C   UNK N   1      28.893  18.680   8.256  0.00  0.00     0.055 A 
HETATM   18  H   UNK N   1      25.393  21.508   5.022  0.00  0.00     0.173 HD
HETATM   19  H   UNK N   1      27.726  20.015   7.884  0.00  0.00     0.165 HD
ENDROOT
TORSDOF 0
ENDMDL
MODEL 8
REMARK VINA RESULT:      -6.1     17.974     19.885
REMARK  0 active torsions:
REMARK  status: ('A' for Active; 'I' for Inactive)
ROOT
HETATM    1  C   UNK N   1      35.158  12.748  17.763  0.00  0.00     0.117 A 
HETATM    2  F   UNK N   1      34.539  13.814  18.322  0.00  0.00    -0.206 F 
HETATM    3  C   UNK N   1      35.334  11.573  18.471  0.00  0.00     0.045 A 
HETATM    4  C   UNK N   1      35.979  10.504  17.865  0.00  0.00     0.040 A 
HETATM    5  C   UNK N   1      36.466  10.591  16.552  0.00  0.00     0.078 A 
HETATM    6  O   UNK N   1      37.077   9.501  16.082  0.00  0.00    -0.350 OA
HETATM    7  C   UNK N   1      37.621   9.409  14.849  0.00  0.00     0.179 A 
HETATM    8  C   UNK N   1      37.454  10.661  14.038  0.00  0.00     0.073 A 
HETATM    9  C   UNK N   1      36.844  12.076  14.260  0.00  0.00     0.148 A 
HETATM   10  C   UNK N   1      37.335  12.290  12.671  0.00  0.00     0.259 A 
HETATM   11  O   UNK N   1      37.926  11.506  11.910  0.00  0.00    -0.270 OA
HETATM   12  N   UNK N   1      37.052  13.489  12.171  0.00  0.00    -0.277 N 
HETATM   13  C   UNK N   1      36.474  14.158  13.104  0.00  0.00     0.324 A 
HETATM   14  O   UNK N   1      36.081  15.304  12.967  0.00  0.00    -0.247 OA
HETATM   15  N   UNK N   1      36.342  13.476  14.222  0.00  0.00    -0.320 N 
HETATM   16  C   UNK N   1      36.314  11.799  15.779  0.00  0.00     0.016 A 
HETATM   17  C   UNK N   1      35.630  12.847  16.471  0.00  0.00     0.055 A 
HETATM   18  H   UNK N   1      37.248  13.805  11.259  0.00  0.00     0.173 HD
HETATM   19  H   UNK N   1      35.922  13.882  15.013  0.00  0.00     0.165 HD
ENDROOT
TORSDOF 0
ENDMDL
MODEL 9
REMARK VINA RESULT:      -6.0      9.930     12.555
REMARK  0 active torsions:
REMARK  status: ('A' for Active; 'I' for Inactive)
ROOT
HETATM    1  C   UNK N   1      30.413  18.186   8.500  0.00  0.00     0.117 A 
HETATM    2  F   UNK N   1      30.143  19.261   9.275  0.00  0.00    -0.206 F 
HETATM    3  C   UNK N   1      29.518  17.758   7.537  0.00  0.00     0.045 A 
HETATM    4  C   UNK N   1      29.828  16.646   6.765  0.00  0.00     0.040 A 
HETATM    5  C   UNK N   1      31.026  15.940   6.947  0.00  0.00     0.078 A 
HETATM    6  O   UNK N   1      31.206  14.883   6.152  0.00  0.00    -0.350 OA
HETATM    7  C   UNK N   1      32.290  14.077   6.196  0.00  0.00     0.179 A 
HETATM    8  C   UNK N   1      33.296  14.501   7.227  0.00  0.00     0.073 A 
HETATM    9  C   UNK N   1      33.404  15.620   8.303  0.00  0.00     0.148 A 
HETATM   10  C   UNK N   1      34.889  14.893   8.585  0.00  0.00     0.259 A 
HETATM   11  O   UNK N   1      35.402  13.900   8.043  0.00  0.00    -0.270 OA
HETATM   12  N   UNK N   1      35.606  15.474   9.543  0.00  0.00    -0.277 N 
HETATM   13  C   UNK N   1      34.907  16.453   9.994  0.00  0.00     0.324 A 
HETATM   14  O   UNK N   1      35.283  17.195  10.884  0.00  0.00    -0.247 OA
HETATM   15  N   UNK N   1      33.743  16.577   9.391  0.00  0.00    -0.320 N 
HETATM   16  C   UNK N   1      31.985  16.343   7.945  0.00  0.00     0.016 A 
HETATM   17  C   UNK N   1      31.596  17.501   8.688  0.00  0.00     0.055 A 
HETATM   18  H   UNK N   1      36.503  15.204   9.848  0.00  0.00     0.173 HD
HETATM   19  H   UNK N   1      33.113  17.285   9.654  0.00  0.00     0.165 HD
ENDROOT
TORSDOF 0
ENDMDL
