REMARK  5 active torsions:
REMARK  status: ('A' for Active; 'I' for Inactive)
REMARK    1  A    between atoms: B_1  and  O_2 
REMARK    2  A    between atoms: O_2  and  C_7 
REMARK    3  A    between atoms: C_7  and  C_8 
REMARK    4  A    between atoms: C_8  and  C_9 
REMARK    5  A    between atoms: C_9  and  N_10 
REMARK       I    between atoms: N_10  and  C_11 
REMARK       I    between atoms: C_11  and  N_13 
ROOT
HETATM    1  C   UNK N   1       1.614   0.239   0.000  0.00  0.00     0.140 C 
ENDROOT
BRANCH   1   2
HETATM    2  C   UNK N   1       0.459   1.218  -0.000  0.00  0.00     0.044 C 
BRANCH   2   3
HETATM    3  C   UNK N   1      -0.805   0.385   0.000  0.00  0.00     0.149 C 
BRANCH   3   4
HETATM    4  O   UNK N   1      -1.951   1.182  -0.000  0.00  0.00    -0.400 OA
BRANCH   4   5
HETATM    5  B   UNK N   1      -3.104   0.259   0.000  0.00  0.00     0.678 B 
HETATM    6  O   UNK N   1      -2.949  -1.190  -0.000  0.00  0.00    -0.398 OA
HETATM    7  C   UNK N   1      -4.277  -1.619   0.000  0.00  0.00     0.172 A 
HETATM    8  C   UNK N   1      -5.210  -0.408  -0.000  0.00  0.00     0.172 A 
HETATM    9  O   UNK N   1      -4.459   0.772   0.000  0.00  0.00    -0.398 OA
ENDBRANCH   4   5
ENDBRANCH   3   4
ENDBRANCH   2   3
ENDBRANCH   1   2
BRANCH   1  10
HETATM   10  N   UNK N   1       2.878   0.926  -0.000  0.00  0.00    -0.227 N 
HETATM   11  C   UNK N   1       4.092   0.194  -0.000  0.00  0.00     0.665 C 
HETATM   12  N   UNK N   1       5.211   0.819  -0.000  0.00  0.00    -0.235 N 
HETATM   13  N   UNK N   1       4.080  -1.220   0.000  0.00  0.00    -0.235 N 
HETATM   14  H   UNK N   1       6.056   0.314  -0.000  0.00  0.00     0.174 HD
HETATM   15  H   UNK N   1       5.225   1.803  -0.000  0.00  0.00     0.174 HD
HETATM   16  H   UNK N   1       3.223  -1.704   0.000  0.00  0.00     0.174 HD
HETATM   17  H   UNK N   1       4.928  -1.719   0.000  0.00  0.00     0.174 HD
HETATM   18  H   UNK N   1       2.900   1.911  -0.000  0.00  0.00     0.177 HD
ENDBRANCH   1  10
TORSDOF 5
