MODEL 1
REMARK VINA RESULT:      -7.4      0.000      0.000
REMARK  7 active torsions:
REMARK  status: ('A' for Active; 'I' for Inactive)
REMARK    1  A    between atoms: C_1  and  C_2 
REMARK    2  A    between atoms: C_1  and  N_17 
REMARK    3  A    between atoms: C_2  and  C_3 
REMARK    4  A    between atoms: C_3  and  N_4 
REMARK       I    between atoms: N_4  and  C_5 
REMARK    5  A    between atoms: C_5  and  C_7 
REMARK    6  A    between atoms: C_10  and  S_13 
REMARK    7  A    between atoms: S_13  and  N_16 
ROOT
HETATM    1  N   UNK N   1      32.759  18.208   8.556  0.00  0.00    -0.356 N 
HETATM    2  C   UNK N   1      33.787  18.020   7.676  0.00  0.00     0.251 C 
HETATM    3  O   UNK N   1      34.833  18.626   7.854  0.00  0.00    -0.268 OA
HETATM    4  H   UNK N   1      32.822  18.951   9.200  0.00  0.00     0.162 HD
ENDROOT
BRANCH   1   5
HETATM    5  C   UNK N   1      31.581  17.363   8.585  0.00  0.00     0.128 C 
BRANCH   5   6
HETATM    6  C   UNK N   1      30.285  18.134   8.428  0.00  0.00     0.018 C 
HETATM    7  C   UNK N   1      29.851  18.621   9.798  0.00  0.00     0.013 C 
BRANCH   6   8
HETATM    8  C   UNK N   1      29.173  17.271   7.830  0.00  0.00     0.134 C 
BRANCH   8   9
HETATM    9  N   UNK N   1      28.921  17.670   6.450  0.00  0.00    -0.356 N 
HETATM   10  C   UNK N   1      29.333  17.022   5.338  0.00  0.00     0.092 A 
HETATM   11  C   UNK N   1      28.865  17.697   4.203  0.00  0.00     0.031 A 
HETATM   12  C   UNK N   1      28.157  18.778   4.691  0.00  0.00    -0.008 A 
HETATM   13  C   UNK N   1      28.213  18.739   6.052  0.00  0.00     0.044 A 
HETATM   14  C   UNK N   1      27.466  19.785   4.019  0.00  0.00     0.014 A 
HETATM   15  C   UNK N   1      27.596  19.700   6.850  0.00  0.00     0.030 A 
HETATM   16  C   UNK N   1      26.891  20.731   6.204  0.00  0.00     0.002 A 
HETATM   17  C   UNK N   1      26.826  20.771   4.793  0.00  0.00     0.001 A 
ENDBRANCH   8   9
ENDBRANCH   6   8
ENDBRANCH   5   6
ENDBRANCH   1   5
BRANCH   2  18
HETATM   18  C   UNK N   1      33.691  17.051   6.547  0.00  0.00     0.032 A 
HETATM   19  C   UNK N   1      34.211  15.763   6.696  0.00  0.00     0.018 A 
HETATM   20  C   UNK N   1      34.208  14.864   5.651  0.00  0.00     0.026 A 
HETATM   21  C   UNK N   1      33.705  15.236   4.407  0.00  0.00     0.079 A 
HETATM   22  C   UNK N   1      33.120  16.505   4.243  0.00  0.00     0.026 A 
HETATM   23  C   UNK N   1      33.102  17.409   5.320  0.00  0.00     0.018 A 
BRANCH  21  24
HETATM   24  S   UNK N   1      33.843  14.056   3.066  0.00  0.00     0.256 S 
HETATM   25  O   UNK N   1      32.772  13.786   1.999  0.00  0.00    -0.201 OA
HETATM   26  O   UNK N   1      35.198  14.024   2.342  0.00  0.00    -0.201 OA
BRANCH  24  27
HETATM   27  N   UNK N   1      33.731  15.641   2.285  0.00  0.00    -0.324 N 
HETATM   28  H   UNK N   1      33.862  16.497   1.747  0.00  0.00     0.169 HD
HETATM   29  H   UNK N   1      32.835  15.904   2.696  0.00  0.00     0.169 HD
ENDBRANCH  24  27
ENDBRANCH  21  24
ENDBRANCH   2  18
TORSDOF 7
ENDMDL
MODEL 2
REMARK VINA RESULT:      -7.3      3.491      4.777
REMARK  7 active torsions:
REMARK  status: ('A' for Active; 'I' for Inactive)
REMARK    1  A    between atoms: C_1  and  C_2 
REMARK    2  A    between atoms: C_1  and  N_17 
REMARK    3  A    between atoms: C_2  and  C_3 
REMARK    4  A    between atoms: C_3  and  N_4 
REMARK       I    between atoms: N_4  and  C_5 
REMARK    5  A    between atoms: C_5  and  C_7 
REMARK    6  A    between atoms: C_10  and  S_13 
REMARK    7  A    between atoms: S_13  and  N_16 
ROOT
HETATM    1  N   UNK N   1      32.637  17.982   7.862  0.00  0.00    -0.356 N 
HETATM    2  C   UNK N   1      33.949  17.669   8.081  0.00  0.00     0.251 C 
HETATM    3  O   UNK N   1      34.811  18.302   7.490  0.00  0.00    -0.268 OA
HETATM    4  H   UNK N   1      32.415  18.578   7.111  0.00  0.00     0.162 HD
ENDROOT
BRANCH   1   5
HETATM    5  C   UNK N   1      31.557  17.474   8.687  0.00  0.00     0.128 C 
BRANCH   5   6
HETATM    6  C   UNK N   1      30.255  18.227   8.501  0.00  0.00     0.018 C 
HETATM    7  C   UNK N   1      29.805  18.744   9.855  0.00  0.00     0.013 C 
BRANCH   6   8
HETATM    8  C   UNK N   1      29.156  17.339   7.915  0.00  0.00     0.134 C 
BRANCH   8   9
HETATM    9  N   UNK N   1      28.899  17.714   6.530  0.00  0.00    -0.356 N 
HETATM   10  C   UNK N   1      29.302  17.044   5.428  0.00  0.00     0.092 A 
HETATM   11  C   UNK N   1      28.830  17.700   4.283  0.00  0.00     0.031 A 
HETATM   12  C   UNK N   1      28.130  18.793   4.755  0.00  0.00    -0.008 A 
HETATM   13  C   UNK N   1      28.193  18.778   6.117  0.00  0.00     0.044 A 
HETATM   14  C   UNK N   1      27.439  19.790   4.069  0.00  0.00     0.014 A 
HETATM   15  C   UNK N   1      27.585  19.757   6.900  0.00  0.00     0.030 A 
HETATM   16  C   UNK N   1      26.881  20.778   6.240  0.00  0.00     0.002 A 
HETATM   17  C   UNK N   1      26.808  20.793   4.829  0.00  0.00     0.001 A 
ENDBRANCH   8   9
ENDBRANCH   6   8
ENDBRANCH   5   6
ENDBRANCH   1   5
BRANCH   2  18
HETATM   18  C   UNK N   1      34.357  16.627   9.065  0.00  0.00     0.032 A 
HETATM   19  C   UNK N   1      34.030  15.289   8.830  0.00  0.00     0.018 A 
HETATM   20  C   UNK N   1      34.324  14.306   9.751  0.00  0.00     0.026 A 
HETATM   21  C   UNK N   1      34.936  14.637  10.957  0.00  0.00     0.079 A 
HETATM   22  C   UNK N   1      35.331  15.966  11.198  0.00  0.00     0.026 A 
HETATM   23  C   UNK N   1      35.052  16.960  10.243  0.00  0.00     0.018 A 
BRANCH  21  24
HETATM   24  S   UNK N   1      35.179  13.326  12.155  0.00  0.00     0.256 S 
HETATM   25  O   UNK N   1      36.232  12.213  12.059  0.00  0.00    -0.201 OA
HETATM   26  O   UNK N   1      35.125  13.752  13.630  0.00  0.00    -0.201 OA
BRANCH  24  27
HETATM   27  N   UNK N   1      36.677  14.269  12.183  0.00  0.00    -0.324 N 
HETATM   28  H   UNK N   1      37.586  14.699  12.014  0.00  0.00     0.169 HD
HETATM   29  H   UNK N   1      36.464  14.791  13.033  0.00  0.00     0.169 HD
ENDBRANCH  24  27
ENDBRANCH  21  24
ENDBRANCH   2  18
TORSDOF 7
ENDMDL
MODEL 3
REMARK VINA RESULT:      -7.3      2.602      4.318
REMARK  7 active torsions:
REMARK  status: ('A' for Active; 'I' for Inactive)
REMARK    1  A    between atoms: C_1  and  C_2 
REMARK    2  A    between atoms: C_1  and  N_17 
REMARK    3  A    between atoms: C_2  and  C_3 
REMARK    4  A    between atoms: C_3  and  N_4 
REMARK       I    between atoms: N_4  and  C_5 
REMARK    5  A    between atoms: C_5  and  C_7 
REMARK    6  A    between atoms: C_10  and  S_13 
REMARK    7  A    between atoms: S_13  and  N_16 
ROOT
HETATM    1  N   UNK N   1      31.114  16.841   5.080  0.00  0.00    -0.356 N 
HETATM    2  C   UNK N   1      32.436  17.179   5.138  0.00  0.00     0.251 C 
HETATM    3  O   UNK N   1      32.920  17.822   4.219  0.00  0.00    -0.268 OA
HETATM    4  H   UNK N   1      30.633  16.966   4.229  0.00  0.00     0.162 HD
ENDROOT
BRANCH   1   5
HETATM    5  C   UNK N   1      30.385  16.306   6.215  0.00  0.00     0.128 C 
BRANCH   5   6
HETATM    6  C   UNK N   1      29.779  17.378   7.098  0.00  0.00     0.018 C 
HETATM    7  C   UNK N   1      30.298  17.182   8.511  0.00  0.00     0.013 C 
BRANCH   6   8
HETATM    8  C   UNK N   1      28.251  17.312   7.115  0.00  0.00     0.134 C 
BRANCH   8   9
HETATM    9  N   UNK N   1      27.693  18.551   6.584  0.00  0.00    -0.356 N 
HETATM   10  C   UNK N   1      27.836  19.787   7.112  0.00  0.00     0.092 A 
HETATM   11  C   UNK N   1      27.183  20.721   6.296  0.00  0.00     0.031 A 
HETATM   12  C   UNK N   1      26.645  19.983   5.260  0.00  0.00    -0.008 A 
HETATM   13  C   UNK N   1      26.965  18.674   5.464  0.00  0.00     0.044 A 
HETATM   14  C   UNK N   1      25.901  20.388   4.153  0.00  0.00     0.014 A 
HETATM   15  C   UNK N   1      26.562  17.666   4.590  0.00  0.00     0.030 A 
HETATM   16  C   UNK N   1      25.810  18.039   3.464  0.00  0.00     0.002 A 
HETATM   17  C   UNK N   1      25.482  19.396   3.246  0.00  0.00     0.001 A 
ENDBRANCH   8   9
ENDBRANCH   6   8
ENDBRANCH   5   6
ENDBRANCH   1   5
BRANCH   2  18
HETATM   18  C   UNK N   1      33.284  16.843   6.317  0.00  0.00     0.032 A 
HETATM   19  C   UNK N   1      33.668  15.517   6.536  0.00  0.00     0.018 A 
HETATM   20  C   UNK N   1      34.389  15.154   7.653  0.00  0.00     0.026 A 
HETATM   21  C   UNK N   1      34.728  16.109   8.608  0.00  0.00     0.079 A 
HETATM   22  C   UNK N   1      34.409  17.461   8.387  0.00  0.00     0.026 A 
HETATM   23  C   UNK N   1      33.697  17.829   7.232  0.00  0.00     0.018 A 
BRANCH  21  24
HETATM   24  S   UNK N   1      35.561  15.544  10.091  0.00  0.00     0.256 S 
HETATM   25  O   UNK N   1      36.724  16.262  10.791  0.00  0.00    -0.201 OA
HETATM   26  O   UNK N   1      34.650  15.001  11.202  0.00  0.00    -0.201 OA
BRANCH  24  27
HETATM   27  N   UNK N   1      34.797  17.077  10.538  0.00  0.00    -0.324 N 
HETATM   28  H   UNK N   1      34.551  18.000  10.894  0.00  0.00     0.169 HD
HETATM   29  H   UNK N   1      33.900  16.890  10.089  0.00  0.00     0.169 HD
ENDBRANCH  24  27
ENDBRANCH  21  24
ENDBRANCH   2  18
TORSDOF 7
ENDMDL
MODEL 4
REMARK VINA RESULT:      -7.2     11.827     14.572
REMARK  7 active torsions:
REMARK  status: ('A' for Active; 'I' for Inactive)
REMARK    1  A    between atoms: C_1  and  C_2 
REMARK    2  A    between atoms: C_1  and  N_17 
REMARK    3  A    between atoms: C_2  and  C_3 
REMARK    4  A    between atoms: C_3  and  N_4 
REMARK       I    between atoms: N_4  and  C_5 
REMARK    5  A    between atoms: C_5  and  C_7 
REMARK    6  A    between atoms: C_10  and  S_13 
REMARK    7  A    between atoms: S_13  and  N_16 
ROOT
HETATM    1  N   UNK N   1      27.651  28.033  -3.368  0.00  0.00    -0.356 N 
HETATM    2  C   UNK N   1      26.403  27.530  -3.607  0.00  0.00     0.251 C 
HETATM    3  O   UNK N   1      25.463  27.953  -2.952  0.00  0.00    -0.268 OA
HETATM    4  H   UNK N   1      27.789  28.585  -2.565  0.00  0.00     0.162 HD
ENDROOT
BRANCH   1   5
HETATM    5  C   UNK N   1      28.780  27.790  -4.246  0.00  0.00     0.128 C 
BRANCH   5   6
HETATM    6  C   UNK N   1      29.765  26.780  -3.691  0.00  0.00     0.018 C 
HETATM    7  C   UNK N   1      31.111  27.463  -3.534  0.00  0.00     0.013 C 
BRANCH   6   8
HETATM    8  C   UNK N   1      29.924  25.568  -4.610  0.00  0.00     0.134 C 
BRANCH   8   9
HETATM    9  N   UNK N   1      30.194  24.374  -3.818  0.00  0.00    -0.356 N 
HETATM   10  C   UNK N   1      29.415  23.869  -2.836  0.00  0.00     0.092 A 
HETATM   11  C   UNK N   1      29.995  22.695  -2.337  0.00  0.00     0.031 A 
HETATM   12  C   UNK N   1      31.156  22.526  -3.066  0.00  0.00    -0.008 A 
HETATM   13  C   UNK N   1      31.253  23.560  -3.949  0.00  0.00     0.044 A 
HETATM   14  C   UNK N   1      32.124  21.526  -3.006  0.00  0.00     0.014 A 
HETATM   15  C   UNK N   1      32.322  23.684  -4.833  0.00  0.00     0.030 A 
HETATM   16  C   UNK N   1      33.317  22.692  -4.799  0.00  0.00     0.002 A 
HETATM   17  C   UNK N   1      33.217  21.616  -3.889  0.00  0.00     0.001 A 
ENDBRANCH   8   9
ENDBRANCH   6   8
ENDBRANCH   5   6
ENDBRANCH   1   5
BRANCH   2  18
HETATM   18  C   UNK N   1      26.149  26.530  -4.683  0.00  0.00     0.032 A 
HETATM   19  C   UNK N   1      26.246  25.166  -4.396  0.00  0.00     0.018 A 
HETATM   20  C   UNK N   1      26.092  24.213  -5.380  0.00  0.00     0.026 A 
HETATM   21  C   UNK N   1      25.860  24.598  -6.698  0.00  0.00     0.079 A 
HETATM   22  C   UNK N   1      25.697  25.961  -7.008  0.00  0.00     0.026 A 
HETATM   23  C   UNK N   1      25.829  26.927  -5.995  0.00  0.00     0.018 A 
BRANCH  21  24
HETATM   24  S   UNK N   1      25.789  23.310  -7.942  0.00  0.00     0.256 S 
HETATM   25  O   UNK N   1      26.575  21.992  -7.908  0.00  0.00    -0.201 OA
HETATM   26  O   UNK N   1      24.386  22.969  -8.469  0.00  0.00    -0.201 OA
BRANCH  24  27
HETATM   27  N   UNK N   1      25.154  22.570  -6.463  0.00  0.00    -0.324 N 
HETATM   28  H   UNK N   1      24.795  21.957  -5.732  0.00  0.00     0.169 HD
HETATM   29  H   UNK N   1      25.123  23.429  -5.913  0.00  0.00     0.169 HD
ENDBRANCH  24  27
ENDBRANCH  21  24
ENDBRANCH   2  18
TORSDOF 7
ENDMDL
MODEL 5
REMARK VINA RESULT:      -7.2      3.264      5.314
REMARK  7 active torsions:
REMARK  status: ('A' for Active; 'I' for Inactive)
REMARK    1  A    between atoms: C_1  and  C_2 
REMARK    2  A    between atoms: C_1  and  N_17 
REMARK    3  A    between atoms: C_2  and  C_3 
REMARK    4  A    between atoms: C_3  and  N_4 
REMARK       I    between atoms: N_4  and  C_5 
REMARK    5  A    between atoms: C_5  and  C_7 
REMARK    6  A    between atoms: C_10  and  S_13 
REMARK    7  A    between atoms: S_13  and  N_16 
ROOT
HETATM    1  N   UNK N   1      27.462  18.447   7.652  0.00  0.00    -0.356 N 
HETATM    2  C   UNK N   1      28.246  17.725   8.507  0.00  0.00     0.251 C 
HETATM    3  O   UNK N   1      27.708  17.057   9.376  0.00  0.00    -0.268 OA
HETATM    4  H   UNK N   1      26.507  18.552   7.865  0.00  0.00     0.162 HD
ENDROOT
BRANCH   1   5
HETATM    5  C   UNK N   1      27.975  19.065   6.443  0.00  0.00     0.128 C 
BRANCH   5   6
HETATM    6  C   UNK N   1      27.843  18.185   5.216  0.00  0.00     0.018 C 
HETATM    7  C   UNK N   1      29.226  17.976   4.629  0.00  0.00     0.013 C 
BRANCH   6   8
HETATM    8  C   UNK N   1      26.939  18.813   4.154  0.00  0.00     0.134 C 
BRANCH   8   9
HETATM    9  N   UNK N   1      25.573  18.326   4.313  0.00  0.00    -0.356 N 
HETATM   10  C   UNK N   1      25.191  17.198   4.950  0.00  0.00     0.092 A 
HETATM   11  C   UNK N   1      23.794  17.094   4.919  0.00  0.00     0.031 A 
HETATM   12  C   UNK N   1      23.363  18.212   4.232  0.00  0.00    -0.008 A 
HETATM   13  C   UNK N   1      24.461  18.935   3.874  0.00  0.00     0.044 A 
HETATM   14  C   UNK N   1      22.074  18.634   3.909  0.00  0.00     0.014 A 
HETATM   15  C   UNK N   1      24.364  20.127   3.159  0.00  0.00     0.030 A 
HETATM   16  C   UNK N   1      23.079  20.582   2.816  0.00  0.00     0.002 A 
HETATM   17  C   UNK N   1      21.939  19.837   3.192  0.00  0.00     0.001 A 
ENDBRANCH   8   9
ENDBRANCH   6   8
ENDBRANCH   5   6
ENDBRANCH   1   5
BRANCH   2  18
HETATM   18  C   UNK N   1      29.730  17.680   8.368  0.00  0.00     0.032 A 
HETATM   19  C   UNK N   1      30.510  18.674   8.963  0.00  0.00     0.018 A 
HETATM   20  C   UNK N   1      31.878  18.709   8.795  0.00  0.00     0.026 A 
HETATM   21  C   UNK N   1      32.510  17.758   7.999  0.00  0.00     0.079 A 
HETATM   22  C   UNK N   1      31.760  16.710   7.435  0.00  0.00     0.026 A 
HETATM   23  C   UNK N   1      30.369  16.664   7.632  0.00  0.00     0.018 A 
BRANCH  21  24
HETATM   24  S   UNK N   1      34.273  17.936   7.730  0.00  0.00     0.256 S 
HETATM   25  O   UNK N   1      35.189  18.939   8.447  0.00  0.00    -0.201 OA
HETATM   26  O   UNK N   1      35.066  16.625   7.614  0.00  0.00    -0.201 OA
BRANCH  24  27
HETATM   27  N   UNK N   1      34.106  17.410   9.413  0.00  0.00    -0.324 N 
HETATM   28  H   UNK N   1      34.035  16.904  10.295  0.00  0.00     0.169 HD
HETATM   29  H   UNK N   1      33.992  18.342   9.810  0.00  0.00     0.169 HD
ENDBRANCH  24  27
ENDBRANCH  21  24
ENDBRANCH   2  18
TORSDOF 7
ENDMDL
MODEL 6
REMARK VINA RESULT:      -7.2      5.379      8.559
REMARK  7 active torsions:
REMARK  status: ('A' for Active; 'I' for Inactive)
REMARK    1  A    between atoms: C_1  and  C_2 
REMARK    2  A    between atoms: C_1  and  N_17 
REMARK    3  A    between atoms: C_2  and  C_3 
REMARK    4  A    between atoms: C_3  and  N_4 
REMARK       I    between atoms: N_4  and  C_5 
REMARK    5  A    between atoms: C_5  and  C_7 
REMARK    6  A    between atoms: C_10  and  S_13 
REMARK    7  A    between atoms: S_13  and  N_16 
ROOT
HETATM    1  N   UNK N   1      34.960  17.198   9.722  0.00  0.00    -0.356 N 
HETATM    2  C   UNK N   1      34.648  18.045   8.697  0.00  0.00     0.251 C 
HETATM    3  O   UNK N   1      35.298  19.070   8.562  0.00  0.00    -0.268 OA
HETATM    4  H   UNK N   1      35.575  17.515  10.424  0.00  0.00     0.162 HD
ENDROOT
BRANCH   1   5
HETATM    5  C   UNK N   1      34.427  15.852   9.824  0.00  0.00     0.128 C 
BRANCH   5   6
HETATM    6  C   UNK N   1      35.476  14.817  10.180  0.00  0.00     0.018 C 
HETATM    7  C   UNK N   1      36.077  14.284   8.893  0.00  0.00     0.013 C 
BRANCH   6   8
HETATM    8  C   UNK N   1      34.885  13.652  10.975  0.00  0.00     0.134 C 
BRANCH   8   9
HETATM    9  N   UNK N   1      35.388  13.677  12.344  0.00  0.00    -0.356 N 
HETATM   10  C   UNK N   1      36.175  14.628  12.893  0.00  0.00     0.092 A 
HETATM   11  C   UNK N   1      36.418  14.315  14.237  0.00  0.00     0.031 A 
HETATM   12  C   UNK N   1      35.740  13.132  14.461  0.00  0.00    -0.008 A 
HETATM   13  C   UNK N   1      35.132  12.768  13.297  0.00  0.00     0.044 A 
HETATM   14  C   UNK N   1      35.619  12.364  15.618  0.00  0.00     0.014 A 
HETATM   15  C   UNK N   1      34.366  11.608  13.190  0.00  0.00     0.030 A 
HETATM   16  C   UNK N   1      34.225  10.810  14.337  0.00  0.00     0.002 A 
HETATM   17  C   UNK N   1      34.849  11.188  15.548  0.00  0.00     0.001 A 
ENDBRANCH   8   9
ENDBRANCH   6   8
ENDBRANCH   5   6
ENDBRANCH   1   5
BRANCH   2  18
HETATM   18  C   UNK N   1      33.582  17.723   7.706  0.00  0.00     0.032 A 
HETATM   19  C   UNK N   1      32.243  17.728   8.105  0.00  0.00     0.018 A 
HETATM   20  C   UNK N   1      31.235  17.364   7.238  0.00  0.00     0.026 A 
HETATM   21  C   UNK N   1      31.539  16.955   5.942  0.00  0.00     0.079 A 
HETATM   22  C   UNK N   1      32.872  16.996   5.492  0.00  0.00     0.026 A 
HETATM   23  C   UNK N   1      33.893  17.395   6.373  0.00  0.00     0.018 A 
BRANCH  21  24
HETATM   24  S   UNK N   1      30.190  16.382   4.911  0.00  0.00     0.256 S 
HETATM   25  O   UNK N   1      28.957  17.207   4.514  0.00  0.00    -0.201 OA
HETATM   26  O   UNK N   1      30.596  15.577   3.667  0.00  0.00    -0.201 OA
BRANCH  24  27
HETATM   27  N   UNK N   1      30.941  17.706   4.007  0.00  0.00    -0.324 N 
HETATM   28  H   UNK N   1      31.563  18.374   3.552  0.00  0.00     0.169 HD
HETATM   29  H   UNK N   1      30.070  18.144   3.706  0.00  0.00     0.169 HD
ENDBRANCH  24  27
ENDBRANCH  21  24
ENDBRANCH   2  18
TORSDOF 7
ENDMDL
MODEL 7
REMARK VINA RESULT:      -7.1      7.817     10.833
REMARK  7 active torsions:
REMARK  status: ('A' for Active; 'I' for Inactive)
REMARK    1  A    between atoms: C_1  and  C_2 
REMARK    2  A    between atoms: C_1  and  N_17 
REMARK    3  A    between atoms: C_2  and  C_3 
REMARK    4  A    between atoms: C_3  and  N_4 
REMARK       I    between atoms: N_4  and  C_5 
REMARK    5  A    between atoms: C_5  and  C_7 
REMARK    6  A    between atoms: C_10  and  S_13 
REMARK    7  A    between atoms: S_13  and  N_16 
ROOT
HETATM    1  N   UNK N   1      37.620  13.158  11.924  0.00  0.00    -0.356 N 
HETATM    2  C   UNK N   1      37.756  13.714  10.683  0.00  0.00     0.251 C 
HETATM    3  O   UNK N   1      38.769  13.481  10.042  0.00  0.00    -0.268 OA
HETATM    4  H   UNK N   1      38.407  12.735  12.338  0.00  0.00     0.162 HD
ENDROOT
BRANCH   1   5
HETATM    5  C   UNK N   1      36.368  13.163  12.657  0.00  0.00     0.128 C 
BRANCH   5   6
HETATM    6  C   UNK N   1      36.029  11.820  13.273  0.00  0.00     0.018 C 
HETATM    7  C   UNK N   1      35.957  10.790  12.162  0.00  0.00     0.013 C 
BRANCH   6   8
HETATM    8  C   UNK N   1      34.691  11.850  14.013  0.00  0.00     0.134 C 
BRANCH   8   9
HETATM    9  N   UNK N   1      34.834  11.228  15.325  0.00  0.00    -0.356 N 
HETATM   10  C   UNK N   1      34.878   9.903  15.586  0.00  0.00     0.092 A 
HETATM   11  C   UNK N   1      35.057   9.703  16.961  0.00  0.00     0.031 A 
HETATM   12  C   UNK N   1      35.115  10.971  17.507  0.00  0.00    -0.008 A 
HETATM   13  C   UNK N   1      34.972  11.872  16.494  0.00  0.00     0.044 A 
HETATM   14  C   UNK N   1      35.291  11.380  18.827  0.00  0.00     0.014 A 
HETATM   15  C   UNK N   1      34.982  13.248  16.717  0.00  0.00     0.030 A 
HETATM   16  C   UNK N   1      35.157  13.695  18.038  0.00  0.00     0.002 A 
HETATM   17  C   UNK N   1      35.312  12.763  19.089  0.00  0.00     0.001 A 
ENDBRANCH   8   9
ENDBRANCH   6   8
ENDBRANCH   5   6
ENDBRANCH   1   5
BRANCH   2  18
HETATM   18  C   UNK N   1      36.679  14.541  10.068  0.00  0.00     0.032 A 
HETATM   19  C   UNK N   1      36.096  14.132   8.866  0.00  0.00     0.018 A 
HETATM   20  C   UNK N   1      35.151  14.907   8.227  0.00  0.00     0.026 A 
HETATM   21  C   UNK N   1      34.776  16.137   8.762  0.00  0.00     0.079 A 
HETATM   22  C   UNK N   1      35.301  16.548  10.000  0.00  0.00     0.026 A 
HETATM   23  C   UNK N   1      36.244  15.741  10.660  0.00  0.00     0.018 A 
BRANCH  21  24
HETATM   24  S   UNK N   1      33.632  17.141   7.816  0.00  0.00     0.256 S 
HETATM   25  O   UNK N   1      32.600  18.113   8.405  0.00  0.00    -0.201 OA
HETATM   26  O   UNK N   1      34.218  17.827   6.572  0.00  0.00    -0.201 OA
BRANCH  24  27
HETATM   27  N   UNK N   1      34.685  18.293   8.654  0.00  0.00    -0.324 N 
HETATM   28  H   UNK N   1      35.370  18.773   9.236  0.00  0.00     0.169 HD
HETATM   29  H   UNK N   1      34.319  19.130   8.199  0.00  0.00     0.169 HD
ENDBRANCH  24  27
ENDBRANCH  21  24
ENDBRANCH   2  18
TORSDOF 7
ENDMDL
MODEL 8
REMARK VINA RESULT:      -7.1     12.168     14.677
REMARK  7 active torsions:
REMARK  status: ('A' for Active; 'I' for Inactive)
REMARK    1  A    between atoms: C_1  and  C_2 
REMARK    2  A    between atoms: C_1  and  N_17 
REMARK    3  A    between atoms: C_2  and  C_3 
REMARK    4  A    between atoms: C_3  and  N_4 
REMARK       I    between atoms: N_4  and  C_5 
REMARK    5  A    between atoms: C_5  and  C_7 
REMARK    6  A    between atoms: C_10  and  S_13 
REMARK    7  A    between atoms: S_13  and  N_16 
ROOT
HETATM    1  N   UNK N   1      30.848  22.487  -4.048  0.00  0.00    -0.356 N 
HETATM    2  C   UNK N   1      30.348  23.324  -3.091  0.00  0.00     0.251 C 
HETATM    3  O   UNK N   1      30.723  23.188  -1.937  0.00  0.00    -0.268 OA
HETATM    4  H   UNK N   1      31.353  21.692  -3.760  0.00  0.00     0.162 HD
ENDROOT
BRANCH   1   5
HETATM    5  C   UNK N   1      30.668  22.716  -5.469  0.00  0.00     0.128 C 
BRANCH   5   6
HETATM    6  C   UNK N   1      29.660  21.780  -6.106  0.00  0.00     0.018 C 
HETATM    7  C   UNK N   1      30.316  20.424  -6.285  0.00  0.00     0.013 C 
BRANCH   6   8
HETATM    8  C   UNK N   1      29.186  22.288  -7.468  0.00  0.00     0.134 C 
BRANCH   8   9
HETATM    9  N   UNK N   1      27.910  22.981  -7.324  0.00  0.00    -0.356 N 
HETATM   10  C   UNK N   1      26.712  22.413  -7.063  0.00  0.00     0.092 A 
HETATM   11  C   UNK N   1      25.734  23.411  -6.965  0.00  0.00     0.031 A 
HETATM   12  C   UNK N   1      26.404  24.599  -7.182  0.00  0.00    -0.008 A 
HETATM   13  C   UNK N   1      27.717  24.307  -7.402  0.00  0.00     0.044 A 
HETATM   14  C   UNK N   1      25.938  25.912  -7.192  0.00  0.00     0.014 A 
HETATM   15  C   UNK N   1      28.665  25.295  -7.658  0.00  0.00     0.030 A 
HETATM   16  C   UNK N   1      28.229  26.631  -7.677  0.00  0.00     0.002 A 
HETATM   17  C   UNK N   1      26.869  26.937  -7.443  0.00  0.00     0.001 A 
ENDBRANCH   8   9
ENDBRANCH   6   8
ENDBRANCH   5   6
ENDBRANCH   1   5
BRANCH   2  18
HETATM   18  C   UNK N   1      29.412  24.434  -3.426  0.00  0.00     0.032 A 
HETATM   19  C   UNK N   1      29.918  25.710  -3.687  0.00  0.00     0.018 A 
HETATM   20  C   UNK N   1      29.082  26.779  -3.928  0.00  0.00     0.026 A 
HETATM   21  C   UNK N   1      27.700  26.609  -3.888  0.00  0.00     0.079 A 
HETATM   22  C   UNK N   1      27.160  25.326  -3.687  0.00  0.00     0.026 A 
HETATM   23  C   UNK N   1      28.019  24.234  -3.470  0.00  0.00     0.018 A 
BRANCH  21  24
HETATM   24  S   UNK N   1      26.676  28.066  -4.092  0.00  0.00     0.256 S 
HETATM   25  O   UNK N   1      25.181  28.065  -4.442  0.00  0.00    -0.201 OA
HETATM   26  O   UNK N   1      26.880  29.176  -3.049  0.00  0.00    -0.201 OA
BRANCH  24  27
HETATM   27  N   UNK N   1      25.999  27.208  -2.698  0.00  0.00    -0.324 N 
HETATM   28  H   UNK N   1      25.566  26.556  -2.045  0.00  0.00     0.169 HD
HETATM   29  H   UNK N   1      26.195  27.938  -2.013  0.00  0.00     0.169 HD
ENDBRANCH  24  27
ENDBRANCH  21  24
ENDBRANCH   2  18
TORSDOF 7
ENDMDL
MODEL 9
REMARK VINA RESULT:      -6.8      8.385     11.430
REMARK  7 active torsions:
REMARK  status: ('A' for Active; 'I' for Inactive)
REMARK    1  A    between atoms: C_1  and  C_2 
REMARK    2  A    between atoms: C_1  and  N_17 
REMARK    3  A    between atoms: C_2  and  C_3 
REMARK    4  A    between atoms: C_3  and  N_4 
REMARK       I    between atoms: N_4  and  C_5 
REMARK    5  A    between atoms: C_5  and  C_7 
REMARK    6  A    between atoms: C_10  and  S_13 
REMARK    7  A    between atoms: S_13  and  N_16 
ROOT
HETATM    1  N   UNK N   1      37.189  13.488  12.390  0.00  0.00    -0.356 N 
HETATM    2  C   UNK N   1      37.232  13.835  11.070  0.00  0.00     0.251 C 
HETATM    3  O   UNK N   1      38.155  13.422  10.383  0.00  0.00    -0.268 OA
HETATM    4  H   UNK N   1      37.984  13.068  12.793  0.00  0.00     0.162 HD
ENDROOT
BRANCH   1   5
HETATM    5  C   UNK N   1      36.024  13.709  13.226  0.00  0.00     0.128 C 
BRANCH   5   6
HETATM    6  C   UNK N   1      36.221  13.261  14.661  0.00  0.00     0.018 C 
HETATM    7  C   UNK N   1      37.224  12.122  14.672  0.00  0.00     0.013 C 
BRANCH   6   8
HETATM    8  C   UNK N   1      34.915  12.783  15.297  0.00  0.00     0.134 C 
BRANCH   8   9
HETATM    9  N   UNK N   1      35.063  12.718  16.747  0.00  0.00    -0.356 N 
HETATM   10  C   UNK N   1      35.162  13.767  17.592  0.00  0.00     0.092 A 
HETATM   11  C   UNK N   1      35.256  13.298  18.909  0.00  0.00     0.031 A 
HETATM   12  C   UNK N   1      35.209  11.922  18.808  0.00  0.00    -0.008 A 
HETATM   13  C   UNK N   1      35.098  11.600  17.488  0.00  0.00     0.044 A 
HETATM   14  C   UNK N   1      35.253  10.940  19.797  0.00  0.00     0.014 A 
HETATM   15  C   UNK N   1      35.031  10.279  17.049  0.00  0.00     0.030 A 
HETATM   16  C   UNK N   1      35.073   9.264  18.019  0.00  0.00     0.002 A 
HETATM   17  C   UNK N   1      35.182   9.594  19.389  0.00  0.00     0.001 A 
ENDBRANCH   8   9
ENDBRANCH   6   8
ENDBRANCH   5   6
ENDBRANCH   1   5
BRANCH   2  18
HETATM   18  C   UNK N   1      36.157  14.645  10.432  0.00  0.00     0.032 A 
HETATM   19  C   UNK N   1      35.253  14.031   9.561  0.00  0.00     0.018 A 
HETATM   20  C   UNK N   1      34.291  14.760   8.895  0.00  0.00     0.026 A 
HETATM   21  C   UNK N   1      34.219  16.141   9.059  0.00  0.00     0.079 A 
HETATM   22  C   UNK N   1      35.076  16.780   9.974  0.00  0.00     0.026 A 
HETATM   23  C   UNK N   1      36.037  16.027  10.671  0.00  0.00     0.018 A 
BRANCH  21  24
HETATM   24  S   UNK N   1      33.022  17.036   8.071  0.00  0.00     0.256 S 
HETATM   25  O   UNK N   1      32.081  18.134   8.585  0.00  0.00    -0.201 OA
HETATM   26  O   UNK N   1      33.508  17.491   6.685  0.00  0.00    -0.201 OA
BRANCH  24  27
HETATM   27  N   UNK N   1      34.185  18.255   8.616  0.00  0.00    -0.324 N 
HETATM   28  H   UNK N   1      34.792  18.891   9.133  0.00  0.00     0.169 HD
HETATM   29  H   UNK N   1      34.471  18.560   7.685  0.00  0.00     0.169 HD
ENDBRANCH  24  27
ENDBRANCH  21  24
ENDBRANCH   2  18
TORSDOF 7
ENDMDL
