REMARK  13 active torsions:
REMARK  status: ('A' for Active; 'I' for Inactive)
REMARK    1  A    between atoms: S_2  and  C_3 
REMARK    2  A    between atoms: C_3  and  C_4 
REMARK    3  A    between atoms: C_4  and  C_5 
REMARK    4  A    between atoms: C_5  and  C_6 
REMARK    5  A    between atoms: C_5  and  N_9 
REMARK       I    between atoms: C_6  and  N_8 
REMARK       I    between atoms: N_9  and  C_10 
REMARK    6  A    between atoms: C_12  and  C_10 
REMARK       I    between atoms: N_16  and  C_17 
REMARK    7  A    between atoms: C_17  and  C_19 
REMARK    8  A    between atoms: C_19  and  N_20 
REMARK    9  A    between atoms: C_19  and  C_25 
REMARK       I    between atoms: N_20  and  C_21 
REMARK   10  A    between atoms: C_21  and  C_23 
REMARK   11  A    between atoms: C_23  and  S_24 
REMARK   12  A    between atoms: C_25  and  C_26 
REMARK   13  A    between atoms: C_29  and  O_30 
ROOT
HETATM    1  C   UNK N   1      -0.857   2.262  -0.205  0.00  0.00     0.179 C 
HETATM    2  C   UNK N   1      -0.530   3.686  -0.636  0.00  0.00     0.037 C 
HETATM    3  C   UNK N   1       0.992   3.794  -0.667  0.00  0.00     0.022 C 
HETATM    4  C   UNK N   1       1.529   2.377  -0.594  0.00  0.00     0.127 C 
HETATM    5  N   UNK N   1       0.403   1.565  -0.219  0.00  0.00    -0.337 N 
HETATM    6  C   UNK N   1       0.528   0.239   0.105  0.00  0.00     0.243 C 
HETATM    7  O   UNK N   1      -0.460  -0.402   0.439  0.00  0.00    -0.271 OA
ENDROOT
BRANCH   1   8
HETATM    8  C   UNK N   1      -1.833   1.644  -1.204  0.00  0.00     0.241 C 
HETATM    9  N   UNK N   1      -2.987   1.014  -0.835  0.00  0.00    -0.346 N 
HETATM   10  H   UNK N   1      -3.621   0.794  -1.555  0.00  0.00     0.163 HD
HETATM   11  O   UNK N   1      -1.565   1.712  -2.395  0.00  0.00    -0.271 OA
BRANCH   9  12
HETATM   12  C   UNK N   1      -3.372   0.636   0.515  0.00  0.00     0.177 C 
BRANCH  12  13
HETATM   13  C   UNK N   1      -4.518   1.513   1.038  0.00  0.00     0.045 C 
BRANCH  13  14
HETATM   14  C   UNK N   1      -5.921   1.214   0.522  0.00  0.00     0.076 C 
BRANCH  14  15
HETATM   15  S   UNK N   1      -6.169   1.774  -1.184  0.00  0.00    -0.173 SA
HETATM   16  C   UNK N   1      -6.976   0.211  -1.631  0.00  0.00     0.089 C 
ENDBRANCH  14  15
ENDBRANCH  13  14
ENDBRANCH  12  13
BRANCH  12  17
HETATM   17  C   UNK N   1      -3.679  -0.843   0.546  0.00  0.00     0.238 C 
HETATM   18  O   UNK N   1      -3.035  -1.586   1.269  0.00  0.00    -0.271 OA
HETATM   19  N   UNK N   1      -4.636  -1.362  -0.251  0.00  0.00    -0.368 N 
HETATM   20  H   UNK N   1      -5.313  -0.946  -0.832  0.00  0.00     0.159 HD
HETATM   21  H   UNK N   1      -4.662  -2.346  -0.251  0.00  0.00     0.159 HD
ENDBRANCH  12  17
ENDBRANCH   9  12
ENDBRANCH   1   8
BRANCH   6  22
HETATM   22  C   UNK N   1       1.863  -0.461   0.015  0.00  0.00     0.181 C 
BRANCH  22  23
HETATM   23  N   UNK N   1       1.774  -1.898   0.219  0.00  0.00    -0.347 N 
HETATM   24  C   UNK N   1       1.069  -2.730  -0.593  0.00  0.00     0.227 C 
HETATM   25  O   UNK N   1       0.424  -2.288  -1.532  0.00  0.00    -0.273 OA
HETATM   26  H   UNK N   1       2.248  -2.289   0.988  0.00  0.00     0.163 HD
BRANCH  24  27
HETATM   27  C   UNK N   1       1.125  -4.206  -0.374  0.00  0.00     0.173 C 
BRANCH  27  28
HETATM   28  S   UNK N   1       0.528  -4.645   1.284  0.00  0.00    -0.173 SA
HETATM   29  H   UNK N   1       0.020  -4.422   2.525  0.00  0.00     0.102 HD
ENDBRANCH  27  28
ENDBRANCH  24  27
ENDBRANCH  22  23
BRANCH  22  30
HETATM   30  C   UNK N   1       2.836   0.126   1.038  0.00  0.00     0.073 C 
BRANCH  30  31
HETATM   31  C   UNK N   1       4.228  -0.220   0.637  0.00  0.00    -0.056 A 
HETATM   32  C   UNK N   1       4.922   0.645  -0.213  0.00  0.00     0.010 A 
HETATM   33  C   UNK N   1       6.178   0.286  -0.701  0.00  0.00     0.037 A 
HETATM   34  C   UNK N   1       6.739  -0.944  -0.346  0.00  0.00     0.065 A 
HETATM   35  C   UNK N   1       6.049  -1.808   0.511  0.00  0.00     0.037 A 
HETATM   36  C   UNK N   1       4.789  -1.450   0.999  0.00  0.00     0.010 A 
BRANCH  34  37
HETATM   37  O   UNK N   1       7.937  -1.297  -0.834  0.00  0.00    -0.361 OA
HETATM   38  H   UNK N   1       8.142  -2.146  -1.175  0.00  0.00     0.217 HD
ENDBRANCH  34  37
ENDBRANCH  30  31
ENDBRANCH  22  30
ENDBRANCH   6  22
TORSDOF 13
