MODEL 1
REMARK VINA RESULT:      -6.7      0.000      0.000
REMARK  13 active torsions:
REMARK  status: ('A' for Active; 'I' for Inactive)
REMARK    1  A    between atoms: S_2  and  C_3 
REMARK    2  A    between atoms: C_3  and  C_4 
REMARK    3  A    between atoms: C_4  and  C_5 
REMARK    4  A    between atoms: C_5  and  C_6 
REMARK    5  A    between atoms: C_5  and  N_9 
REMARK       I    between atoms: C_6  and  N_8 
REMARK       I    between atoms: N_9  and  C_10 
REMARK    6  A    between atoms: C_12  and  C_10 
REMARK       I    between atoms: N_16  and  C_17 
REMARK    7  A    between atoms: C_17  and  C_19 
REMARK    8  A    between atoms: C_19  and  N_20 
REMARK    9  A    between atoms: C_19  and  C_25 
REMARK       I    between atoms: N_20  and  C_21 
REMARK   10  A    between atoms: C_21  and  C_23 
REMARK   11  A    between atoms: C_23  and  S_24 
REMARK   12  A    between atoms: C_25  and  C_26 
REMARK   13  A    between atoms: C_29  and  O_30 
ROOT
HETATM    1  C   UNK N   1      29.962  21.134  -6.011  0.00  0.00     0.179 C 
HETATM    2  C   UNK N   1      30.222  19.963  -6.950  0.00  0.00     0.037 C 
HETATM    3  C   UNK N   1      29.049  19.915  -7.924  0.00  0.00     0.022 C 
HETATM    4  C   UNK N   1      28.307  21.230  -7.774  0.00  0.00     0.127 C 
HETATM    5  N   UNK N   1      28.833  21.826  -6.576  0.00  0.00    -0.337 N 
HETATM    6  C   UNK N   1      28.293  22.956  -6.018  0.00  0.00     0.243 C 
HETATM    7  O   UNK N   1      28.765  23.410  -4.985  0.00  0.00    -0.271 OA
ENDROOT
BRANCH   1   8
HETATM    8  C   UNK N   1      31.194  22.037  -5.978  0.00  0.00     0.241 C 
HETATM    9  N   UNK N   1      31.943  22.243  -4.855  0.00  0.00    -0.346 N 
HETATM   10  H   UNK N   1      32.801  22.710  -4.975  0.00  0.00     0.163 HD
HETATM   11  O   UNK N   1      31.522  22.608  -7.008  0.00  0.00    -0.271 OA
BRANCH   9  12
HETATM   12  C   UNK N   1      31.599  21.843  -3.500  0.00  0.00     0.177 C 
BRANCH  12  13
HETATM   13  C   UNK N   1      32.780  21.153  -2.803  0.00  0.00     0.045 C 
BRANCH  13  14
HETATM   14  C   UNK N   1      34.020  20.868  -3.642  0.00  0.00     0.076 C 
BRANCH  14  15
HETATM   15  S   UNK N   1      34.074  19.159  -4.245  0.00  0.00    -0.173 SA
HETATM   16  C   UNK N   1      35.660  19.452  -5.077  0.00  0.00     0.089 C 
ENDBRANCH  14  15
ENDBRANCH  13  14
ENDBRANCH  12  13
BRANCH  12  17
HETATM   17  C   UNK N   1      31.069  23.042  -2.750  0.00  0.00     0.238 C 
HETATM   18  O   UNK N   1      30.664  22.917  -1.605  0.00  0.00    -0.271 OA
HETATM   19  N   UNK N   1      31.000  24.250  -3.347  0.00  0.00    -0.368 N 
HETATM   20  H   UNK N   1      31.339  24.585  -4.208  0.00  0.00     0.159 HD
HETATM   21  H   UNK N   1      30.518  24.927  -2.819  0.00  0.00     0.159 HD
ENDBRANCH  12  17
ENDBRANCH   9  12
ENDBRANCH   1   8
BRANCH   6  22
HETATM   22  C   UNK N   1      27.146  23.679  -6.684  0.00  0.00     0.181 C 
BRANCH  22  23
HETATM   23  N   UNK N   1      27.497  25.014  -7.143  0.00  0.00    -0.347 N 
HETATM   24  C   UNK N   1      27.707  25.328  -8.449  0.00  0.00     0.227 C 
HETATM   25  O   UNK N   1      27.651  24.468  -9.315  0.00  0.00    -0.273 OA
HETATM   26  H   UNK N   1      27.590  25.727  -6.471  0.00  0.00     0.163 HD
BRANCH  24  27
HETATM   27  C   UNK N   1      27.952  26.748  -8.842  0.00  0.00     0.173 C 
BRANCH  27  28
HETATM   28  S   UNK N   1      28.145  27.808  -7.380  0.00  0.00    -0.173 SA
HETATM   29  H   UNK N   1      27.879  28.858  -6.558  0.00  0.00     0.102 HD
ENDBRANCH  27  28
ENDBRANCH  24  27
ENDBRANCH  22  23
BRANCH  22  30
HETATM   30  C   UNK N   1      25.960  23.781  -5.725  0.00  0.00     0.073 C 
BRANCH  30  31
HETATM   31  C   UNK N   1      25.898  25.163  -5.174  0.00  0.00    -0.056 A 
HETATM   32  C   UNK N   1      26.500  25.427  -3.941  0.00  0.00     0.010 A 
HETATM   33  C   UNK N   1      26.352  26.680  -3.346  0.00  0.00     0.037 A 
HETATM   34  C   UNK N   1      25.595  27.669  -3.980  0.00  0.00     0.065 A 
HETATM   35  C   UNK N   1      24.998  27.408  -5.218  0.00  0.00     0.037 A 
HETATM   36  C   UNK N   1      25.144  26.153  -5.815  0.00  0.00     0.010 A 
BRANCH  34  37
HETATM   37  O   UNK N   1      25.436  28.865  -3.396  0.00  0.00    -0.361 OA
HETATM   38  H   UNK N   1      25.340  28.996  -2.472  0.00  0.00     0.217 HD
ENDBRANCH  34  37
ENDBRANCH  30  31
ENDBRANCH  22  30
ENDBRANCH   6  22
TORSDOF 13
ENDMDL
MODEL 2
REMARK VINA RESULT:      -6.6     17.945     21.748
REMARK  13 active torsions:
REMARK  status: ('A' for Active; 'I' for Inactive)
REMARK    1  A    between atoms: S_2  and  C_3 
REMARK    2  A    between atoms: C_3  and  C_4 
REMARK    3  A    between atoms: C_4  and  C_5 
REMARK    4  A    between atoms: C_5  and  C_6 
REMARK    5  A    between atoms: C_5  and  N_9 
REMARK       I    between atoms: C_6  and  N_8 
REMARK       I    between atoms: N_9  and  C_10 
REMARK    6  A    between atoms: C_12  and  C_10 
REMARK       I    between atoms: N_16  and  C_17 
REMARK    7  A    between atoms: C_17  and  C_19 
REMARK    8  A    between atoms: C_19  and  N_20 
REMARK    9  A    between atoms: C_19  and  C_25 
REMARK       I    between atoms: N_20  and  C_21 
REMARK   10  A    between atoms: C_21  and  C_23 
REMARK   11  A    between atoms: C_23  and  S_24 
REMARK   12  A    between atoms: C_25  and  C_26 
REMARK   13  A    between atoms: C_29  and  O_30 
ROOT
HETATM    1  C   UNK N   1      35.212  12.389  13.554  0.00  0.00     0.179 C 
HETATM    2  C   UNK N   1      34.691  10.977  13.320  0.00  0.00     0.037 C 
HETATM    3  C   UNK N   1      34.326  10.886  11.841  0.00  0.00     0.022 C 
HETATM    4  C   UNK N   1      34.943  12.096  11.166  0.00  0.00     0.127 C 
HETATM    5  N   UNK N   1      35.340  12.966  12.241  0.00  0.00    -0.337 N 
HETATM    6  C   UNK N   1      35.795  14.241  12.025  0.00  0.00     0.243 C 
HETATM    7  O   UNK N   1      36.099  14.948  12.977  0.00  0.00    -0.271 OA
ENDROOT
BRANCH   1   8
HETATM    8  C   UNK N   1      36.568  12.317  14.253  0.00  0.00     0.241 C 
HETATM    9  N   UNK N   1      36.811  12.868  15.478  0.00  0.00    -0.346 N 
HETATM   10  H   UNK N   1      37.664  12.629  15.909  0.00  0.00     0.163 HD
HETATM   11  O   UNK N   1      37.484  11.741  13.683  0.00  0.00    -0.271 OA
BRANCH   9  12
HETATM   12  C   UNK N   1      35.937  13.771  16.209  0.00  0.00     0.177 C 
BRANCH  12  13
HETATM   13  C   UNK N   1      35.161  13.032  17.309  0.00  0.00     0.045 C 
BRANCH  13  14
HETATM   14  C   UNK N   1      35.284  11.514  17.354  0.00  0.00     0.076 C 
BRANCH  14  15
HETATM   15  S   UNK N   1      35.356  10.872  19.048  0.00  0.00    -0.173 SA
HETATM   16  C   UNK N   1      35.289  12.549  19.738  0.00  0.00     0.089 C 
ENDBRANCH  14  15
ENDBRANCH  13  14
ENDBRANCH  12  13
BRANCH  12  17
HETATM   17  C   UNK N   1      36.749  14.938  16.721  0.00  0.00     0.238 C 
HETATM   18  O   UNK N   1      37.674  15.377  16.058  0.00  0.00    -0.271 OA
HETATM   19  N   UNK N   1      36.486  15.479  17.929  0.00  0.00    -0.368 N 
HETATM   20  H   UNK N   1      35.755  15.341  18.573  0.00  0.00     0.159 HD
HETATM   21  H   UNK N   1      37.154  16.140  18.221  0.00  0.00     0.159 HD
ENDBRANCH  12  17
ENDBRANCH   9  12
ENDBRANCH   1   8
BRANCH   6  22
HETATM   22  C   UNK N   1      35.970  14.778  10.625  0.00  0.00     0.181 C 
BRANCH  22  23
HETATM   23  N   UNK N   1      37.313  14.592  10.101  0.00  0.00    -0.347 N 
HETATM   24  C   UNK N   1      37.586  13.905   8.960  0.00  0.00     0.227 C 
HETATM   25  O   UNK N   1      36.693  13.359   8.330  0.00  0.00    -0.273 OA
HETATM   26  H   UNK N   1      38.066  14.983  10.600  0.00  0.00     0.163 HD
BRANCH  24  27
HETATM   27  C   UNK N   1      38.984  13.860   8.436  0.00  0.00     0.173 C 
BRANCH  27  28
HETATM   28  S   UNK N   1      39.741  12.235   8.730  0.00  0.00    -0.173 SA
HETATM   29  H   UNK N   1      39.833  10.976   9.233  0.00  0.00     0.102 HD
ENDBRANCH  27  28
ENDBRANCH  24  27
ENDBRANCH  22  23
BRANCH  22  30
HETATM   30  C   UNK N   1      35.623  16.267  10.584  0.00  0.00     0.073 C 
BRANCH  30  31
HETATM   31  C   UNK N   1      34.575  16.492   9.549  0.00  0.00    -0.056 A 
HETATM   32  C   UNK N   1      34.586  17.686   8.824  0.00  0.00     0.010 A 
HETATM   33  C   UNK N   1      33.548  17.975   7.938  0.00  0.00     0.037 A 
HETATM   34  C   UNK N   1      32.492  17.073   7.782  0.00  0.00     0.065 A 
HETATM   35  C   UNK N   1      32.484  15.873   8.502  0.00  0.00     0.037 A 
HETATM   36  C   UNK N   1      33.522  15.583   9.392  0.00  0.00     0.010 A 
BRANCH  34  37
HETATM   37  O   UNK N   1      31.485  17.362   6.947  0.00  0.00    -0.361 OA
HETATM   38  H   UNK N   1      31.120  16.761   6.327  0.00  0.00     0.217 HD
ENDBRANCH  34  37
ENDBRANCH  30  31
ENDBRANCH  22  30
ENDBRANCH   6  22
TORSDOF 13
ENDMDL
MODEL 3
REMARK VINA RESULT:      -6.6     14.894     16.243
REMARK  13 active torsions:
REMARK  status: ('A' for Active; 'I' for Inactive)
REMARK    1  A    between atoms: S_2  and  C_3 
REMARK    2  A    between atoms: C_3  and  C_4 
REMARK    3  A    between atoms: C_4  and  C_5 
REMARK    4  A    between atoms: C_5  and  C_6 
REMARK    5  A    between atoms: C_5  and  N_9 
REMARK       I    between atoms: C_6  and  N_8 
REMARK       I    between atoms: N_9  and  C_10 
REMARK    6  A    between atoms: C_12  and  C_10 
REMARK       I    between atoms: N_16  and  C_17 
REMARK    7  A    between atoms: C_17  and  C_19 
REMARK    8  A    between atoms: C_19  and  N_20 
REMARK    9  A    between atoms: C_19  and  C_25 
REMARK       I    between atoms: N_20  and  C_21 
REMARK   10  A    between atoms: C_21  and  C_23 
REMARK   11  A    between atoms: C_23  and  S_24 
REMARK   12  A    between atoms: C_25  and  C_26 
REMARK   13  A    between atoms: C_29  and  O_30 
ROOT
HETATM    1  C   UNK N   1      21.693  14.643   8.007  0.00  0.00     0.179 C 
HETATM    2  C   UNK N   1      20.705  15.087   9.077  0.00  0.00     0.037 C 
HETATM    3  C   UNK N   1      20.195  16.463   8.656  0.00  0.00     0.022 C 
HETATM    4  C   UNK N   1      20.611  16.655   7.210  0.00  0.00     0.127 C 
HETATM    5  N   UNK N   1      21.563  15.610   6.948  0.00  0.00    -0.337 N 
HETATM    6  C   UNK N   1      22.290  15.551   5.787  0.00  0.00     0.243 C 
HETATM    7  O   UNK N   1      23.104  14.652   5.624  0.00  0.00    -0.271 OA
ENDROOT
BRANCH   1   8
HETATM    8  C   UNK N   1      21.314  13.246   7.518  0.00  0.00     0.241 C 
HETATM    9  N   UNK N   1      22.168  12.181   7.551  0.00  0.00    -0.346 N 
HETATM   10  H   UNK N   1      21.780  11.296   7.366  0.00  0.00     0.163 HD
HETATM   11  O   UNK N   1      20.189  13.074   7.070  0.00  0.00    -0.271 OA
BRANCH   9  12
HETATM   12  C   UNK N   1      23.594  12.225   7.833  0.00  0.00     0.177 C 
BRANCH  12  13
HETATM   13  C   UNK N   1      23.914  11.611   9.203  0.00  0.00     0.045 C 
BRANCH  13  14
HETATM   14  C   UNK N   1      24.006  12.560  10.392  0.00  0.00     0.076 C 
BRANCH  14  15
HETATM   15  S   UNK N   1      23.193  11.903  11.872  0.00  0.00    -0.173 SA
HETATM   16  C   UNK N   1      21.551  12.154  11.140  0.00  0.00     0.089 C 
ENDBRANCH  14  15
ENDBRANCH  13  14
ENDBRANCH  12  13
BRANCH  12  17
HETATM   17  C   UNK N   1      24.343  11.580   6.690  0.00  0.00     0.238 C 
HETATM   18  O   UNK N   1      24.182  10.396   6.444  0.00  0.00    -0.271 OA
HETATM   19  N   UNK N   1      25.225  12.294   5.959  0.00  0.00    -0.368 N 
HETATM   20  H   UNK N   1      25.441  13.254   5.932  0.00  0.00     0.159 HD
HETATM   21  H   UNK N   1      25.754  11.749   5.333  0.00  0.00     0.159 HD
ENDBRANCH  12  17
ENDBRANCH   9  12
ENDBRANCH   1   8
BRANCH   6  22
HETATM   22  C   UNK N   1      22.072  16.556   4.681  0.00  0.00     0.181 C 
BRANCH  22  23
HETATM   23  N   UNK N   1      22.254  15.996   3.352  0.00  0.00    -0.347 N 
HETATM   24  C   UNK N   1      21.236  15.498   2.600  0.00  0.00     0.227 C 
HETATM   25  O   UNK N   1      20.097  15.456   3.040  0.00  0.00    -0.273 OA
HETATM   26  H   UNK N   1      23.164  15.975   2.976  0.00  0.00     0.163 HD
BRANCH  24  27
HETATM   27  C   UNK N   1      21.497  15.046   1.201  0.00  0.00     0.173 C 
BRANCH  27  28
HETATM   28  S   UNK N   1      22.816  13.799   1.151  0.00  0.00    -0.173 SA
HETATM   29  H   UNK N   1      23.664  12.861   1.650  0.00  0.00     0.102 HD
ENDBRANCH  27  28
ENDBRANCH  24  27
ENDBRANCH  22  23
BRANCH  22  30
HETATM   30  C   UNK N   1      23.019  17.743   4.854  0.00  0.00     0.073 C 
BRANCH  30  31
HETATM   31  C   UNK N   1      22.476  18.910   4.104  0.00  0.00    -0.056 A 
HETATM   32  C   UNK N   1      21.095  19.122   4.090  0.00  0.00     0.010 A 
HETATM   33  C   UNK N   1      20.551  20.132   3.298  0.00  0.00     0.037 A 
HETATM   34  C   UNK N   1      21.387  20.927   2.510  0.00  0.00     0.065 A 
HETATM   35  C   UNK N   1      22.771  20.722   2.528  0.00  0.00     0.037 A 
HETATM   36  C   UNK N   1      23.317  19.708   3.320  0.00  0.00     0.010 A 
BRANCH  34  37
HETATM   37  O   UNK N   1      20.860  21.883   1.731  0.00  0.00    -0.361 OA
HETATM   38  H   UNK N   1      19.966  22.163   1.766  0.00  0.00     0.217 HD
ENDBRANCH  34  37
ENDBRANCH  30  31
ENDBRANCH  22  30
ENDBRANCH   6  22
TORSDOF 13
ENDMDL
MODEL 4
REMARK VINA RESULT:      -6.4     13.207     17.798
REMARK  13 active torsions:
REMARK  status: ('A' for Active; 'I' for Inactive)
REMARK    1  A    between atoms: S_2  and  C_3 
REMARK    2  A    between atoms: C_3  and  C_4 
REMARK    3  A    between atoms: C_4  and  C_5 
REMARK    4  A    between atoms: C_5  and  C_6 
REMARK    5  A    between atoms: C_5  and  N_9 
REMARK       I    between atoms: C_6  and  N_8 
REMARK       I    between atoms: N_9  and  C_10 
REMARK    6  A    between atoms: C_12  and  C_10 
REMARK       I    between atoms: N_16  and  C_17 
REMARK    7  A    between atoms: C_17  and  C_19 
REMARK    8  A    between atoms: C_19  and  N_20 
REMARK    9  A    between atoms: C_19  and  C_25 
REMARK       I    between atoms: N_20  and  C_21 
REMARK   10  A    between atoms: C_21  and  C_23 
REMARK   11  A    between atoms: C_23  and  S_24 
REMARK   12  A    between atoms: C_25  and  C_26 
REMARK   13  A    between atoms: C_29  and  O_30 
ROOT
HETATM    1  C   UNK N   1      31.317  17.071   6.286  0.00  0.00     0.179 C 
HETATM    2  C   UNK N   1      31.717  17.258   4.828  0.00  0.00     0.037 C 
HETATM    3  C   UNK N   1      33.074  16.582   4.657  0.00  0.00     0.022 C 
HETATM    4  C   UNK N   1      33.293  15.729   5.892  0.00  0.00     0.127 C 
HETATM    5  N   UNK N   1      32.287  16.154   6.828  0.00  0.00    -0.337 N 
HETATM    6  C   UNK N   1      32.263  15.722   8.129  0.00  0.00     0.243 C 
HETATM    7  O   UNK N   1      31.397  16.132   8.890  0.00  0.00    -0.271 OA
ENDROOT
BRANCH   1   8
HETATM    8  C   UNK N   1      29.911  16.479   6.352  0.00  0.00     0.241 C 
HETATM    9  N   UNK N   1      28.845  17.136   6.897  0.00  0.00    -0.346 N 
HETATM   10  H   UNK N   1      27.957  16.739   6.747  0.00  0.00     0.163 HD
HETATM   11  O   UNK N   1      29.731  15.358   5.899  0.00  0.00    -0.271 OA
BRANCH   9  12
HETATM   12  C   UNK N   1      28.891  18.362   7.677  0.00  0.00     0.177 C 
BRANCH  12  13
HETATM   13  C   UNK N   1      27.902  19.406   7.140  0.00  0.00     0.045 C 
BRANCH  13  14
HETATM   14  C   UNK N   1      27.199  19.093   5.824  0.00  0.00     0.076 C 
BRANCH  14  15
HETATM   15  S   UNK N   1      26.674  20.588   4.943  0.00  0.00    -0.173 SA
HETATM   16  C   UNK N   1      26.992  21.618   6.404  0.00  0.00     0.089 C 
ENDBRANCH  14  15
ENDBRANCH  13  14
ENDBRANCH  12  13
BRANCH  12  17
HETATM   17  C   UNK N   1      28.687  18.029   9.136  0.00  0.00     0.238 C 
HETATM   18  O   UNK N   1      27.650  17.500   9.503  0.00  0.00    -0.271 OA
HETATM   19  N   UNK N   1      29.627  18.348  10.051  0.00  0.00    -0.368 N 
HETATM   20  H   UNK N   1      30.545  18.691   9.966  0.00  0.00     0.159 HD
HETATM   21  H   UNK N   1      29.337  18.210  10.981  0.00  0.00     0.159 HD
ENDBRANCH  12  17
ENDBRANCH   9  12
ENDBRANCH   1   8
BRANCH   6  22
HETATM   22  C   UNK N   1      33.267  14.712   8.631  0.00  0.00     0.181 C 
BRANCH  22  23
HETATM   23  N   UNK N   1      32.881  13.336   8.363  0.00  0.00    -0.347 N 
HETATM   24  C   UNK N   1      33.677  12.445   7.714  0.00  0.00     0.227 C 
HETATM   25  O   UNK N   1      34.766  12.784   7.275  0.00  0.00    -0.273 OA
HETATM   26  H   UNK N   1      31.994  13.034   8.666  0.00  0.00     0.163 HD
BRANCH  24  27
HETATM   27  C   UNK N   1      33.246  11.021   7.582  0.00  0.00     0.173 C 
BRANCH  27  28
HETATM   28  S   UNK N   1      33.000  10.570   5.840  0.00  0.00    -0.173 SA
HETATM   29  H   UNK N   1      33.341  10.076   4.621  0.00  0.00     0.102 HD
ENDBRANCH  27  28
ENDBRANCH  24  27
ENDBRANCH  22  23
BRANCH  22  30
HETATM   30  C   UNK N   1      33.480  14.884  10.135  0.00  0.00     0.073 C 
BRANCH  30  31
HETATM   31  C   UNK N   1      34.871  14.476  10.478  0.00  0.00    -0.056 A 
HETATM   32  C   UNK N   1      35.932  15.011   9.743  0.00  0.00     0.010 A 
HETATM   33  C   UNK N   1      37.232  14.555   9.961  0.00  0.00     0.037 A 
HETATM   34  C   UNK N   1      37.471  13.556  10.909  0.00  0.00     0.065 A 
HETATM   35  C   UNK N   1      36.411  13.025  11.651  0.00  0.00     0.037 A 
HETATM   36  C   UNK N   1      35.107  13.480  11.432  0.00  0.00     0.010 A 
BRANCH  34  37
HETATM   37  O   UNK N   1      38.719  13.103  11.101  0.00  0.00    -0.361 OA
HETATM   38  H   UNK N   1      39.186  12.560  10.495  0.00  0.00     0.217 HD
ENDBRANCH  34  37
ENDBRANCH  30  31
ENDBRANCH  22  30
ENDBRANCH   6  22
TORSDOF 13
ENDMDL
MODEL 5
REMARK VINA RESULT:      -6.3     11.952     14.700
REMARK  13 active torsions:
REMARK  status: ('A' for Active; 'I' for Inactive)
REMARK    1  A    between atoms: S_2  and  C_3 
REMARK    2  A    between atoms: C_3  and  C_4 
REMARK    3  A    between atoms: C_4  and  C_5 
REMARK    4  A    between atoms: C_5  and  C_6 
REMARK    5  A    between atoms: C_5  and  N_9 
REMARK       I    between atoms: C_6  and  N_8 
REMARK       I    between atoms: N_9  and  C_10 
REMARK    6  A    between atoms: C_12  and  C_10 
REMARK       I    between atoms: N_16  and  C_17 
REMARK    7  A    between atoms: C_17  and  C_19 
REMARK    8  A    between atoms: C_19  and  N_20 
REMARK    9  A    between atoms: C_19  and  C_25 
REMARK       I    between atoms: N_20  and  C_21 
REMARK   10  A    between atoms: C_21  and  C_23 
REMARK   11  A    between atoms: C_23  and  S_24 
REMARK   12  A    between atoms: C_25  and  C_26 
REMARK   13  A    between atoms: C_29  and  O_30 
ROOT
HETATM    1  C   UNK N   1      22.037  16.879   4.948  0.00  0.00     0.179 C 
HETATM    2  C   UNK N   1      21.376  15.852   5.858  0.00  0.00     0.037 C 
HETATM    3  C   UNK N   1      22.499  15.009   6.455  0.00  0.00     0.022 C 
HETATM    4  C   UNK N   1      23.793  15.749   6.171  0.00  0.00     0.127 C 
HETATM    5  N   UNK N   1      23.449  16.757   5.205  0.00  0.00    -0.337 N 
HETATM    6  C   UNK N   1      24.393  17.528   4.579  0.00  0.00     0.243 C 
HETATM    7  O   UNK N   1      24.048  18.357   3.748  0.00  0.00    -0.271 OA
ENDROOT
BRANCH   1   8
HETATM    8  C   UNK N   1      21.536  18.274   5.314  0.00  0.00     0.241 C 
HETATM    9  N   UNK N   1      21.008  19.145   4.404  0.00  0.00    -0.346 N 
HETATM   10  H   UNK N   1      20.570  19.950   4.763  0.00  0.00     0.163 HD
HETATM   11  O   UNK N   1      21.615  18.632   6.480  0.00  0.00    -0.271 OA
BRANCH   9  12
HETATM   12  C   UNK N   1      21.030  19.002   2.957  0.00  0.00     0.177 C 
BRANCH  12  13
HETATM   13  C   UNK N   1      19.789  18.256   2.448  0.00  0.00     0.045 C 
BRANCH  13  14
HETATM   14  C   UNK N   1      19.978  17.296   1.279  0.00  0.00     0.076 C 
BRANCH  14  15
HETATM   15  S   UNK N   1      20.625  15.685   1.800  0.00  0.00    -0.173 SA
HETATM   16  C   UNK N   1      19.423  14.811   0.757  0.00  0.00     0.089 C 
ENDBRANCH  14  15
ENDBRANCH  13  14
ENDBRANCH  12  13
BRANCH  12  17
HETATM   17  C   UNK N   1      21.218  20.363   2.328  0.00  0.00     0.238 C 
HETATM   18  O   UNK N   1      22.018  21.151   2.805  0.00  0.00    -0.271 OA
HETATM   19  N   UNK N   1      20.478  20.735   1.263  0.00  0.00    -0.368 N 
HETATM   20  H   UNK N   1      19.854  20.241   0.684  0.00  0.00     0.159 HD
HETATM   21  H   UNK N   1      20.583  21.682   1.018  0.00  0.00     0.159 HD
ENDBRANCH  12  17
ENDBRANCH   9  12
ENDBRANCH   1   8
BRANCH   6  22
HETATM   22  C   UNK N   1      25.856  17.403   4.929  0.00  0.00     0.181 C 
BRANCH  22  23
HETATM   23  N   UNK N   1      26.392  18.581   5.592  0.00  0.00    -0.347 N 
HETATM   24  C   UNK N   1      27.428  18.543   6.473  0.00  0.00     0.227 C 
HETATM   25  O   UNK N   1      27.940  17.480   6.788  0.00  0.00    -0.273 OA
HETATM   26  H   UNK N   1      25.981  19.454   5.395  0.00  0.00     0.163 HD
BRANCH  24  27
HETATM   27  C   UNK N   1      27.986  19.815   7.020  0.00  0.00     0.173 C 
BRANCH  27  28
HETATM   28  S   UNK N   1      27.254  21.259   6.196  0.00  0.00    -0.173 SA
HETATM   29  H   UNK N   1      26.830  22.014   5.148  0.00  0.00     0.102 HD
ENDBRANCH  27  28
ENDBRANCH  24  27
ENDBRANCH  22  23
BRANCH  22  30
HETATM   30  C   UNK N   1      26.678  17.126   3.670  0.00  0.00     0.073 C 
BRANCH  30  31
HETATM   31  C   UNK N   1      26.489  15.704   3.271  0.00  0.00    -0.056 A 
HETATM   32  C   UNK N   1      25.899  15.420   2.037  0.00  0.00     0.010 A 
HETATM   33  C   UNK N   1      25.599  14.103   1.692  0.00  0.00     0.037 A 
HETATM   34  C   UNK N   1      25.881  13.066   2.586  0.00  0.00     0.065 A 
HETATM   35  C   UNK N   1      26.478  13.347   3.819  0.00  0.00     0.037 A 
HETATM   36  C   UNK N   1      26.778  14.668   4.167  0.00  0.00     0.010 A 
BRANCH  34  37
HETATM   37  O   UNK N   1      25.571  11.802   2.262  0.00  0.00    -0.361 OA
HETATM   38  H   UNK N   1      26.193  11.104   2.195  0.00  0.00     0.217 HD
ENDBRANCH  34  37
ENDBRANCH  30  31
ENDBRANCH  22  30
ENDBRANCH   6  22
TORSDOF 13
ENDMDL
MODEL 6
REMARK VINA RESULT:      -6.3     11.445     14.962
REMARK  13 active torsions:
REMARK  status: ('A' for Active; 'I' for Inactive)
REMARK    1  A    between atoms: S_2  and  C_3 
REMARK    2  A    between atoms: C_3  and  C_4 
REMARK    3  A    between atoms: C_4  and  C_5 
REMARK    4  A    between atoms: C_5  and  C_6 
REMARK    5  A    between atoms: C_5  and  N_9 
REMARK       I    between atoms: C_6  and  N_8 
REMARK       I    between atoms: N_9  and  C_10 
REMARK    6  A    between atoms: C_12  and  C_10 
REMARK       I    between atoms: N_16  and  C_17 
REMARK    7  A    between atoms: C_17  and  C_19 
REMARK    8  A    between atoms: C_19  and  N_20 
REMARK    9  A    between atoms: C_19  and  C_25 
REMARK       I    between atoms: N_20  and  C_21 
REMARK   10  A    between atoms: C_21  and  C_23 
REMARK   11  A    between atoms: C_23  and  S_24 
REMARK   12  A    between atoms: C_25  and  C_26 
REMARK   13  A    between atoms: C_29  and  O_30 
ROOT
HETATM    1  C   UNK N   1      25.624  18.692   4.781  0.00  0.00     0.179 C 
HETATM    2  C   UNK N   1      25.839  19.986   4.007  0.00  0.00     0.037 C 
HETATM    3  C   UNK N   1      27.339  20.267   4.034  0.00  0.00     0.022 C 
HETATM    4  C   UNK N   1      28.010  18.992   4.511  0.00  0.00     0.127 C 
HETATM    5  N   UNK N   1      26.945  18.173   5.024  0.00  0.00    -0.337 N 
HETATM    6  C   UNK N   1      27.177  17.001   5.695  0.00  0.00     0.243 C 
HETATM    7  O   UNK N   1      26.235  16.352   6.131  0.00  0.00    -0.271 OA
ENDROOT
BRANCH   1   8
HETATM    8  C   UNK N   1      24.807  17.724   3.929  0.00  0.00     0.241 C 
HETATM    9  N   UNK N   1      23.525  17.359   4.227  0.00  0.00    -0.346 N 
HETATM   10  H   UNK N   1      23.034  16.861   3.534  0.00  0.00     0.163 HD
HETATM   11  O   UNK N   1      25.328  17.246   2.931  0.00  0.00    -0.271 OA
BRANCH   9  12
HETATM   12  C   UNK N   1      22.813  17.634   5.464  0.00  0.00     0.177 C 
BRANCH  12  13
HETATM   13  C   UNK N   1      21.547  18.464   5.211  0.00  0.00     0.045 C 
BRANCH  13  14
HETATM   14  C   UNK N   1      20.942  18.411   3.813  0.00  0.00     0.076 C 
BRANCH  14  15
HETATM   15  S   UNK N   1      20.507  20.053   3.181  0.00  0.00    -0.173 SA
HETATM   16  C   UNK N   1      22.233  20.392   2.735  0.00  0.00     0.089 C 
ENDBRANCH  14  15
ENDBRANCH  13  14
ENDBRANCH  12  13
BRANCH  12  17
HETATM   17  C   UNK N   1      22.549  16.331   6.182  0.00  0.00     0.238 C 
HETATM   18  O   UNK N   1      21.403  15.968   6.388  0.00  0.00    -0.271 OA
HETATM   19  N   UNK N   1      23.573  15.579   6.638  0.00  0.00    -0.368 N 
HETATM   20  H   UNK N   1      24.547  15.639   6.512  0.00  0.00     0.159 HD
HETATM   21  H   UNK N   1      23.290  14.825   7.205  0.00  0.00     0.159 HD
ENDBRANCH  12  17
ENDBRANCH   9  12
ENDBRANCH   1   8
BRANCH   6  22
HETATM   22  C   UNK N   1      28.580  16.469   5.870  0.00  0.00     0.181 C 
BRANCH  22  23
HETATM   23  N   UNK N   1      28.672  15.027   5.712  0.00  0.00    -0.347 N 
HETATM   24  C   UNK N   1      28.971  14.417   4.533  0.00  0.00     0.227 C 
HETATM   25  O   UNK N   1      29.136  15.073   3.516  0.00  0.00    -0.273 OA
HETATM   26  H   UNK N   1      28.507  14.461   6.500  0.00  0.00     0.163 HD
BRANCH  24  27
HETATM   27  C   UNK N   1      29.155  12.936   4.488  0.00  0.00     0.173 C 
BRANCH  27  28
HETATM   28  S   UNK N   1      27.559  12.075   4.571  0.00  0.00    -0.173 SA
HETATM   29  H   UNK N   1      26.511  11.345   4.105  0.00  0.00     0.102 HD
ENDBRANCH  27  28
ENDBRANCH  24  27
ENDBRANCH  22  23
BRANCH  22  30
HETATM   30  C   UNK N   1      29.121  16.853   7.247  0.00  0.00     0.073 C 
BRANCH  30  31
HETATM   31  C   UNK N   1      30.555  17.234   7.116  0.00  0.00    -0.056 A 
HETATM   32  C   UNK N   1      31.173  17.121   5.868  0.00  0.00     0.010 A 
HETATM   33  C   UNK N   1      32.542  17.354   5.743  0.00  0.00     0.037 A 
HETATM   34  C   UNK N   1      33.298  17.693   6.869  0.00  0.00     0.065 A 
HETATM   35  C   UNK N   1      32.679  17.814   8.118  0.00  0.00     0.037 A 
HETATM   36  C   UNK N   1      31.307  17.579   8.244  0.00  0.00     0.010 A 
BRANCH  34  37
HETATM   37  O   UNK N   1      34.618  17.895   6.751  0.00  0.00    -0.361 OA
HETATM   38  H   UNK N   1      35.171  17.446   6.141  0.00  0.00     0.217 HD
ENDBRANCH  34  37
ENDBRANCH  30  31
ENDBRANCH  22  30
ENDBRANCH   6  22
TORSDOF 13
ENDMDL
MODEL 7
REMARK VINA RESULT:      -6.2     18.989     23.488
REMARK  13 active torsions:
REMARK  status: ('A' for Active; 'I' for Inactive)
REMARK    1  A    between atoms: S_2  and  C_3 
REMARK    2  A    between atoms: C_3  and  C_4 
REMARK    3  A    between atoms: C_4  and  C_5 
REMARK    4  A    between atoms: C_5  and  C_6 
REMARK    5  A    between atoms: C_5  and  N_9 
REMARK       I    between atoms: C_6  and  N_8 
REMARK       I    between atoms: N_9  and  C_10 
REMARK    6  A    between atoms: C_12  and  C_10 
REMARK       I    between atoms: N_16  and  C_17 
REMARK    7  A    between atoms: C_17  and  C_19 
REMARK    8  A    between atoms: C_19  and  N_20 
REMARK    9  A    between atoms: C_19  and  C_25 
REMARK       I    between atoms: N_20  and  C_21 
REMARK   10  A    between atoms: C_21  and  C_23 
REMARK   11  A    between atoms: C_23  and  S_24 
REMARK   12  A    between atoms: C_25  and  C_26 
REMARK   13  A    between atoms: C_29  and  O_30 
ROOT
HETATM    1  C   UNK N   1      35.100  13.883  11.385  0.00  0.00     0.179 C 
HETATM    2  C   UNK N   1      35.680  15.286  11.513  0.00  0.00     0.037 C 
HETATM    3  C   UNK N   1      36.227  15.405  12.933  0.00  0.00     0.022 C 
HETATM    4  C   UNK N   1      36.275  13.998  13.498  0.00  0.00     0.127 C 
HETATM    5  N   UNK N   1      35.506  13.197  12.584  0.00  0.00    -0.337 N 
HETATM    6  C   UNK N   1      35.183  11.890  12.844  0.00  0.00     0.243 C 
HETATM    7  O   UNK N   1      34.507  11.259  12.042  0.00  0.00    -0.271 OA
ENDROOT
BRANCH   1   8
HETATM    8  C   UNK N   1      35.682  13.207  10.146  0.00  0.00     0.241 C 
HETATM    9  N   UNK N   1      34.936  12.871   9.053  0.00  0.00    -0.346 N 
HETATM   10  H   UNK N   1      35.429  12.589   8.250  0.00  0.00     0.163 HD
HETATM   11  O   UNK N   1      36.877  12.948  10.134  0.00  0.00    -0.271 OA
BRANCH   9  12
HETATM   12  C   UNK N   1      33.485  12.889   8.958  0.00  0.00     0.177 C 
BRANCH  12  13
HETATM   13  C   UNK N   1      33.005  13.862   7.873  0.00  0.00     0.045 C 
BRANCH  13  14
HETATM   14  C   UNK N   1      32.280  15.122   8.333  0.00  0.00     0.076 C 
BRANCH  14  15
HETATM   15  S   UNK N   1      33.400  16.530   8.553  0.00  0.00    -0.173 SA
HETATM   16  C   UNK N   1      32.024  17.706   8.427  0.00  0.00     0.089 C 
ENDBRANCH  14  15
ENDBRANCH  13  14
ENDBRANCH  12  13
BRANCH  12  17
HETATM   17  C   UNK N   1      32.985  11.476   8.768  0.00  0.00     0.238 C 
HETATM   18  O   UNK N   1      32.996  10.968   7.658  0.00  0.00    -0.271 OA
HETATM   19  N   UNK N   1      32.485  10.779   9.809  0.00  0.00    -0.368 N 
HETATM   20  H   UNK N   1      32.458  10.959  10.776  0.00  0.00     0.159 HD
HETATM   21  H   UNK N   1      32.066   9.926   9.551  0.00  0.00     0.159 HD
ENDBRANCH  12  17
ENDBRANCH   9  12
ENDBRANCH   1   8
BRANCH   6  22
HETATM   22  C   UNK N   1      35.686  11.198  14.088  0.00  0.00     0.181 C 
BRANCH  22  23
HETATM   23  N   UNK N   1      36.516  10.038  13.805  0.00  0.00    -0.347 N 
HETATM   24  C   UNK N   1      37.845   9.978  14.086  0.00  0.00     0.227 C 
HETATM   25  O   UNK N   1      38.427  10.942  14.562  0.00  0.00    -0.273 OA
HETATM   26  H   UNK N   1      36.093   9.254  13.386  0.00  0.00     0.163 HD
BRANCH  24  27
HETATM   27  C   UNK N   1      38.595   8.706  13.865  0.00  0.00     0.173 C 
BRANCH  27  28
HETATM   28  S   UNK N   1      40.172   8.711  14.765  0.00  0.00    -0.173 SA
HETATM   29  H   UNK N   1      41.481   8.419  14.988  0.00  0.00     0.102 HD
ENDBRANCH  27  28
ENDBRANCH  24  27
ENDBRANCH  22  23
BRANCH  22  30
HETATM   30  C   UNK N   1      34.509  10.764  14.962  0.00  0.00     0.073 C 
BRANCH  30  31
HETATM   31  C   UNK N   1      34.719  11.273  16.346  0.00  0.00    -0.056 A 
HETATM   32  C   UNK N   1      34.787  12.653  16.556  0.00  0.00     0.010 A 
HETATM   33  C   UNK N   1      35.104  13.153  17.818  0.00  0.00     0.037 A 
HETATM   34  C   UNK N   1      35.363  12.272  18.872  0.00  0.00     0.065 A 
HETATM   35  C   UNK N   1      35.287  10.890  18.666  0.00  0.00     0.037 A 
HETATM   36  C   UNK N   1      34.971  10.389  17.400  0.00  0.00     0.010 A 
BRANCH  34  37
HETATM   37  O   UNK N   1      35.689  12.754  20.080  0.00  0.00    -0.361 OA
HETATM   38  H   UNK N   1      35.499  13.624  20.374  0.00  0.00     0.217 HD
ENDBRANCH  34  37
ENDBRANCH  30  31
ENDBRANCH  22  30
ENDBRANCH   6  22
TORSDOF 13
ENDMDL
MODEL 8
REMARK VINA RESULT:      -5.9      2.503      3.674
REMARK  13 active torsions:
REMARK  status: ('A' for Active; 'I' for Inactive)
REMARK    1  A    between atoms: S_2  and  C_3 
REMARK    2  A    between atoms: C_3  and  C_4 
REMARK    3  A    between atoms: C_4  and  C_5 
REMARK    4  A    between atoms: C_5  and  C_6 
REMARK    5  A    between atoms: C_5  and  N_9 
REMARK       I    between atoms: C_6  and  N_8 
REMARK       I    between atoms: N_9  and  C_10 
REMARK    6  A    between atoms: C_12  and  C_10 
REMARK       I    between atoms: N_16  and  C_17 
REMARK    7  A    between atoms: C_17  and  C_19 
REMARK    8  A    between atoms: C_19  and  N_20 
REMARK    9  A    between atoms: C_19  and  C_25 
REMARK       I    between atoms: N_20  and  C_21 
REMARK   10  A    between atoms: C_21  and  C_23 
REMARK   11  A    between atoms: C_23  and  S_24 
REMARK   12  A    between atoms: C_25  and  C_26 
REMARK   13  A    between atoms: C_29  and  O_30 
ROOT
HETATM    1  C   UNK N   1      29.766  23.728  -4.442  0.00  0.00     0.179 C 
HETATM    2  C   UNK N   1      29.489  23.377  -2.986  0.00  0.00     0.037 C 
HETATM    3  C   UNK N   1      28.051  23.802  -2.700  0.00  0.00     0.022 C 
HETATM    4  C   UNK N   1      27.403  24.071  -4.045  0.00  0.00     0.127 C 
HETATM    5  N   UNK N   1      28.490  24.112  -4.986  0.00  0.00    -0.337 N 
HETATM    6  C   UNK N   1      28.318  24.494  -6.292  0.00  0.00     0.243 C 
HETATM    7  O   UNK N   1      29.281  24.533  -7.047  0.00  0.00    -0.271 OA
ENDROOT
BRANCH   1   8
HETATM    8  C   UNK N   1      30.318  22.498  -5.161  0.00  0.00     0.241 C 
HETATM    9  N   UNK N   1      31.576  22.438  -5.688  0.00  0.00    -0.346 N 
HETATM   10  H   UNK N   1      31.890  21.554  -5.986  0.00  0.00     0.163 HD
HETATM   11  O   UNK N   1      29.594  21.519  -5.275  0.00  0.00    -0.271 OA
BRANCH   9  12
HETATM   12  C   UNK N   1      32.498  23.550  -5.854  0.00  0.00     0.177 C 
BRANCH  12  13
HETATM   13  C   UNK N   1      33.853  23.258  -5.194  0.00  0.00     0.045 C 
BRANCH  13  14
HETATM   14  C   UNK N   1      34.620  22.034  -5.681  0.00  0.00     0.076 C 
BRANCH  14  15
HETATM   15  S   UNK N   1      35.522  21.203  -4.346  0.00  0.00    -0.173 SA
HETATM   16  C   UNK N   1      33.975  20.793  -3.490  0.00  0.00     0.089 C 
ENDBRANCH  14  15
ENDBRANCH  13  14
ENDBRANCH  12  13
BRANCH  12  17
HETATM   17  C   UNK N   1      32.600  23.894  -7.321  0.00  0.00     0.238 C 
HETATM   18  O   UNK N   1      33.289  24.835  -7.682  0.00  0.00    -0.271 OA
HETATM   19  N   UNK N   1      31.904  23.193  -8.240  0.00  0.00    -0.368 N 
HETATM   20  H   UNK N   1      31.370  22.369  -8.181  0.00  0.00     0.159 HD
HETATM   21  H   UNK N   1      31.936  23.582  -9.144  0.00  0.00     0.159 HD
ENDBRANCH  12  17
ENDBRANCH   9  12
ENDBRANCH   1   8
BRANCH   6  22
HETATM   22  C   UNK N   1      26.947  24.829  -6.830  0.00  0.00     0.181 C 
BRANCH  22  23
HETATM   23  N   UNK N   1      26.449  23.851  -7.784  0.00  0.00    -0.347 N 
HETATM   24  C   UNK N   1      25.609  22.836  -7.451  0.00  0.00     0.227 C 
HETATM   25  O   UNK N   1      25.259  22.669  -6.292  0.00  0.00    -0.273 OA
HETATM   26  H   UNK N   1      26.739  23.927  -8.722  0.00  0.00     0.163 HD
BRANCH  24  27
HETATM   27  C   UNK N   1      25.059  21.946  -8.516  0.00  0.00     0.173 C 
BRANCH  27  28
HETATM   28  S   UNK N   1      26.363  21.411  -9.661  0.00  0.00    -0.173 SA
HETATM   29  H   UNK N   1      27.621  21.067 -10.043  0.00  0.00     0.102 HD
ENDBRANCH  27  28
ENDBRANCH  24  27
ENDBRANCH  22  23
BRANCH  22  30
HETATM   30  C   UNK N   1      26.963  26.206  -7.494  0.00  0.00     0.073 C 
BRANCH  30  31
HETATM   31  C   UNK N   1      26.656  27.242  -6.468  0.00  0.00    -0.056 A 
HETATM   32  C   UNK N   1      27.484  28.363  -6.371  0.00  0.00     0.010 A 
HETATM   33  C   UNK N   1      27.292  29.285  -5.342  0.00  0.00     0.037 A 
HETATM   34  C   UNK N   1      26.277  29.082  -4.403  0.00  0.00     0.065 A 
HETATM   35  C   UNK N   1      25.442  27.964  -4.504  0.00  0.00     0.037 A 
HETATM   36  C   UNK N   1      25.635  27.038  -5.533  0.00  0.00     0.010 A 
BRANCH  34  37
HETATM   37  O   UNK N   1      26.108  29.958  -3.402  0.00  0.00    -0.361 OA
HETATM   38  H   UNK N   1      26.204  30.887  -3.488  0.00  0.00     0.217 HD
ENDBRANCH  34  37
ENDBRANCH  30  31
ENDBRANCH  22  30
ENDBRANCH   6  22
TORSDOF 13
ENDMDL
MODEL 9
REMARK VINA RESULT:      -5.9     20.134     24.623
REMARK  13 active torsions:
REMARK  status: ('A' for Active; 'I' for Inactive)
REMARK    1  A    between atoms: S_2  and  C_3 
REMARK    2  A    between atoms: C_3  and  C_4 
REMARK    3  A    between atoms: C_4  and  C_5 
REMARK    4  A    between atoms: C_5  and  C_6 
REMARK    5  A    between atoms: C_5  and  N_9 
REMARK       I    between atoms: C_6  and  N_8 
REMARK       I    between atoms: N_9  and  C_10 
REMARK    6  A    between atoms: C_12  and  C_10 
REMARK       I    between atoms: N_16  and  C_17 
REMARK    7  A    between atoms: C_17  and  C_19 
REMARK    8  A    between atoms: C_19  and  N_20 
REMARK    9  A    between atoms: C_19  and  C_25 
REMARK       I    between atoms: N_20  and  C_21 
REMARK   10  A    between atoms: C_21  and  C_23 
REMARK   11  A    between atoms: C_23  and  S_24 
REMARK   12  A    between atoms: C_25  and  C_26 
REMARK   13  A    between atoms: C_29  and  O_30 
ROOT
HETATM    1  C   UNK N   1      35.757  13.634  12.931  0.00  0.00     0.179 C 
HETATM    2  C   UNK N   1      36.408  14.929  13.399  0.00  0.00     0.037 C 
HETATM    3  C   UNK N   1      36.816  14.711  14.853  0.00  0.00     0.022 C 
HETATM    4  C   UNK N   1      36.719  13.220  15.112  0.00  0.00     0.127 C 
HETATM    5  N   UNK N   1      35.997  12.687  13.988  0.00  0.00    -0.337 N 
HETATM    6  C   UNK N   1      35.569  11.386  13.939  0.00  0.00     0.243 C 
HETATM    7  O   UNK N   1      34.938  10.989  12.968  0.00  0.00    -0.271 OA
ENDROOT
BRANCH   1   8
HETATM    8  C   UNK N   1      36.417  13.179  11.631  0.00  0.00     0.241 C 
HETATM    9  N   UNK N   1      35.738  13.029  10.456  0.00  0.00    -0.346 N 
HETATM   10  H   UNK N   1      36.280  12.888   9.646  0.00  0.00     0.163 HD
HETATM   11  O   UNK N   1      37.614  12.931  11.644  0.00  0.00    -0.271 OA
BRANCH   9  12
HETATM   12  C   UNK N   1      34.295  13.056  10.282  0.00  0.00     0.177 C 
BRANCH  12  13
HETATM   13  C   UNK N   1      33.820  14.410   9.738  0.00  0.00     0.045 C 
BRANCH  13  14
HETATM   14  C   UNK N   1      34.198  14.760   8.303  0.00  0.00     0.076 C 
BRANCH  14  15
HETATM   15  S   UNK N   1      34.462  16.538   8.067  0.00  0.00    -0.173 SA
HETATM   16  C   UNK N   1      34.886  16.757   9.818  0.00  0.00     0.089 C 
ENDBRANCH  14  15
ENDBRANCH  13  14
ENDBRANCH  12  13
BRANCH  12  17
HETATM   17  C   UNK N   1      33.877  11.881   9.429  0.00  0.00     0.238 C 
HETATM   18  O   UNK N   1      34.703  11.299   8.744  0.00  0.00    -0.271 OA
HETATM   19  N   UNK N   1      32.587  11.489   9.384  0.00  0.00    -0.368 N 
HETATM   20  H   UNK N   1      31.795  11.755   9.904  0.00  0.00     0.159 HD
HETATM   21  H   UNK N   1      32.403  10.806   8.699  0.00  0.00     0.159 HD
ENDBRANCH  12  17
ENDBRANCH   9  12
ENDBRANCH   1   8
BRANCH   6  22
HETATM   22  C   UNK N   1      35.900  10.416  15.048  0.00  0.00     0.181 C 
BRANCH  22  23
HETATM   23  N   UNK N   1      36.581   9.219  14.580  0.00  0.00    -0.347 N 
HETATM   24  C   UNK N   1      37.933   9.100  14.516  0.00  0.00     0.227 C 
HETATM   25  O   UNK N   1      38.658  10.038  14.816  0.00  0.00    -0.273 OA
HETATM   26  H   UNK N   1      36.032   8.454  14.293  0.00  0.00     0.163 HD
BRANCH  24  27
HETATM   27  C   UNK N   1      38.548   7.795  14.131  0.00  0.00     0.173 C 
BRANCH  27  28
HETATM   28  S   UNK N   1      40.354   7.933  14.007  0.00  0.00    -0.173 SA
HETATM   29  H   UNK N   1      41.548   8.564  13.850  0.00  0.00     0.102 HD
ENDBRANCH  27  28
ENDBRANCH  24  27
ENDBRANCH  22  23
BRANCH  22  30
HETATM   30  C   UNK N   1      34.626  10.005  15.787  0.00  0.00     0.073 C 
BRANCH  30  31
HETATM   31  C   UNK N   1      34.848  10.152  17.253  0.00  0.00    -0.056 A 
HETATM   32  C   UNK N   1      34.454   9.116  18.103  0.00  0.00     0.010 A 
HETATM   33  C   UNK N   1      34.537   9.278  19.486  0.00  0.00     0.037 A 
HETATM   34  C   UNK N   1      35.007  10.481  20.021  0.00  0.00     0.065 A 
HETATM   35  C   UNK N   1      35.409  11.517  19.170  0.00  0.00     0.037 A 
HETATM   36  C   UNK N   1      35.324  11.356  17.784  0.00  0.00     0.010 A 
BRANCH  34  37
HETATM   37  O   UNK N   1      35.066  10.643  21.350  0.00  0.00    -0.361 OA
HETATM   38  H   UNK N   1      35.095   9.940  21.970  0.00  0.00     0.217 HD
ENDBRANCH  34  37
ENDBRANCH  30  31
ENDBRANCH  22  30
ENDBRANCH   6  22
TORSDOF 13
ENDMDL
