MODEL 1
REMARK VINA RESULT:      -5.7      0.000      0.000
REMARK  2 active torsions:
REMARK  status: ('A' for Active; 'I' for Inactive)
REMARK    1  A    between atoms: S_1  and  C_2 
REMARK    2  A    between atoms: S_1  and  N_13 
ROOT
HETATM    1  C   UNK N   1      30.104  17.378   8.023  0.00  0.00     0.080 A 
HETATM    2  C   UNK N   1      29.345  16.769   7.003  0.00  0.00     0.027 A 
HETATM    3  C   UNK N   1      29.937  16.402   5.785  0.00  0.00     0.032 A 
HETATM    4  C   UNK N   1      31.300  16.633   5.609  0.00  0.00     0.055 A 
HETATM    5  N   UNK N   1      32.017  16.265   4.505  0.00  0.00    -0.318 N 
HETATM    6  C   UNK N   1      31.542  15.563   3.326  0.00  0.00     0.165 C 
HETATM    7  S   UNK N   1      33.565  16.742   4.801  0.00  0.00     0.032 SA
HETATM    8  C   UNK N   1      33.412  17.417   6.297  0.00  0.00     0.241 A 
HETATM    9  O   UNK N   1      34.295  17.910   6.972  0.00  0.00    -0.278 OA
HETATM   10  C   UNK N   1      32.065  17.273   6.635  0.00  0.00     0.051 A 
HETATM   11  C   UNK N   1      31.469  17.642   7.839  0.00  0.00     0.043 A 
ENDROOT
BRANCH   1  12
HETATM   12  S   UNK N   1      29.398  17.573   9.652  0.00  0.00     0.256 S 
HETATM   13  O   UNK N   1      29.660  18.958  10.262  0.00  0.00    -0.201 OA
HETATM   14  O   UNK N   1      27.867  17.599   9.530  0.00  0.00    -0.201 OA
BRANCH  12  15
HETATM   15  N   UNK N   1      29.709  16.408  10.941  0.00  0.00    -0.324 N 
HETATM   16  H   UNK N   1      30.267  16.395  11.794  0.00  0.00     0.169 HD
HETATM   17  H   UNK N   1      29.207  15.533  10.796  0.00  0.00     0.169 HD
ENDBRANCH  12  15
ENDBRANCH   1  12
TORSDOF 2
ENDMDL
MODEL 2
REMARK VINA RESULT:      -5.7      2.251      4.774
REMARK  2 active torsions:
REMARK  status: ('A' for Active; 'I' for Inactive)
REMARK    1  A    between atoms: S_1  and  C_2 
REMARK    2  A    between atoms: S_1  and  N_13 
ROOT
HETATM    1  C   UNK N   1      32.422  17.077   7.381  0.00  0.00     0.080 A 
HETATM    2  C   UNK N   1      31.789  16.746   6.166  0.00  0.00     0.027 A 
HETATM    3  C   UNK N   1      30.419  16.987   5.977  0.00  0.00     0.032 A 
HETATM    4  C   UNK N   1      29.698  17.580   7.011  0.00  0.00     0.055 A 
HETATM    5  N   UNK N   1      28.378  17.931   6.939  0.00  0.00    -0.318 N 
HETATM    6  C   UNK N   1      27.478  17.790   5.809  0.00  0.00     0.165 C 
HETATM    7  S   UNK N   1      28.017  18.604   8.398  0.00  0.00     0.032 SA
HETATM    8  C   UNK N   1      29.468  18.488   9.173  0.00  0.00     0.241 A 
HETATM    9  O   UNK N   1      29.731  18.869  10.297  0.00  0.00    -0.278 OA
HETATM   10  C   UNK N   1      30.334  17.893   8.254  0.00  0.00     0.051 A 
HETATM   11  C   UNK N   1      31.693  17.644   8.437  0.00  0.00     0.043 A 
ENDROOT
BRANCH   1  12
HETATM   12  S   UNK N   1      34.204  17.024   7.492  0.00  0.00     0.256 S 
HETATM   13  O   UNK N   1      34.876  16.541   6.198  0.00  0.00    -0.201 OA
HETATM   14  O   UNK N   1      34.739  18.462   7.573  0.00  0.00    -0.201 OA
BRANCH  12  15
HETATM   15  N   UNK N   1      35.025  16.183   8.808  0.00  0.00    -0.324 N 
HETATM   16  H   UNK N   1      35.810  16.386   9.427  0.00  0.00     0.169 HD
HETATM   17  H   UNK N   1      34.614  15.270   8.996  0.00  0.00     0.169 HD
ENDBRANCH  12  15
ENDBRANCH   1  12
TORSDOF 2
ENDMDL
MODEL 3
REMARK VINA RESULT:      -5.5     12.264     13.638
REMARK  2 active torsions:
REMARK  status: ('A' for Active; 'I' for Inactive)
REMARK    1  A    between atoms: S_1  and  C_2 
REMARK    2  A    between atoms: S_1  and  N_13 
ROOT
HETATM    1  C   UNK N   1      27.968  24.085  -4.890  0.00  0.00     0.080 A 
HETATM    2  C   UNK N   1      28.201  23.316  -6.048  0.00  0.00     0.027 A 
HETATM    3  C   UNK N   1      29.209  22.339  -6.075  0.00  0.00     0.032 A 
HETATM    4  C   UNK N   1      29.965  22.130  -4.923  0.00  0.00     0.055 A 
HETATM    5  N   UNK N   1      30.929  21.169  -4.788  0.00  0.00    -0.318 N 
HETATM    6  C   UNK N   1      31.348  20.182  -5.767  0.00  0.00     0.165 C 
HETATM    7  S   UNK N   1      31.498  21.325  -3.251  0.00  0.00     0.032 SA
HETATM    8  C   UNK N   1      30.582  22.577  -2.694  0.00  0.00     0.241 A 
HETATM    9  O   UNK N   1      30.612  23.070  -1.583  0.00  0.00    -0.278 OA
HETATM   10  C   UNK N   1      29.745  22.926  -3.756  0.00  0.00     0.051 A 
HETATM   11  C   UNK N   1      28.748  23.899  -3.739  0.00  0.00     0.043 A 
ENDROOT
BRANCH   1  12
HETATM   12  S   UNK N   1      26.509  25.110  -4.790  0.00  0.00     0.256 S 
HETATM   13  O   UNK N   1      25.226  24.378  -5.213  0.00  0.00    -0.201 OA
HETATM   14  O   UNK N   1      26.202  25.394  -3.312  0.00  0.00    -0.201 OA
BRANCH  12  15
HETATM   15  N   UNK N   1      26.438  26.697  -5.558  0.00  0.00    -0.324 N 
HETATM   16  H   UNK N   1      26.998  27.549  -5.526  0.00  0.00     0.169 HD
HETATM   17  H   UNK N   1      25.642  26.783  -6.189  0.00  0.00     0.169 HD
ENDBRANCH  12  15
ENDBRANCH   1  12
TORSDOF 2
ENDMDL
MODEL 4
REMARK VINA RESULT:      -5.5      3.381      4.255
REMARK  2 active torsions:
REMARK  status: ('A' for Active; 'I' for Inactive)
REMARK    1  A    between atoms: S_1  and  C_2 
REMARK    2  A    between atoms: S_1  and  N_13 
ROOT
HETATM    1  C   UNK N   1      32.584  17.563   7.432  0.00  0.00     0.080 A 
HETATM    2  C   UNK N   1      31.467  17.637   8.288  0.00  0.00     0.027 A 
HETATM    3  C   UNK N   1      30.163  17.485   7.789  0.00  0.00     0.032 A 
HETATM    4  C   UNK N   1      29.995  17.240   6.428  0.00  0.00     0.055 A 
HETATM    5  N   UNK N   1      28.792  17.006   5.821  0.00  0.00    -0.318 N 
HETATM    6  C   UNK N   1      27.479  16.944   6.439  0.00  0.00     0.165 C 
HETATM    7  S   UNK N   1      29.137  16.756   4.231  0.00  0.00     0.032 SA
HETATM    8  C   UNK N   1      30.777  16.925   4.228  0.00  0.00     0.241 A 
HETATM    9  O   UNK N   1      31.524  16.814   3.275  0.00  0.00    -0.278 OA
HETATM   10  C   UNK N   1      31.126  17.189   5.554  0.00  0.00     0.051 A 
HETATM   11  C   UNK N   1      32.417  17.348   6.055  0.00  0.00     0.043 A 
ENDROOT
BRANCH   1  12
HETATM   12  S   UNK N   1      34.226  17.475   8.127  0.00  0.00     0.256 S 
HETATM   13  O   UNK N   1      35.142  16.486   7.390  0.00  0.00    -0.201 OA
HETATM   14  O   UNK N   1      34.953  18.799   7.852  0.00  0.00    -0.201 OA
BRANCH  12  15
HETATM   15  N   UNK N   1      34.487  17.188   9.849  0.00  0.00    -0.324 N 
HETATM   16  H   UNK N   1      34.142  17.596  10.717  0.00  0.00     0.169 HD
HETATM   17  H   UNK N   1      35.146  16.429  10.016  0.00  0.00     0.169 HD
ENDBRANCH  12  15
ENDBRANCH   1  12
TORSDOF 2
ENDMDL
MODEL 5
REMARK VINA RESULT:      -5.4     10.823     12.309
REMARK  2 active torsions:
REMARK  status: ('A' for Active; 'I' for Inactive)
REMARK    1  A    between atoms: S_1  and  C_2 
REMARK    2  A    between atoms: S_1  and  N_13 
ROOT
HETATM    1  C   UNK N   1      35.868  12.235  14.913  0.00  0.00     0.080 A 
HETATM    2  C   UNK N   1      35.860  10.860  15.222  0.00  0.00     0.027 A 
HETATM    3  C   UNK N   1      35.681  10.417  16.542  0.00  0.00     0.032 A 
HETATM    4  C   UNK N   1      35.491  11.367  17.543  0.00  0.00     0.055 A 
HETATM    5  N   UNK N   1      35.239  11.077  18.856  0.00  0.00    -0.318 N 
HETATM    6  C   UNK N   1      35.098   9.767  19.468  0.00  0.00     0.165 C 
HETATM    7  S   UNK N   1      35.074  12.531  19.609  0.00  0.00     0.032 SA
HETATM    8  C   UNK N   1      35.307  13.572  18.352  0.00  0.00     0.241 A 
HETATM    9  O   UNK N   1      35.268  14.787  18.389  0.00  0.00    -0.278 OA
HETATM   10  C   UNK N   1      35.524  12.764  17.234  0.00  0.00     0.051 A 
HETATM   11  C   UNK N   1      35.710  13.195  15.923  0.00  0.00     0.043 A 
ENDROOT
BRANCH   1  12
HETATM   12  S   UNK N   1      35.812  12.757  13.206  0.00  0.00     0.256 S 
HETATM   13  O   UNK N   1      35.269  11.675  12.260  0.00  0.00    -0.201 OA
HETATM   14  O   UNK N   1      34.733  13.839  13.053  0.00  0.00    -0.201 OA
BRANCH  12  15
HETATM   15  N   UNK N   1      37.226  13.440  12.401  0.00  0.00    -0.324 N 
HETATM   16  H   UNK N   1      37.422  13.838  11.482  0.00  0.00     0.169 HD
HETATM   17  H   UNK N   1      38.050  13.435  13.001  0.00  0.00     0.169 HD
ENDBRANCH  12  15
ENDBRANCH   1  12
TORSDOF 2
ENDMDL
MODEL 6
REMARK VINA RESULT:      -5.3      5.714      6.488
REMARK  2 active torsions:
REMARK  status: ('A' for Active; 'I' for Inactive)
REMARK    1  A    between atoms: S_1  and  C_2 
REMARK    2  A    between atoms: S_1  and  N_13 
ROOT
HETATM    1  C   UNK N   1      35.439  14.799  11.442  0.00  0.00     0.080 A 
HETATM    2  C   UNK N   1      35.754  16.149  11.186  0.00  0.00     0.027 A 
HETATM    3  C   UNK N   1      35.116  16.857  10.156  0.00  0.00     0.032 A 
HETATM    4  C   UNK N   1      34.146  16.203   9.400  0.00  0.00     0.055 A 
HETATM    5  N   UNK N   1      33.400  16.788   8.414  0.00  0.00    -0.318 N 
HETATM    6  C   UNK N   1      33.438  18.170   7.969  0.00  0.00     0.165 C 
HETATM    7  S   UNK N   1      32.398  15.608   7.855  0.00  0.00     0.032 SA
HETATM    8  C   UNK N   1      32.842  14.334   8.801  0.00  0.00     0.241 A 
HETATM    9  O   UNK N   1      32.374  13.212   8.787  0.00  0.00    -0.278 OA
HETATM   10  C   UNK N   1      33.842  14.826   9.643  0.00  0.00     0.051 A 
HETATM   11  C   UNK N   1      34.486  14.127  10.662  0.00  0.00     0.043 A 
ENDROOT
BRANCH   1  12
HETATM   12  S   UNK N   1      36.051  14.014  12.925  0.00  0.00     0.256 S 
HETATM   13  O   UNK N   1      36.534  15.017  13.984  0.00  0.00    -0.201 OA
HETATM   14  O   UNK N   1      34.873  13.362  13.664  0.00  0.00    -0.201 OA
BRANCH  12  15
HETATM   15  N   UNK N   1      37.277  12.746  12.861  0.00  0.00    -0.324 N 
HETATM   16  H   UNK N   1      38.296  12.716  12.857  0.00  0.00     0.169 HD
HETATM   17  H   UNK N   1      36.864  11.815  12.818  0.00  0.00     0.169 HD
ENDBRANCH  12  15
ENDBRANCH   1  12
TORSDOF 2
ENDMDL
MODEL 7
REMARK VINA RESULT:      -5.3      2.191      2.832
REMARK  2 active torsions:
REMARK  status: ('A' for Active; 'I' for Inactive)
REMARK    1  A    between atoms: S_1  and  C_2 
REMARK    2  A    between atoms: S_1  and  N_13 
ROOT
HETATM    1  C   UNK N   1      29.837  17.290   7.910  0.00  0.00     0.080 A 
HETATM    2  C   UNK N   1      31.142  17.000   8.358  0.00  0.00     0.027 A 
HETATM    3  C   UNK N   1      32.149  16.628   7.454  0.00  0.00     0.032 A 
HETATM    4  C   UNK N   1      31.839  16.569   6.098  0.00  0.00     0.055 A 
HETATM    5  N   UNK N   1      32.736  16.287   5.104  0.00  0.00    -0.318 N 
HETATM    6  C   UNK N   1      34.158  16.019   5.236  0.00  0.00     0.165 C 
HETATM    7  S   UNK N   1      31.882  16.362   3.699  0.00  0.00     0.032 SA
HETATM    8  C   UNK N   1      30.378  16.743   4.258  0.00  0.00     0.241 A 
HETATM    9  O   UNK N   1      29.375  16.929   3.595  0.00  0.00    -0.278 OA
HETATM   10  C   UNK N   1      30.509  16.839   5.644  0.00  0.00     0.051 A 
HETATM   11  C   UNK N   1      29.512  17.200   6.548  0.00  0.00     0.043 A 
ENDROOT
BRANCH   1  12
HETATM   12  S   UNK N   1      28.662  18.029   9.032  0.00  0.00     0.256 S 
HETATM   13  O   UNK N   1      27.886  16.995   9.863  0.00  0.00    -0.201 OA
HETATM   14  O   UNK N   1      29.429  18.768  10.139  0.00  0.00    -0.201 OA
BRANCH  12  15
HETATM   15  N   UNK N   1      27.466  19.203   8.479  0.00  0.00    -0.324 N 
HETATM   16  H   UNK N   1      26.907  19.333   7.636  0.00  0.00     0.169 HD
HETATM   17  H   UNK N   1      27.293  19.931   9.171  0.00  0.00     0.169 HD
ENDBRANCH  12  15
ENDBRANCH   1  12
TORSDOF 2
ENDMDL
MODEL 8
REMARK VINA RESULT:      -5.2      8.648     10.166
REMARK  2 active torsions:
REMARK  status: ('A' for Active; 'I' for Inactive)
REMARK    1  A    between atoms: S_1  and  C_2 
REMARK    2  A    between atoms: S_1  and  N_13 
ROOT
HETATM    1  C   UNK N   1      24.431  19.646   3.827  0.00  0.00     0.080 A 
HETATM    2  C   UNK N   1      24.114  18.476   4.547  0.00  0.00     0.027 A 
HETATM    3  C   UNK N   1      22.813  17.951   4.533  0.00  0.00     0.032 A 
HETATM    4  C   UNK N   1      21.840  18.598   3.774  0.00  0.00     0.055 A 
HETATM    5  N   UNK N   1      20.555  18.160   3.616  0.00  0.00    -0.318 N 
HETATM    6  C   UNK N   1      19.948  16.960   4.165  0.00  0.00     0.165 C 
HETATM    7  S   UNK N   1      19.831  19.255   2.623  0.00  0.00     0.032 SA
HETATM    8  C   UNK N   1      21.069  20.308   2.349  0.00  0.00     0.241 A 
HETATM    9  O   UNK N   1      21.044  21.303   1.650  0.00  0.00    -0.278 OA
HETATM   10  C   UNK N   1      22.155  19.799   3.062  0.00  0.00     0.051 A 
HETATM   11  C   UNK N   1      23.448  20.320   3.087  0.00  0.00     0.043 A 
ENDROOT
BRANCH   1  12
HETATM   12  S   UNK N   1      26.140  20.128   3.633  0.00  0.00     0.256 S 
HETATM   13  O   UNK N   1      26.366  21.095   2.461  0.00  0.00    -0.201 OA
HETATM   14  O   UNK N   1      26.543  21.016   4.819  0.00  0.00    -0.201 OA
BRANCH  12  15
HETATM   15  N   UNK N   1      27.433  18.931   3.530  0.00  0.00    -0.324 N 
HETATM   16  H   UNK N   1      28.005  18.415   4.199  0.00  0.00     0.169 HD
HETATM   17  H   UNK N   1      27.666  18.699   2.566  0.00  0.00     0.169 HD
ENDBRANCH  12  15
ENDBRANCH   1  12
TORSDOF 2
ENDMDL
MODEL 9
REMARK VINA RESULT:      -5.1      6.210      6.765
REMARK  2 active torsions:
REMARK  status: ('A' for Active; 'I' for Inactive)
REMARK    1  A    between atoms: S_1  and  C_2 
REMARK    2  A    between atoms: S_1  and  N_13 
ROOT
HETATM    1  C   UNK N   1      35.278  14.023  12.140  0.00  0.00     0.080 A 
HETATM    2  C   UNK N   1      34.887  12.910  11.369  0.00  0.00     0.027 A 
HETATM    3  C   UNK N   1      34.534  13.056  10.018  0.00  0.00     0.032 A 
HETATM    4  C   UNK N   1      34.596  14.325   9.447  0.00  0.00     0.055 A 
HETATM    5  N   UNK N   1      34.346  14.601   8.130  0.00  0.00    -0.318 N 
HETATM    6  C   UNK N   1      33.995  13.667   7.075  0.00  0.00     0.165 C 
HETATM    7  S   UNK N   1      34.574  16.223   7.965  0.00  0.00     0.032 SA
HETATM    8  C   UNK N   1      34.988  16.648   9.503  0.00  0.00     0.241 A 
HETATM    9  O   UNK N   1      35.277  17.759   9.904  0.00  0.00    -0.278 OA
HETATM   10  C   UNK N   1      34.969  15.459  10.235  0.00  0.00     0.051 A 
HETATM   11  C   UNK N   1      35.311  15.307  11.578  0.00  0.00     0.043 A 
ENDROOT
BRANCH   1  12
HETATM   12  S   UNK N   1      35.989  13.769  13.759  0.00  0.00     0.256 S 
HETATM   13  O   UNK N   1      34.954  13.351  14.815  0.00  0.00    -0.201 OA
HETATM   14  O   UNK N   1      36.879  12.518  13.720  0.00  0.00    -0.201 OA
BRANCH  12  15
HETATM   15  N   UNK N   1      36.999  14.995  14.528  0.00  0.00    -0.324 N 
HETATM   16  H   UNK N   1      37.032  16.014  14.535  0.00  0.00     0.169 HD
HETATM   17  H   UNK N   1      37.730  14.582  15.106  0.00  0.00     0.169 HD
ENDBRANCH  12  15
ENDBRANCH   1  12
TORSDOF 2
ENDMDL
