REMARK  2 active torsions:
REMARK  status: ('A' for Active; 'I' for Inactive)
REMARK    1  A    between atoms: S_1  and  C_2 
REMARK    2  A    between atoms: S_1  and  N_13 
ROOT
HETATM    1  C   UNK N   1       1.409   0.612   0.015  0.00  0.00     0.080 A 
HETATM    2  C   UNK N   1       1.353  -0.796  -0.005  0.00  0.00     0.027 A 
HETATM    3  C   UNK N   1       0.122  -1.470   0.011  0.00  0.00     0.032 A 
HETATM    4  C   UNK N   1      -1.050  -0.717   0.027  0.00  0.00     0.055 A 
HETATM    5  N   UNK N   1      -2.313  -1.239  -0.024  0.00  0.00    -0.318 N 
HETATM    6  C   UNK N   1      -2.697  -2.636  -0.123  0.00  0.00     0.165 C 
HETATM    7  S   UNK N   1      -3.330   0.055   0.000  0.00  0.00     0.032 SA
HETATM    8  C   UNK N   1      -2.258   1.305   0.074  0.00  0.00     0.241 A 
HETATM    9  O   UNK N   1      -2.517   2.493   0.096  0.00  0.00    -0.278 OA
HETATM   10  C   UNK N   1      -0.994   0.712   0.072  0.00  0.00     0.051 A 
HETATM   11  C   UNK N   1       0.232   1.374   0.064  0.00  0.00     0.043 A 
ENDROOT
BRANCH   1  12
HETATM   12  S   UNK N   1       2.962   1.439  -0.291  0.00  0.00     0.256 S 
HETATM   13  O   UNK N   1       4.099   0.473  -0.658  0.00  0.00    -0.201 OA
HETATM   14  O   UNK N   1       2.845   2.250  -1.590  0.00  0.00    -0.201 OA
BRANCH  12  15
HETATM   15  N   UNK N   1       3.648   2.578   0.869  0.00  0.00    -0.324 N 
HETATM   16  H   UNK N   1       4.416   2.563   1.540  0.00  0.00     0.169 HD
HETATM   17  H   UNK N   1       3.155   3.470   0.869  0.00  0.00     0.169 HD
ENDBRANCH  12  15
ENDBRANCH   1  12
TORSDOF 2
