MODEL 1
REMARK VINA RESULT:      -5.5      0.000      0.000
REMARK  7 active torsions:
REMARK  status: ('A' for Active; 'I' for Inactive)
REMARK    1  A    between atoms: C_6  and  C_9 
REMARK    2  A    between atoms: C_9  and  C_10 
REMARK    3  A    between atoms: C_10  and  C_11 
REMARK    4  A    between atoms: C_11  and  C_12 
REMARK    5  A    between atoms: C_12  and  C_13 
REMARK    6  A    between atoms: C_13  and  C_14 
REMARK    7  A    between atoms: C_14  and  O_16 
ROOT
HETATM    1  C   UNK N   1      36.379  13.503  13.631  0.00  0.00     0.119 C 
HETATM    2  C   UNK N   1      35.596  13.036  14.839  0.00  0.00     0.123 C 
HETATM    3  N   UNK N   1      36.363  13.576  15.926  0.00  0.00    -0.335 N 
HETATM    4  C   UNK N   1      36.991  14.664  15.434  0.00  0.00     0.316 C 
HETATM    5  N   UNK N   1      36.907  14.757  14.091  0.00  0.00    -0.336 N 
HETATM    6  C   UNK N   1      35.379  11.568  14.561  0.00  0.00     0.072 C 
HETATM    7  S   UNK N   1      34.712  11.631  12.830  0.00  0.00    -0.160 SA
HETATM    8  C   UNK N   1      35.392  13.339  12.507  0.00  0.00     0.101 C 
HETATM    9  O   UNK N   1      37.574  15.471  16.127  0.00  0.00    -0.247 OA
HETATM   10  H   UNK N   1      36.418  13.225  16.844  0.00  0.00     0.164 HD
HETATM   11  H   UNK N   1      37.157  15.531  13.537  0.00  0.00     0.164 HD
ENDROOT
BRANCH   6  12
HETATM   12  C   UNK N   1      34.457  10.869  15.561  0.00  0.00     0.017 C 
BRANCH  12  13
HETATM   13  C   UNK N   1      35.105   9.744  16.349  0.00  0.00     0.001 C 
BRANCH  13  14
HETATM   14  C   UNK N   1      35.881  10.376  17.493  0.00  0.00     0.001 C 
BRANCH  14  15
HETATM   15  C   UNK N   1      34.990  10.746  18.671  0.00  0.00     0.010 C 
BRANCH  15  16
HETATM   16  C   UNK N   1      35.711  11.593  19.710  0.00  0.00     0.110 C 
BRANCH  16  17
HETATM   17  C   UNK N   1      35.164  12.983  19.688  0.00  0.00     0.139 C 
HETATM   18  O   UNK N   1      35.389  13.715  18.738  0.00  0.00    -0.650 OA
BRANCH  17  19
HETATM   19  O   UNK N   1      34.422  13.431  20.717  0.00  0.00    -0.776 OA
HETATM   20  H   UNK N   1      34.773  13.984  21.387  0.00  0.00     0.167 HD
ENDBRANCH  17  19
ENDBRANCH  16  17
ENDBRANCH  15  16
ENDBRANCH  14  15
ENDBRANCH  13  14
ENDBRANCH  12  13
ENDBRANCH   6  12
TORSDOF 7
ENDMDL
MODEL 2
REMARK VINA RESULT:      -5.3      4.330      7.799
REMARK  7 active torsions:
REMARK  status: ('A' for Active; 'I' for Inactive)
REMARK    1  A    between atoms: C_6  and  C_9 
REMARK    2  A    between atoms: C_9  and  C_10 
REMARK    3  A    between atoms: C_10  and  C_11 
REMARK    4  A    between atoms: C_11  and  C_12 
REMARK    5  A    between atoms: C_12  and  C_13 
REMARK    6  A    between atoms: C_13  and  C_14 
REMARK    7  A    between atoms: C_14  and  O_16 
ROOT
HETATM    1  C   UNK N   1      35.676  13.106  14.305  0.00  0.00     0.119 C 
HETATM    2  C   UNK N   1      36.378  13.956  13.267  0.00  0.00     0.123 C 
HETATM    3  N   UNK N   1      36.845  15.066  14.049  0.00  0.00    -0.335 N 
HETATM    4  C   UNK N   1      36.996  14.600  15.306  0.00  0.00     0.316 C 
HETATM    5  N   UNK N   1      36.456  13.376  15.480  0.00  0.00    -0.336 N 
HETATM    6  C   UNK N   1      35.369  14.033  12.146  0.00  0.00     0.072 C 
HETATM    7  S   UNK N   1      34.944  12.238  11.930  0.00  0.00    -0.160 SA
HETATM    8  C   UNK N   1      35.568  11.768  13.625  0.00  0.00     0.101 C 
HETATM    9  O   UNK N   1      37.555  15.218  16.187  0.00  0.00    -0.247 OA
HETATM   10  H   UNK N   1      37.020  15.981  13.732  0.00  0.00     0.164 HD
HETATM   11  H   UNK N   1      36.575  12.784  16.258  0.00  0.00     0.164 HD
ENDROOT
BRANCH   6  12
HETATM   12  C   UNK N   1      35.889  14.709  10.877  0.00  0.00     0.017 C 
BRANCH  12  13
HETATM   13  C   UNK N   1      35.342  14.139   9.580  0.00  0.00     0.001 C 
BRANCH  13  14
HETATM   14  C   UNK N   1      35.313  15.267   8.561  0.00  0.00     0.001 C 
BRANCH  14  15
HETATM   15  C   UNK N   1      33.926  15.877   8.403  0.00  0.00     0.010 C 
BRANCH  15  16
HETATM   16  C   UNK N   1      33.842  17.294   8.954  0.00  0.00     0.110 C 
BRANCH  16  17
HETATM   17  C   UNK N   1      34.539  18.233   8.026  0.00  0.00     0.139 C 
HETATM   18  O   UNK N   1      34.429  18.095   6.818  0.00  0.00    -0.650 OA
BRANCH  17  19
HETATM   19  O   UNK N   1      35.290  19.234   8.519  0.00  0.00    -0.776 OA
HETATM   20  H   UNK N   1      35.447  19.340   9.437  0.00  0.00     0.167 HD
ENDBRANCH  17  19
ENDBRANCH  16  17
ENDBRANCH  15  16
ENDBRANCH  14  15
ENDBRANCH  13  14
ENDBRANCH  12  13
ENDBRANCH   6  12
TORSDOF 7
ENDMDL
MODEL 3
REMARK VINA RESULT:      -5.2     14.632     16.065
REMARK  7 active torsions:
REMARK  status: ('A' for Active; 'I' for Inactive)
REMARK    1  A    between atoms: C_6  and  C_9 
REMARK    2  A    between atoms: C_9  and  C_10 
REMARK    3  A    between atoms: C_10  and  C_11 
REMARK    4  A    between atoms: C_11  and  C_12 
REMARK    5  A    between atoms: C_12  and  C_13 
REMARK    6  A    between atoms: C_13  and  C_14 
REMARK    7  A    between atoms: C_14  and  O_16 
ROOT
HETATM    1  C   UNK N   1      24.370  12.307  10.461  0.00  0.00     0.119 C 
HETATM    2  C   UNK N   1      22.936  12.710  10.190  0.00  0.00     0.123 C 
HETATM    3  N   UNK N   1      22.227  12.041  11.244  0.00  0.00    -0.335 N 
HETATM    4  C   UNK N   1      23.109  11.901  12.256  0.00  0.00     0.316 C 
HETATM    5  N   UNK N   1      24.375  12.191  11.893  0.00  0.00    -0.336 N 
HETATM    6  C   UNK N   1      22.776  12.440   8.713  0.00  0.00     0.072 C 
HETATM    7  S   UNK N   1      24.266  13.313   8.031  0.00  0.00    -0.160 SA
HETATM    8  C   UNK N   1      25.157  13.317   9.671  0.00  0.00     0.101 C 
HETATM    9  O   UNK N   1      22.795  11.547  13.373  0.00  0.00    -0.247 OA
HETATM   10  H   UNK N   1      21.289  11.745  11.232  0.00  0.00     0.164 HD
HETATM   11  H   UNK N   1      25.149  12.302  12.490  0.00  0.00     0.164 HD
ENDROOT
BRANCH   6  12
HETATM   12  C   UNK N   1      21.448  12.920   8.126  0.00  0.00     0.017 C 
BRANCH  12  13
HETATM   13  C   UNK N   1      21.573  13.990   7.055  0.00  0.00     0.001 C 
BRANCH  13  14
HETATM   14  C   UNK N   1      20.317  14.846   7.116  0.00  0.00     0.001 C 
BRANCH  14  15
HETATM   15  C   UNK N   1      20.622  16.314   7.380  0.00  0.00     0.010 C 
BRANCH  15  16
HETATM   16  C   UNK N   1      19.967  16.830   8.653  0.00  0.00     0.110 C 
BRANCH  16  17
HETATM   17  C   UNK N   1      20.066  18.320   8.697  0.00  0.00     0.139 C 
HETATM   18  O   UNK N   1      20.597  18.926   7.780  0.00  0.00    -0.650 OA
BRANCH  17  19
HETATM   19  O   UNK N   1      19.570  18.997   9.749  0.00  0.00    -0.776 OA
HETATM   20  H   UNK N   1      19.986  19.763  10.095  0.00  0.00     0.167 HD
ENDBRANCH  17  19
ENDBRANCH  16  17
ENDBRANCH  15  16
ENDBRANCH  14  15
ENDBRANCH  13  14
ENDBRANCH  12  13
ENDBRANCH   6  12
TORSDOF 7
ENDMDL
MODEL 4
REMARK VINA RESULT:      -5.2     11.566     13.333
REMARK  7 active torsions:
REMARK  status: ('A' for Active; 'I' for Inactive)
REMARK    1  A    between atoms: C_6  and  C_9 
REMARK    2  A    between atoms: C_9  and  C_10 
REMARK    3  A    between atoms: C_10  and  C_11 
REMARK    4  A    between atoms: C_11  and  C_12 
REMARK    5  A    between atoms: C_12  and  C_13 
REMARK    6  A    between atoms: C_13  and  C_14 
REMARK    7  A    between atoms: C_14  and  O_16 
ROOT
HETATM    1  C   UNK N   1      27.952  19.337   7.287  0.00  0.00     0.119 C 
HETATM    2  C   UNK N   1      27.956  18.005   6.568  0.00  0.00     0.123 C 
HETATM    3  N   UNK N   1      28.361  17.100   7.606  0.00  0.00    -0.335 N 
HETATM    4  C   UNK N   1      27.977  17.669   8.767  0.00  0.00     0.316 C 
HETATM    5  N   UNK N   1      27.579  18.949   8.618  0.00  0.00    -0.336 N 
HETATM    6  C   UNK N   1      28.731  18.299   5.305  0.00  0.00     0.072 C 
HETATM    7  S   UNK N   1      27.859  19.823   4.702  0.00  0.00    -0.160 SA
HETATM    8  C   UNK N   1      27.129  20.208   6.376  0.00  0.00     0.101 C 
HETATM    9  O   UNK N   1      27.991  17.090   9.833  0.00  0.00    -0.247 OA
HETATM   10  H   UNK N   1      28.825  16.240   7.493  0.00  0.00     0.164 HD
HETATM   11  H   UNK N   1      27.122  19.507   9.289  0.00  0.00     0.164 HD
ENDROOT
BRANCH   6  12
HETATM   12  C   UNK N   1      28.750  17.149   4.297  0.00  0.00     0.017 C 
BRANCH  12  13
HETATM   13  C   UNK N   1      30.105  16.492   4.104  0.00  0.00     0.001 C 
BRANCH  13  14
HETATM   14  C   UNK N   1      31.168  17.526   4.442  0.00  0.00     0.001 C 
BRANCH  14  15
HETATM   15  C   UNK N   1      32.409  16.905   5.069  0.00  0.00     0.010 C 
BRANCH  15  16
HETATM   16  C   UNK N   1      32.667  17.410   6.482  0.00  0.00     0.110 C 
BRANCH  16  17
HETATM   17  C   UNK N   1      34.137  17.429   6.745  0.00  0.00     0.139 C 
HETATM   18  O   UNK N   1      34.627  18.320   7.421  0.00  0.00    -0.650 OA
BRANCH  17  19
HETATM   19  O   UNK N   1      34.925  16.464   6.237  0.00  0.00    -0.776 OA
HETATM   20  H   UNK N   1      35.763  16.647   5.859  0.00  0.00     0.167 HD
ENDBRANCH  17  19
ENDBRANCH  16  17
ENDBRANCH  15  16
ENDBRANCH  14  15
ENDBRANCH  13  14
ENDBRANCH  12  13
ENDBRANCH   6  12
TORSDOF 7
ENDMDL
MODEL 5
REMARK VINA RESULT:      -5.2     15.303     16.829
REMARK  7 active torsions:
REMARK  status: ('A' for Active; 'I' for Inactive)
REMARK    1  A    between atoms: C_6  and  C_9 
REMARK    2  A    between atoms: C_9  and  C_10 
REMARK    3  A    between atoms: C_10  and  C_11 
REMARK    4  A    between atoms: C_11  and  C_12 
REMARK    5  A    between atoms: C_12  and  C_13 
REMARK    6  A    between atoms: C_13  and  C_14 
REMARK    7  A    between atoms: C_14  and  O_16 
ROOT
HETATM    1  C   UNK N   1      24.296  12.329  10.344  0.00  0.00     0.119 C 
HETATM    2  C   UNK N   1      22.855  12.784  10.251  0.00  0.00     0.123 C 
HETATM    3  N   UNK N   1      22.248  12.101  11.358  0.00  0.00    -0.335 N 
HETATM    4  C   UNK N   1      23.233  11.900  12.258  0.00  0.00     0.316 C 
HETATM    5  N   UNK N   1      24.459  12.164  11.762  0.00  0.00    -0.336 N 
HETATM    6  C   UNK N   1      22.521  12.568   8.794  0.00  0.00     0.072 C 
HETATM    7  S   UNK N   1      23.953  13.419   7.973  0.00  0.00    -0.160 SA
HETATM    8  C   UNK N   1      25.023  13.341   9.500  0.00  0.00     0.101 C 
HETATM    9  O   UNK N   1      23.036  11.518  13.392  0.00  0.00    -0.247 OA
HETATM   10  H   UNK N   1      21.305  11.833  11.443  0.00  0.00     0.164 HD
HETATM   11  H   UNK N   1      25.299  12.232  12.271  0.00  0.00     0.164 HD
ENDROOT
BRANCH   6  12
HETATM   12  C   UNK N   1      21.152  13.107   8.377  0.00  0.00     0.017 C 
BRANCH  12  13
HETATM   13  C   UNK N   1      20.658  14.292   9.189  0.00  0.00     0.001 C 
BRANCH  13  14
HETATM   14  C   UNK N   1      20.380  15.428   8.218  0.00  0.00     0.001 C 
BRANCH  14  15
HETATM   15  C   UNK N   1      20.362  14.966   6.767  0.00  0.00     0.010 C 
BRANCH  15  16
HETATM   16  C   UNK N   1      20.361  16.126   5.781  0.00  0.00     0.110 C 
BRANCH  16  17
HETATM   17  C   UNK N   1      19.025  16.220   5.121  0.00  0.00     0.139 C 
HETATM   18  O   UNK N   1      18.021  15.867   5.719  0.00  0.00    -0.650 OA
BRANCH  17  19
HETATM   19  O   UNK N   1      18.925  16.694   3.866  0.00  0.00    -0.776 OA
HETATM   20  H   UNK N   1      19.661  17.037   3.398  0.00  0.00     0.167 HD
ENDBRANCH  17  19
ENDBRANCH  16  17
ENDBRANCH  15  16
ENDBRANCH  14  15
ENDBRANCH  13  14
ENDBRANCH  12  13
ENDBRANCH   6  12
TORSDOF 7
ENDMDL
MODEL 6
REMARK VINA RESULT:      -5.0     22.036     24.597
REMARK  7 active torsions:
REMARK  status: ('A' for Active; 'I' for Inactive)
REMARK    1  A    between atoms: C_6  and  C_9 
REMARK    2  A    between atoms: C_9  and  C_10 
REMARK    3  A    between atoms: C_10  and  C_11 
REMARK    4  A    between atoms: C_11  and  C_12 
REMARK    5  A    between atoms: C_12  and  C_13 
REMARK    6  A    between atoms: C_13  and  C_14 
REMARK    7  A    between atoms: C_14  and  O_16 
ROOT
HETATM    1  C   UNK N   1      30.977  20.899  -4.192  0.00  0.00     0.119 C 
HETATM    2  C   UNK N   1      30.362  22.145  -4.792  0.00  0.00     0.123 C 
HETATM    3  N   UNK N   1      29.885  22.838  -3.630  0.00  0.00    -0.335 N 
HETATM    4  C   UNK N   1      30.670  22.439  -2.608  0.00  0.00     0.316 C 
HETATM    5  N   UNK N   1      31.452  21.387  -2.928  0.00  0.00    -0.336 N 
HETATM    6  C   UNK N   1      29.500  21.600  -5.907  0.00  0.00     0.072 C 
HETATM    7  S   UNK N   1      30.709  20.494  -6.779  0.00  0.00    -0.160 SA
HETATM    8  C   UNK N   1      31.850  20.386  -5.306  0.00  0.00     0.101 C 
HETATM    9  O   UNK N   1      30.670  22.967  -1.516  0.00  0.00    -0.247 OA
HETATM   10  H   UNK N   1      29.137  23.476  -3.586  0.00  0.00     0.164 HD
HETATM   11  H   UNK N   1      32.200  21.026  -2.399  0.00  0.00     0.164 HD
ENDROOT
BRANCH   6  12
HETATM   12  C   UNK N   1      28.877  22.673  -6.801  0.00  0.00     0.017 C 
BRANCH  12  13
HETATM   13  C   UNK N   1      27.534  22.300  -7.404  0.00  0.00     0.001 C 
BRANCH  13  14
HETATM   14  C   UNK N   1      26.602  23.486  -7.212  0.00  0.00     0.001 C 
BRANCH  14  15
HETATM   15  C   UNK N   1      25.788  23.389  -5.929  0.00  0.00     0.010 C 
BRANCH  15  16
HETATM   16  C   UNK N   1      25.805  24.680  -5.124  0.00  0.00     0.110 C 
BRANCH  16  17
HETATM   17  C   UNK N   1      26.821  24.576  -4.034  0.00  0.00     0.139 C 
HETATM   18  O   UNK N   1      27.932  25.058  -4.184  0.00  0.00    -0.650 OA
BRANCH  17  19
HETATM   19  O   UNK N   1      26.514  23.949  -2.884  0.00  0.00    -0.776 OA
HETATM   20  H   UNK N   1      25.995  23.169  -2.860  0.00  0.00     0.167 HD
ENDBRANCH  17  19
ENDBRANCH  16  17
ENDBRANCH  15  16
ENDBRANCH  14  15
ENDBRANCH  13  14
ENDBRANCH  12  13
ENDBRANCH   6  12
TORSDOF 7
ENDMDL
MODEL 7
REMARK VINA RESULT:      -5.0      7.098      9.841
REMARK  7 active torsions:
REMARK  status: ('A' for Active; 'I' for Inactive)
REMARK    1  A    between atoms: C_6  and  C_9 
REMARK    2  A    between atoms: C_9  and  C_10 
REMARK    3  A    between atoms: C_10  and  C_11 
REMARK    4  A    between atoms: C_11  and  C_12 
REMARK    5  A    between atoms: C_12  and  C_13 
REMARK    6  A    between atoms: C_13  and  C_14 
REMARK    7  A    between atoms: C_14  and  O_16 
ROOT
HETATM    1  C   UNK N   1      34.889  13.904   9.376  0.00  0.00     0.119 C 
HETATM    2  C   UNK N   1      34.975  15.373   9.730  0.00  0.00     0.123 C 
HETATM    3  N   UNK N   1      34.527  15.385  11.094  0.00  0.00    -0.335 N 
HETATM    4  C   UNK N   1      34.813  14.163  11.590  0.00  0.00     0.316 C 
HETATM    5  N   UNK N   1      35.180  13.282  10.638  0.00  0.00    -0.336 N 
HETATM    6  C   UNK N   1      34.281  16.047   8.570  0.00  0.00     0.072 C 
HETATM    7  S   UNK N   1      35.145  15.254   7.131  0.00  0.00    -0.160 SA
HETATM    8  C   UNK N   1      35.745  13.804   8.143  0.00  0.00     0.101 C 
HETATM    9  O   UNK N   1      34.742  13.886  12.769  0.00  0.00    -0.247 OA
HETATM   10  H   UNK N   1      34.099  16.132  11.570  0.00  0.00     0.164 HD
HETATM   11  H   UNK N   1      35.571  12.390  10.779  0.00  0.00     0.164 HD
ENDROOT
BRANCH   6  12
HETATM   12  C   UNK N   1      34.368  17.573   8.587  0.00  0.00     0.017 C 
BRANCH  12  13
HETATM   13  C   UNK N   1      33.127  18.289   8.081  0.00  0.00     0.001 C 
BRANCH  13  14
HETATM   14  C   UNK N   1      31.938  17.374   8.329  0.00  0.00     0.001 C 
BRANCH  14  15
HETATM   15  C   UNK N   1      30.684  18.139   8.727  0.00  0.00     0.010 C 
BRANCH  15  16
HETATM   16  C   UNK N   1      29.411  17.499   8.192  0.00  0.00     0.110 C 
BRANCH  16  17
HETATM   17  C   UNK N   1      28.266  18.444   8.362  0.00  0.00     0.139 C 
HETATM   18  O   UNK N   1      28.096  19.350   7.562  0.00  0.00    -0.650 OA
BRANCH  17  19
HETATM   19  O   UNK N   1      27.421  18.298   9.399  0.00  0.00    -0.776 OA
HETATM   20  H   UNK N   1      26.491  18.272   9.289  0.00  0.00     0.167 HD
ENDBRANCH  17  19
ENDBRANCH  16  17
ENDBRANCH  15  16
ENDBRANCH  14  15
ENDBRANCH  13  14
ENDBRANCH  12  13
ENDBRANCH   6  12
TORSDOF 7
ENDMDL
MODEL 8
REMARK VINA RESULT:      -4.9      2.409      3.351
REMARK  7 active torsions:
REMARK  status: ('A' for Active; 'I' for Inactive)
REMARK    1  A    between atoms: C_6  and  C_9 
REMARK    2  A    between atoms: C_9  and  C_10 
REMARK    3  A    between atoms: C_10  and  C_11 
REMARK    4  A    between atoms: C_11  and  C_12 
REMARK    5  A    between atoms: C_12  and  C_13 
REMARK    6  A    between atoms: C_13  and  C_14 
REMARK    7  A    between atoms: C_14  and  O_16 
ROOT
HETATM    1  C   UNK N   1      36.101  13.382  10.924  0.00  0.00     0.119 C 
HETATM    2  C   UNK N   1      36.080  13.809  12.376  0.00  0.00     0.123 C 
HETATM    3  N   UNK N   1      36.517  15.174  12.299  0.00  0.00    -0.335 N 
HETATM    4  C   UNK N   1      36.172  15.607  11.069  0.00  0.00     0.316 C 
HETATM    5  N   UNK N   1      35.771  14.609  10.254  0.00  0.00    -0.336 N 
HETATM    6  C   UNK N   1      36.813  12.689  13.074  0.00  0.00     0.072 C 
HETATM    7  S   UNK N   1      35.924  11.207  12.395  0.00  0.00    -0.160 SA
HETATM    8  C   UNK N   1      35.250  12.141  10.927  0.00  0.00     0.101 C 
HETATM    9  O   UNK N   1      36.220  16.771  10.730  0.00  0.00    -0.247 OA
HETATM   10  H   UNK N   1      36.976  15.690  13.000  0.00  0.00     0.164 HD
HETATM   11  H   UNK N   1      35.338  14.704   9.375  0.00  0.00     0.164 HD
ENDROOT
BRANCH   6  12
HETATM   12  C   UNK N   1      36.797  12.782  14.600  0.00  0.00     0.017 C 
BRANCH  12  13
HETATM   13  C   UNK N   1      36.373  11.509  15.313  0.00  0.00     0.001 C 
BRANCH  13  14
HETATM   14  C   UNK N   1      35.765  11.913  16.647  0.00  0.00     0.001 C 
BRANCH  14  15
HETATM   15  C   UNK N   1      35.180  13.319  16.621  0.00  0.00     0.010 C 
BRANCH  15  16
HETATM   16  C   UNK N   1      35.275  14.019  17.969  0.00  0.00     0.110 C 
BRANCH  16  17
HETATM   17  C   UNK N   1      36.085  15.266  17.828  0.00  0.00     0.139 C 
HETATM   18  O   UNK N   1      35.918  16.195  18.601  0.00  0.00    -0.650 OA
BRANCH  17  19
HETATM   19  O   UNK N   1      37.001  15.366  16.848  0.00  0.00    -0.776 OA
HETATM   20  H   UNK N   1      37.875  15.041  16.942  0.00  0.00     0.167 HD
ENDBRANCH  17  19
ENDBRANCH  16  17
ENDBRANCH  15  16
ENDBRANCH  14  15
ENDBRANCH  13  14
ENDBRANCH  12  13
ENDBRANCH   6  12
TORSDOF 7
ENDMDL
MODEL 9
REMARK VINA RESULT:      -4.9      4.647      6.219
REMARK  7 active torsions:
REMARK  status: ('A' for Active; 'I' for Inactive)
REMARK    1  A    between atoms: C_6  and  C_9 
REMARK    2  A    between atoms: C_9  and  C_10 
REMARK    3  A    between atoms: C_10  and  C_11 
REMARK    4  A    between atoms: C_11  and  C_12 
REMARK    5  A    between atoms: C_12  and  C_13 
REMARK    6  A    between atoms: C_13  and  C_14 
REMARK    7  A    between atoms: C_14  and  O_16 
ROOT
HETATM    1  C   UNK N   1      33.900  16.258   7.828  0.00  0.00     0.119 C 
HETATM    2  C   UNK N   1      34.039  16.313   9.334  0.00  0.00     0.123 C 
HETATM    3  N   UNK N   1      34.938  17.416   9.517  0.00  0.00    -0.335 N 
HETATM    4  C   UNK N   1      34.768  18.217   8.445  0.00  0.00     0.316 C 
HETATM    5  N   UNK N   1      34.032  17.643   7.471  0.00  0.00    -0.336 N 
HETATM    6  C   UNK N   1      34.321  14.877   9.706  0.00  0.00     0.072 C 
HETATM    7  S   UNK N   1      32.956  14.002   8.802  0.00  0.00    -0.160 SA
HETATM    8  C   UNK N   1      32.659  15.428   7.635  0.00  0.00     0.101 C 
HETATM    9  O   UNK N   1      35.232  19.336   8.363  0.00  0.00    -0.247 OA
HETATM   10  H   UNK N   1      35.554  17.560  10.271  0.00  0.00     0.164 HD
HETATM   11  H   UNK N   1      33.660  18.085   6.674  0.00  0.00     0.164 HD
ENDROOT
BRANCH   6  12
HETATM   12  C   UNK N   1      34.345  14.610  11.211  0.00  0.00     0.017 C 
BRANCH  12  13
HETATM   13  C   UNK N   1      35.416  13.636  11.671  0.00  0.00     0.001 C 
BRANCH  13  14
HETATM   14  C   UNK N   1      35.985  14.165  12.978  0.00  0.00     0.001 C 
BRANCH  14  15
HETATM   15  C   UNK N   1      36.337  13.052  13.955  0.00  0.00     0.010 C 
BRANCH  15  16
HETATM   16  C   UNK N   1      36.262  13.501  15.408  0.00  0.00     0.110 C 
BRANCH  16  17
HETATM   17  C   UNK N   1      34.931  13.131  15.976  0.00  0.00     0.139 C 
HETATM   18  O   UNK N   1      34.644  13.446  17.120  0.00  0.00    -0.650 OA
BRANCH  17  19
HETATM   19  O   UNK N   1      34.045  12.449  15.228  0.00  0.00    -0.776 OA
HETATM   20  H   UNK N   1      34.259  12.106  14.383  0.00  0.00     0.167 HD
ENDBRANCH  17  19
ENDBRANCH  16  17
ENDBRANCH  15  16
ENDBRANCH  14  15
ENDBRANCH  13  14
ENDBRANCH  12  13
ENDBRANCH   6  12
TORSDOF 7
ENDMDL
