REMARK  6 active torsions:
REMARK  status: ('A' for Active; 'I' for Inactive)
REMARK    1  A    between atoms: C_1  and  O_3 
REMARK    2  A    between atoms: C_1  and  C_4 
REMARK    3  A    between atoms: C_4  and  C_5 
REMARK    4  A    between atoms: C_4  and  C_7 
REMARK    5  A    between atoms: C_5  and  S_6 
REMARK    6  A    between atoms: C_7  and  C_8 
ROOT
HETATM    1  C   UNK N   1      -0.962   0.207  -0.173  0.00  0.00     0.093 C 
ENDROOT
BRANCH   1   2
HETATM    2  C   UNK N   1      -2.156   1.025   0.265  0.00  0.00     0.144 C 
HETATM    3  O   UNK N   1      -3.114   0.501   0.811  0.00  0.00    -0.650 OA
BRANCH   2   4
HETATM    4  O   UNK N   1      -2.170   2.354   0.041  0.00  0.00    -0.776 OA
HETATM    5  H   UNK N   1      -1.375   2.824  -0.116  0.00  0.00     0.167 HD
ENDBRANCH   2   4
ENDBRANCH   1   2
BRANCH   1   6
HETATM    6  C   UNK N   1      -1.109  -1.280   0.175  0.00  0.00     0.086 C 
BRANCH   6   7
HETATM    7  S   UNK N   1      -2.439  -2.091  -0.767  0.00  0.00    -0.181 SA
HETATM    8  H   UNK N   1      -3.460  -1.533  -1.472  0.00  0.00     0.101 HD
ENDBRANCH   6   7
ENDBRANCH   1   6
BRANCH   1   9
HETATM    9  C   UNK N   1       0.295   0.769   0.499  0.00  0.00     0.020 C 
BRANCH   9  10
HETATM   10  C   UNK N   1       1.595   0.273  -0.138  0.00  0.00    -0.022 C 
HETATM   11  C   UNK N   1       2.739   1.166   0.291  0.00  0.00     0.009 C 
HETATM   12  C   UNK N   1       1.912  -1.154   0.270  0.00  0.00     0.009 C 
ENDBRANCH   9  10
ENDBRANCH   1   9
TORSDOF 6
