MODEL 1
REMARK VINA RESULT:      -4.3      0.000      0.000
REMARK  6 active torsions:
REMARK  status: ('A' for Active; 'I' for Inactive)
REMARK    1  A    between atoms: C_1  and  O_3 
REMARK    2  A    between atoms: C_1  and  C_4 
REMARK    3  A    between atoms: C_4  and  C_5 
REMARK    4  A    between atoms: C_4  and  C_7 
REMARK    5  A    between atoms: C_5  and  S_6 
REMARK    6  A    between atoms: C_7  and  C_8 
ROOT
HETATM    1  C   UNK N   1      33.202  17.580   8.604  0.00  0.00     0.093 C 
ENDROOT
BRANCH   1   2
HETATM    2  C   UNK N   1      34.318  18.267   7.851  0.00  0.00     0.144 C 
HETATM    3  O   UNK N   1      35.000  19.130   8.382  0.00  0.00    -0.650 OA
BRANCH   2   4
HETATM    4  O   UNK N   1      34.561  17.931   6.569  0.00  0.00    -0.776 OA
HETATM    5  H   UNK N   1      35.419  18.019   6.202  0.00  0.00     0.167 HD
ENDBRANCH   2   4
ENDBRANCH   1   2
BRANCH   1   6
HETATM    6  C   UNK N   1      33.596  16.179   9.090  0.00  0.00     0.086 C 
BRANCH   6   7
HETATM    7  S   UNK N   1      34.994  16.210  10.255  0.00  0.00    -0.181 SA
HETATM    8  H   UNK N   1      36.238  16.736  10.095  0.00  0.00     0.101 HD
ENDBRANCH   6   7
ENDBRANCH   1   6
BRANCH   1   9
HETATM    9  C   UNK N   1      31.977  17.480   7.688  0.00  0.00     0.020 C 
BRANCH   9  10
HETATM   10  C   UNK N   1      30.654  17.406   8.453  0.00  0.00    -0.022 C 
HETATM   11  C   UNK N   1      30.401  18.724   9.151  0.00  0.00     0.009 C 
HETATM   12  C   UNK N   1      29.486  17.112   7.529  0.00  0.00     0.009 C 
ENDBRANCH   9  10
ENDBRANCH   1   9
TORSDOF 6
ENDMDL
MODEL 2
REMARK VINA RESULT:      -4.1      2.584      3.385
REMARK  6 active torsions:
REMARK  status: ('A' for Active; 'I' for Inactive)
REMARK    1  A    between atoms: C_1  and  O_3 
REMARK    2  A    between atoms: C_1  and  C_4 
REMARK    3  A    between atoms: C_4  and  C_5 
REMARK    4  A    between atoms: C_4  and  C_7 
REMARK    5  A    between atoms: C_5  and  S_6 
REMARK    6  A    between atoms: C_7  and  C_8 
ROOT
HETATM    1  C   UNK N   1      33.369  17.942   7.598  0.00  0.00     0.093 C 
ENDROOT
BRANCH   1   2
HETATM    2  C   UNK N   1      34.504  18.163   8.572  0.00  0.00     0.144 C 
HETATM    3  O   UNK N   1      34.696  17.396   9.503  0.00  0.00    -0.650 OA
BRANCH   2   4
HETATM    4  O   UNK N   1      35.314  19.229   8.418  0.00  0.00    -0.776 OA
HETATM    5  H   UNK N   1      34.980  20.045   8.102  0.00  0.00     0.167 HD
ENDBRANCH   2   4
ENDBRANCH   1   2
BRANCH   1   6
HETATM    6  C   UNK N   1      32.337  16.932   8.118  0.00  0.00     0.086 C 
BRANCH   6   7
HETATM    7  S   UNK N   1      30.743  17.709   8.530  0.00  0.00    -0.181 SA
HETATM    8  H   UNK N   1      29.808  17.327   9.441  0.00  0.00     0.101 HD
ENDBRANCH   6   7
ENDBRANCH   1   6
BRANCH   1   9
HETATM    9  C   UNK N   1      33.948  17.445   6.269  0.00  0.00     0.020 C 
BRANCH   9  10
HETATM   10  C   UNK N   1      32.922  16.720   5.395  0.00  0.00    -0.022 C 
HETATM   11  C   UNK N   1      32.476  17.636   4.276  0.00  0.00     0.009 C 
HETATM   12  C   UNK N   1      33.496  15.453   4.788  0.00  0.00     0.009 C 
ENDBRANCH   9  10
ENDBRANCH   1   9
TORSDOF 6
ENDMDL
MODEL 3
REMARK VINA RESULT:      -4.0      8.698      9.620
REMARK  6 active torsions:
REMARK  status: ('A' for Active; 'I' for Inactive)
REMARK    1  A    between atoms: C_1  and  O_3 
REMARK    2  A    between atoms: C_1  and  C_4 
REMARK    3  A    between atoms: C_4  and  C_5 
REMARK    4  A    between atoms: C_4  and  C_7 
REMARK    5  A    between atoms: C_5  and  S_6 
REMARK    6  A    between atoms: C_7  and  C_8 
ROOT
HETATM    1  C   UNK N   1      36.532  13.071  15.375  0.00  0.00     0.093 C 
ENDROOT
BRANCH   1   2
HETATM    2  C   UNK N   1      37.021  14.476  15.101  0.00  0.00     0.144 C 
HETATM    3  O   UNK N   1      37.620  15.113  15.953  0.00  0.00    -0.650 OA
BRANCH   2   4
HETATM    4  O   UNK N   1      36.785  15.040  13.900  0.00  0.00    -0.776 OA
HETATM    5  H   UNK N   1      36.321  15.851  13.832  0.00  0.00     0.167 HD
ENDBRANCH   2   4
ENDBRANCH   1   2
BRANCH   1   6
HETATM    6  C   UNK N   1      36.664  12.155  14.151  0.00  0.00     0.086 C 
BRANCH   6   7
HETATM    7  S   UNK N   1      37.987  10.919  14.342  0.00  0.00    -0.181 SA
HETATM    8  H   UNK N   1      38.314   9.874  13.535  0.00  0.00     0.101 HD
ENDBRANCH   6   7
ENDBRANCH   1   6
BRANCH   1   9
HETATM    9  C   UNK N   1      35.065  13.136  15.812  0.00  0.00     0.020 C 
BRANCH   9  10
HETATM   10  C   UNK N   1      34.848  12.715  17.267  0.00  0.00    -0.022 C 
HETATM   11  C   UNK N   1      35.655  11.468  17.557  0.00  0.00     0.009 C 
HETATM   12  C   UNK N   1      35.271  13.805  18.236  0.00  0.00     0.009 C 
ENDBRANCH   9  10
ENDBRANCH   1   9
TORSDOF 6
ENDMDL
MODEL 4
REMARK VINA RESULT:      -4.0      7.834      9.270
REMARK  6 active torsions:
REMARK  status: ('A' for Active; 'I' for Inactive)
REMARK    1  A    between atoms: C_1  and  O_3 
REMARK    2  A    between atoms: C_1  and  C_4 
REMARK    3  A    between atoms: C_4  and  C_5 
REMARK    4  A    between atoms: C_4  and  C_7 
REMARK    5  A    between atoms: C_5  and  S_6 
REMARK    6  A    between atoms: C_7  and  C_8 
ROOT
HETATM    1  C   UNK N   1      35.812  12.627  14.707  0.00  0.00     0.093 C 
ENDROOT
BRANCH   1   2
HETATM    2  C   UNK N   1      35.788  13.807  13.762  0.00  0.00     0.144 C 
HETATM    3  O   UNK N   1      34.899  13.934  12.935  0.00  0.00    -0.650 OA
BRANCH   2   4
HETATM    4  O   UNK N   1      36.769  14.729  13.824  0.00  0.00    -0.776 OA
HETATM    5  H   UNK N   1      37.478  14.637  14.429  0.00  0.00     0.167 HD
ENDBRANCH   2   4
ENDBRANCH   1   2
BRANCH   1   6
HETATM    6  C   UNK N   1      35.378  11.321  14.029  0.00  0.00     0.086 C 
BRANCH   6   7
HETATM    7  S   UNK N   1      33.731  10.764  14.572  0.00  0.00    -0.181 SA
HETATM    8  H   UNK N   1      33.396   9.712  15.366  0.00  0.00     0.101 HD
ENDBRANCH   6   7
ENDBRANCH   1   6
BRANCH   1   9
HETATM    9  C   UNK N   1      34.884  12.923  15.890  0.00  0.00     0.020 C 
BRANCH   9  10
HETATM   10  C   UNK N   1      35.590  12.850  17.246  0.00  0.00    -0.022 C 
HETATM   11  C   UNK N   1      35.167  14.027  18.098  0.00  0.00     0.009 C 
HETATM   12  C   UNK N   1      35.254  11.568  17.986  0.00  0.00     0.009 C 
ENDBRANCH   9  10
ENDBRANCH   1   9
TORSDOF 6
ENDMDL
MODEL 5
REMARK VINA RESULT:      -3.7      7.594      9.054
REMARK  6 active torsions:
REMARK  status: ('A' for Active; 'I' for Inactive)
REMARK    1  A    between atoms: C_1  and  O_3 
REMARK    2  A    between atoms: C_1  and  C_4 
REMARK    3  A    between atoms: C_4  and  C_5 
REMARK    4  A    between atoms: C_4  and  C_7 
REMARK    5  A    between atoms: C_5  and  S_6 
REMARK    6  A    between atoms: C_7  and  C_8 
ROOT
HETATM    1  C   UNK N   1      35.418  12.782  14.723  0.00  0.00     0.093 C 
ENDROOT
BRANCH   1   2
HETATM    2  C   UNK N   1      35.637  13.598  13.469  0.00  0.00     0.144 C 
HETATM    3  O   UNK N   1      34.726  13.804  12.683  0.00  0.00    -0.650 OA
BRANCH   2   4
HETATM    4  O   UNK N   1      36.861  14.099  13.207  0.00  0.00    -0.776 OA
HETATM    5  H   UNK N   1      37.631  13.584  13.344  0.00  0.00     0.167 HD
ENDBRANCH   2   4
ENDBRANCH   1   2
BRANCH   1   6
HETATM    6  C   UNK N   1      36.090  13.405  15.954  0.00  0.00     0.086 C 
BRANCH   6   7
HETATM    7  S   UNK N   1      35.055  13.293  17.447  0.00  0.00    -0.181 SA
HETATM    8  H   UNK N   1      33.860  12.668  17.624  0.00  0.00     0.101 HD
ENDBRANCH   6   7
ENDBRANCH   1   6
BRANCH   1   9
HETATM    9  C   UNK N   1      35.969  11.371  14.497  0.00  0.00     0.020 C 
BRANCH   9  10
HETATM   10  C   UNK N   1      34.933  10.271  14.734  0.00  0.00    -0.022 C 
HETATM   11  C   UNK N   1      35.120   9.693  16.120  0.00  0.00     0.009 C 
HETATM   12  C   UNK N   1      33.515  10.799  14.614  0.00  0.00     0.009 C 
ENDBRANCH   9  10
ENDBRANCH   1   9
TORSDOF 6
ENDMDL
MODEL 6
REMARK VINA RESULT:      -3.7     11.770     12.292
REMARK  6 active torsions:
REMARK  status: ('A' for Active; 'I' for Inactive)
REMARK    1  A    between atoms: C_1  and  O_3 
REMARK    2  A    between atoms: C_1  and  C_4 
REMARK    3  A    between atoms: C_4  and  C_5 
REMARK    4  A    between atoms: C_4  and  C_7 
REMARK    5  A    between atoms: C_5  and  S_6 
REMARK    6  A    between atoms: C_7  and  C_8 
ROOT
HETATM    1  C   UNK N   1      42.910  21.614   3.276  0.00  0.00     0.093 C 
ENDROOT
BRANCH   1   2
HETATM    2  C   UNK N   1      43.813  22.582   4.007  0.00  0.00     0.144 C 
HETATM    3  O   UNK N   1      44.847  22.205   4.535  0.00  0.00    -0.650 OA
BRANCH   2   4
HETATM    4  O   UNK N   1      43.468  23.882   4.087  0.00  0.00    -0.776 OA
HETATM    5  H   UNK N   1      44.097  24.558   3.925  0.00  0.00     0.167 HD
ENDBRANCH   2   4
ENDBRANCH   1   2
BRANCH   1   6
HETATM    6  C   UNK N   1      43.552  20.232   3.097  0.00  0.00     0.086 C 
BRANCH   6   7
HETATM    7  S   UNK N   1      42.342  18.952   2.637  0.00  0.00    -0.181 SA
HETATM    8  H   UNK N   1      42.469  17.598   2.661  0.00  0.00     0.101 HD
ENDBRANCH   6   7
ENDBRANCH   1   6
BRANCH   1   9
HETATM    9  C   UNK N   1      42.564  22.201   1.904  0.00  0.00     0.020 C 
BRANCH   9  10
HETATM   10  C   UNK N   1      41.096  22.612   1.774  0.00  0.00    -0.022 C 
HETATM   11  C   UNK N   1      41.014  24.020   1.227  0.00  0.00     0.009 C 
HETATM   12  C   UNK N   1      40.333  21.684   0.846  0.00  0.00     0.009 C 
ENDBRANCH   9  10
ENDBRANCH   1   9
TORSDOF 6
ENDMDL
MODEL 7
REMARK VINA RESULT:      -3.7      4.883      5.908
REMARK  6 active torsions:
REMARK  status: ('A' for Active; 'I' for Inactive)
REMARK    1  A    between atoms: C_1  and  O_3 
REMARK    2  A    between atoms: C_1  and  C_4 
REMARK    3  A    between atoms: C_4  and  C_5 
REMARK    4  A    between atoms: C_4  and  C_7 
REMARK    5  A    between atoms: C_5  and  S_6 
REMARK    6  A    between atoms: C_7  and  C_8 
ROOT
HETATM    1  C   UNK N   1      27.912  18.116   6.916  0.00  0.00     0.093 C 
ENDROOT
BRANCH   1   2
HETATM    2  C   UNK N   1      28.322  18.434   8.336  0.00  0.00     0.144 C 
HETATM    3  O   UNK N   1      29.444  18.840   8.593  0.00  0.00    -0.650 OA
BRANCH   2   4
HETATM    4  O   UNK N   1      27.438  18.258   9.338  0.00  0.00    -0.776 OA
HETATM    5  H   UNK N   1      27.540  17.558   9.952  0.00  0.00     0.167 HD
ENDBRANCH   2   4
ENDBRANCH   1   2
BRANCH   1   6
HETATM    6  C   UNK N   1      28.620  16.872   6.365  0.00  0.00     0.086 C 
BRANCH   6   7
HETATM    7  S   UNK N   1      29.782  17.266   5.019  0.00  0.00    -0.181 SA
HETATM    8  H   UNK N   1      31.094  17.618   5.089  0.00  0.00     0.101 HD
ENDBRANCH   6   7
ENDBRANCH   1   6
BRANCH   1   9
HETATM    9  C   UNK N   1      28.231  19.323   6.027  0.00  0.00     0.020 C 
BRANCH   9  10
HETATM   10  C   UNK N   1      27.003  20.176   5.701  0.00  0.00    -0.022 C 
HETATM   11  C   UNK N   1      27.173  21.555   6.301  0.00  0.00     0.009 C 
HETATM   12  C   UNK N   1      26.798  20.318   4.204  0.00  0.00     0.009 C 
ENDBRANCH   9  10
ENDBRANCH   1   9
TORSDOF 6
ENDMDL
MODEL 8
REMARK VINA RESULT:      -3.6      2.710      3.243
REMARK  6 active torsions:
REMARK  status: ('A' for Active; 'I' for Inactive)
REMARK    1  A    between atoms: C_1  and  O_3 
REMARK    2  A    between atoms: C_1  and  C_4 
REMARK    3  A    between atoms: C_4  and  C_5 
REMARK    4  A    between atoms: C_4  and  C_7 
REMARK    5  A    between atoms: C_5  and  S_6 
REMARK    6  A    between atoms: C_7  and  C_8 
ROOT
HETATM    1  C   UNK N   1      33.539  16.804   6.537  0.00  0.00     0.093 C 
ENDROOT
BRANCH   1   2
HETATM    2  C   UNK N   1      33.806  17.757   7.680  0.00  0.00     0.144 C 
HETATM    3  O   UNK N   1      34.755  18.525   7.654  0.00  0.00    -0.650 OA
BRANCH   2   4
HETATM    4  O   UNK N   1      32.989  17.755   8.753  0.00  0.00    -0.776 OA
HETATM    5  H   UNK N   1      32.083  17.975   8.668  0.00  0.00     0.167 HD
ENDBRANCH   2   4
ENDBRANCH   1   2
BRANCH   1   6
HETATM    6  C   UNK N   1      34.627  15.731   6.401  0.00  0.00     0.086 C 
BRANCH   6   7
HETATM    7  S   UNK N   1      34.921  14.830   7.955  0.00  0.00    -0.181 SA
HETATM    8  H   UNK N   1      34.025  14.389   8.878  0.00  0.00     0.101 HD
ENDBRANCH   6   7
ENDBRANCH   1   6
BRANCH   1   9
HETATM    9  C   UNK N   1      33.444  17.607   5.236  0.00  0.00     0.020 C 
BRANCH   9  10
HETATM   10  C   UNK N   1      32.071  17.514   4.566  0.00  0.00    -0.022 C 
HETATM   11  C   UNK N   1      32.237  17.027   3.143  0.00  0.00     0.009 C 
HETATM   12  C   UNK N   1      31.150  16.560   5.303  0.00  0.00     0.009 C 
ENDBRANCH   9  10
ENDBRANCH   1   9
TORSDOF 6
ENDMDL
MODEL 9
REMARK VINA RESULT:      -3.6      8.749     10.159
REMARK  6 active torsions:
REMARK  status: ('A' for Active; 'I' for Inactive)
REMARK    1  A    between atoms: C_1  and  O_3 
REMARK    2  A    between atoms: C_1  and  C_4 
REMARK    3  A    between atoms: C_4  and  C_5 
REMARK    4  A    between atoms: C_4  and  C_7 
REMARK    5  A    between atoms: C_5  and  S_6 
REMARK    6  A    between atoms: C_7  and  C_8 
ROOT
HETATM    1  C   UNK N   1      34.853  12.262  14.927  0.00  0.00     0.093 C 
ENDROOT
BRANCH   1   2
HETATM    2  C   UNK N   1      34.193  10.902  14.908  0.00  0.00     0.144 C 
HETATM    3  O   UNK N   1      33.019  10.774  14.598  0.00  0.00    -0.650 OA
BRANCH   2   4
HETATM    4  O   UNK N   1      34.908   9.811  15.249  0.00  0.00    -0.776 OA
HETATM    5  H   UNK N   1      35.831   9.774  15.097  0.00  0.00     0.167 HD
ENDBRANCH   2   4
ENDBRANCH   1   2
BRANCH   1   6
HETATM    6  C   UNK N   1      35.670  12.537  13.657  0.00  0.00     0.086 C 
BRANCH   6   7
HETATM    7  S   UNK N   1      36.248  14.260  13.556  0.00  0.00    -0.181 SA
HETATM    8  H   UNK N   1      37.303  14.776  12.870  0.00  0.00     0.101 HD
ENDBRANCH   6   7
ENDBRANCH   1   6
BRANCH   1   9
HETATM    9  C   UNK N   1      35.768  12.350  16.153  0.00  0.00     0.020 C 
BRANCH   9  10
HETATM   10  C   UNK N   1      35.019  12.695  17.443  0.00  0.00    -0.022 C 
HETATM   11  C   UNK N   1      35.375  11.690  18.516  0.00  0.00     0.009 C 
HETATM   12  C   UNK N   1      35.370  14.085  17.941  0.00  0.00     0.009 C 
ENDBRANCH   9  10
ENDBRANCH   1   9
TORSDOF 6
ENDMDL
