REMARK  5 active torsions:
REMARK  status: ('A' for Active; 'I' for Inactive)
REMARK    1  A    between atoms: C_1  and  C_11 
REMARK    2  A    between atoms: C_2  and  C_3 
REMARK    3  A    between atoms: C_4  and  O_10 
REMARK    4  A    between atoms: C_8  and  O_9 
REMARK    5  A    between atoms: C_11  and  O_13 
ROOT
HETATM    1  C   UNK N   1       0.008  -0.090  -0.000  0.00  0.00    -0.003 A 
HETATM    2  C   UNK N   1       0.072  -1.493  -0.000  0.00  0.00     0.078 A 
HETATM    3  C   UNK N   1      -1.104  -2.246   0.000  0.00  0.00     0.073 A 
HETATM    4  C   UNK N   1      -1.243   0.547  -0.000  0.00  0.00     0.017 A 
HETATM    5  C   UNK N   1      -2.417  -0.213   0.000  0.00  0.00     0.037 A 
HETATM    6  C   UNK N   1      -2.346  -1.609   0.000  0.00  0.00     0.068 A 
ENDROOT
BRANCH   1   7
HETATM    7  C   UNK N   1       1.262   0.681  -0.000  0.00  0.00     0.021 C 
HETATM    8  C   UNK N   1       1.313   2.013   0.000  0.00  0.00     0.082 C 
BRANCH   8   9
HETATM    9  C   UNK N   1       2.617   2.688   0.000  0.00  0.00     0.165 C 
HETATM   10  O   UNK N   1       2.669   3.907   0.000  0.00  0.00    -0.647 OA
BRANCH   9  11
HETATM   11  O   UNK N   1       3.758   1.970  -0.000  0.00  0.00    -0.773 OA
HETATM   12  H   UNK N   1       3.722   1.034  -0.000  0.00  0.00     0.167 HD
ENDBRANCH   9  11
ENDBRANCH   8   9
ENDBRANCH   1   7
BRANCH   2  13
HETATM   13  O   UNK N   1       1.261  -2.122  -0.000  0.00  0.00    -0.360 OA
HETATM   14  H   UNK N   1       1.296  -3.058  -0.000  0.00  0.00     0.217 HD
ENDBRANCH   2  13
BRANCH   6  15
HETATM   15  O   UNK N   1      -3.472  -2.339   0.000  0.00  0.00    -0.361 OA
HETATM   16  H   UNK N   1      -4.307  -1.913   0.000  0.00  0.00     0.217 HD
ENDBRANCH   6  15
TORSDOF 5
