MODEL 1
REMARK VINA RESULT:      -5.4      0.000      0.000
REMARK  5 active torsions:
REMARK  status: ('A' for Active; 'I' for Inactive)
REMARK    1  A    between atoms: C_1  and  C_11 
REMARK    2  A    between atoms: C_2  and  C_3 
REMARK    3  A    between atoms: C_4  and  O_10 
REMARK    4  A    between atoms: C_8  and  O_9 
REMARK    5  A    between atoms: C_11  and  O_13 
ROOT
HETATM    1  C   UNK N   1      30.751  17.636   8.131  0.00  0.00    -0.003 A 
HETATM    2  C   UNK N   1      29.678  18.090   8.914  0.00  0.00     0.078 A 
HETATM    3  C   UNK N   1      28.368  17.953   8.451  0.00  0.00     0.073 A 
HETATM    4  C   UNK N   1      30.498  17.045   6.883  0.00  0.00     0.017 A 
HETATM    5  C   UNK N   1      29.183  16.910   6.425  0.00  0.00     0.037 A 
HETATM    6  C   UNK N   1      28.120  17.364   7.210  0.00  0.00     0.068 A 
ENDROOT
BRANCH   1   7
HETATM    7  C   UNK N   1      32.123  17.793   8.642  0.00  0.00     0.021 C 
HETATM    8  C   UNK N   1      33.176  18.058   7.868  0.00  0.00     0.082 C 
BRANCH   8   9
HETATM    9  C   UNK N   1      34.505  18.195   8.477  0.00  0.00     0.165 C 
HETATM   10  O   UNK N   1      35.297  19.007   8.027  0.00  0.00    -0.647 OA
BRANCH   9  11
HETATM   11  O   UNK N   1      34.857  17.431   9.530  0.00  0.00    -0.773 OA
HETATM   12  H   UNK N   1      34.197  17.018  10.050  0.00  0.00     0.167 HD
ENDBRANCH   9  11
ENDBRANCH   8   9
ENDBRANCH   1   7
BRANCH   2  13
HETATM   13  O   UNK N   1      29.900  18.660  10.113  0.00  0.00    -0.360 OA
HETATM   14  H   UNK N   1      30.689  18.471  10.582  0.00  0.00     0.217 HD
ENDBRANCH   2  13
BRANCH   6  15
HETATM   15  O   UNK N   1      26.858  17.235   6.771  0.00  0.00    -0.361 OA
HETATM   16  H   UNK N   1      26.563  16.415   6.427  0.00  0.00     0.217 HD
ENDBRANCH   6  15
TORSDOF 5
ENDMDL
MODEL 2
REMARK VINA RESULT:      -5.4     10.338     11.942
REMARK  5 active torsions:
REMARK  status: ('A' for Active; 'I' for Inactive)
REMARK    1  A    between atoms: C_1  and  C_11 
REMARK    2  A    between atoms: C_2  and  C_3 
REMARK    3  A    between atoms: C_4  and  O_10 
REMARK    4  A    between atoms: C_8  and  O_9 
REMARK    5  A    between atoms: C_11  and  O_13 
ROOT
HETATM    1  C   UNK N   1      35.225  12.627  17.378  0.00  0.00    -0.003 A 
HETATM    2  C   UNK N   1      35.236  13.361  18.575  0.00  0.00     0.078 A 
HETATM    3  C   UNK N   1      35.237  12.696  19.803  0.00  0.00     0.073 A 
HETATM    4  C   UNK N   1      35.215  11.224  17.425  0.00  0.00     0.017 A 
HETATM    5  C   UNK N   1      35.216  10.564  18.658  0.00  0.00     0.037 A 
HETATM    6  C   UNK N   1      35.227  11.301  19.846  0.00  0.00     0.068 A 
ENDROOT
BRANCH   1   7
HETATM    7  C   UNK N   1      35.225  13.352  16.097  0.00  0.00     0.021 C 
HETATM    8  C   UNK N   1      35.808  12.897  14.988  0.00  0.00     0.082 C 
BRANCH   8   9
HETATM    9  C   UNK N   1      35.750  13.698  13.759  0.00  0.00     0.165 C 
HETATM   10  O   UNK N   1      34.768  13.633  13.038  0.00  0.00    -0.647 OA
BRANCH   9  11
HETATM   11  O   UNK N   1      36.776  14.506  13.421  0.00  0.00    -0.773 OA
HETATM   12  H   UNK N   1      37.587  14.451  13.885  0.00  0.00     0.167 HD
ENDBRANCH   9  11
ENDBRANCH   8   9
ENDBRANCH   1   7
BRANCH   2  13
HETATM   13  O   UNK N   1      35.246  14.706  18.551  0.00  0.00    -0.360 OA
HETATM   14  H   UNK N   1      34.769  15.190  19.196  0.00  0.00     0.217 HD
ENDBRANCH   2  13
BRANCH   6  15
HETATM   15  O   UNK N   1      35.228  10.668  21.029  0.00  0.00    -0.361 OA
HETATM   16  H   UNK N   1      35.623  11.072  21.777  0.00  0.00     0.217 HD
ENDBRANCH   6  15
TORSDOF 5
ENDMDL
MODEL 3
REMARK VINA RESULT:      -5.2      9.893     11.689
REMARK  5 active torsions:
REMARK  status: ('A' for Active; 'I' for Inactive)
REMARK    1  A    between atoms: C_1  and  C_11 
REMARK    2  A    between atoms: C_2  and  C_3 
REMARK    3  A    between atoms: C_4  and  O_10 
REMARK    4  A    between atoms: C_8  and  O_9 
REMARK    5  A    between atoms: C_11  and  O_13 
ROOT
HETATM    1  C   UNK N   1      35.229  12.594  16.766  0.00  0.00    -0.003 A 
HETATM    2  C   UNK N   1      35.457  11.252  17.114  0.00  0.00     0.078 A 
HETATM    3  C   UNK N   1      35.544  10.884  18.459  0.00  0.00     0.073 A 
HETATM    4  C   UNK N   1      35.090  13.558  17.777  0.00  0.00     0.017 A 
HETATM    5  C   UNK N   1      35.179  13.183  19.121  0.00  0.00     0.037 A 
HETATM    6  C   UNK N   1      35.406  11.847  19.461  0.00  0.00     0.068 A 
ENDROOT
BRANCH   1   7
HETATM    7  C   UNK N   1      35.141  12.955  15.342  0.00  0.00     0.021 C 
HETATM    8  C   UNK N   1      36.122  13.557  14.668  0.00  0.00     0.082 C 
BRANCH   8   9
HETATM    9  C   UNK N   1      35.934  13.876  13.247  0.00  0.00     0.165 C 
HETATM   10  O   UNK N   1      34.809  13.912  12.777  0.00  0.00    -0.647 OA
BRANCH   9  11
HETATM   11  O   UNK N   1      36.997  14.130  12.458  0.00  0.00    -0.773 OA
HETATM   12  H   UNK N   1      37.553  13.429  12.182  0.00  0.00     0.167 HD
ENDBRANCH   9  11
ENDBRANCH   8   9
ENDBRANCH   1   7
BRANCH   2  13
HETATM   13  O   UNK N   1      35.593  10.313  16.161  0.00  0.00    -0.360 OA
HETATM   14  H   UNK N   1      35.751  10.566  15.273  0.00  0.00     0.217 HD
ENDBRANCH   2  13
BRANCH   6  15
HETATM   15  O   UNK N   1      35.491  11.486  20.750  0.00  0.00    -0.361 OA
HETATM   16  H   UNK N   1      35.032  10.728  21.057  0.00  0.00     0.217 HD
ENDBRANCH   6  15
TORSDOF 5
ENDMDL
MODEL 4
REMARK VINA RESULT:      -5.2      9.021     11.517
REMARK  5 active torsions:
REMARK  status: ('A' for Active; 'I' for Inactive)
REMARK    1  A    between atoms: C_1  and  C_11 
REMARK    2  A    between atoms: C_2  and  C_3 
REMARK    3  A    between atoms: C_4  and  O_10 
REMARK    4  A    between atoms: C_8  and  O_9 
REMARK    5  A    between atoms: C_11  and  O_13 
ROOT
HETATM    1  C   UNK N   1      21.970  13.361   9.836  0.00  0.00    -0.003 A 
HETATM    2  C   UNK N   1      21.858  12.515  10.951  0.00  0.00     0.078 A 
HETATM    3  C   UNK N   1      23.000  11.928  11.500  0.00  0.00     0.073 A 
HETATM    4  C   UNK N   1      23.234  13.611   9.279  0.00  0.00     0.017 A 
HETATM    5  C   UNK N   1      24.374  13.020   9.834  0.00  0.00     0.037 A 
HETATM    6  C   UNK N   1      24.255  12.179  10.944  0.00  0.00     0.068 A 
ENDROOT
BRANCH   1   7
HETATM    7  C   UNK N   1      20.751  13.968   9.275  0.00  0.00     0.021 C 
HETATM    8  C   UNK N   1      20.603  15.276   9.066  0.00  0.00     0.082 C 
BRANCH   8   9
HETATM    9  C   UNK N   1      19.346  15.781   8.502  0.00  0.00     0.165 C 
HETATM   10  O   UNK N   1      18.417  16.059   9.242  0.00  0.00    -0.647 OA
BRANCH   9  11
HETATM   11  O   UNK N   1      19.210  15.941   7.170  0.00  0.00    -0.773 OA
HETATM   12  H   UNK N   1      19.942  16.217   6.654  0.00  0.00     0.167 HD
ENDBRANCH   9  11
ENDBRANCH   8   9
ENDBRANCH   1   7
BRANCH   2  13
HETATM   13  O   UNK N   1      20.655  12.263  11.499  0.00  0.00    -0.360 OA
HETATM   14  H   UNK N   1      20.594  12.003  12.396  0.00  0.00     0.217 HD
ENDBRANCH   2  13
BRANCH   6  15
HETATM   15  O   UNK N   1      25.348  11.612  11.477  0.00  0.00    -0.361 OA
HETATM   16  H   UNK N   1      26.198  11.950  11.275  0.00  0.00     0.217 HD
ENDBRANCH   6  15
TORSDOF 5
ENDMDL
MODEL 5
REMARK VINA RESULT:      -5.2     15.011     16.846
REMARK  5 active torsions:
REMARK  status: ('A' for Active; 'I' for Inactive)
REMARK    1  A    between atoms: C_1  and  C_11 
REMARK    2  A    between atoms: C_2  and  C_3 
REMARK    3  A    between atoms: C_4  and  O_10 
REMARK    4  A    between atoms: C_8  and  O_9 
REMARK    5  A    between atoms: C_11  and  O_13 
ROOT
HETATM    1  C   UNK N   1      25.640  25.284  -5.165  0.00  0.00    -0.003 A 
HETATM    2  C   UNK N   1      26.232  25.383  -3.895  0.00  0.00     0.078 A 
HETATM    3  C   UNK N   1      26.313  26.623  -3.256  0.00  0.00     0.073 A 
HETATM    4  C   UNK N   1      25.132  26.437  -5.784  0.00  0.00     0.017 A 
HETATM    5  C   UNK N   1      25.216  27.675  -5.139  0.00  0.00     0.037 A 
HETATM    6  C   UNK N   1      25.806  27.766  -3.876  0.00  0.00     0.068 A 
ENDROOT
BRANCH   1   7
HETATM    7  C   UNK N   1      25.567  23.967  -5.817  0.00  0.00     0.021 C 
HETATM    8  C   UNK N   1      25.593  23.791  -7.138  0.00  0.00     0.082 C 
BRANCH   8   9
HETATM    9  C   UNK N   1      25.515  22.433  -7.690  0.00  0.00     0.165 C 
HETATM   10  O   UNK N   1      26.503  21.717  -7.682  0.00  0.00    -0.647 OA
BRANCH   9  11
HETATM   11  O   UNK N   1      24.359  21.971  -8.206  0.00  0.00    -0.773 OA
HETATM   12  H   UNK N   1      23.771  21.477  -7.669  0.00  0.00     0.167 HD
ENDBRANCH   9  11
ENDBRANCH   8   9
ENDBRANCH   1   7
BRANCH   2  13
HETATM   13  O   UNK N   1      26.725  24.291  -3.285  0.00  0.00    -0.360 OA
HETATM   14  H   UNK N   1      27.394  23.783  -3.700  0.00  0.00     0.217 HD
ENDBRANCH   2  13
BRANCH   6  15
HETATM   15  O   UNK N   1      25.887  28.954  -3.256  0.00  0.00    -0.361 OA
HETATM   16  H   UNK N   1      25.105  29.427  -3.045  0.00  0.00     0.217 HD
ENDBRANCH   6  15
TORSDOF 5
ENDMDL
MODEL 6
REMARK VINA RESULT:      -5.1     13.189     14.275
REMARK  5 active torsions:
REMARK  status: ('A' for Active; 'I' for Inactive)
REMARK    1  A    between atoms: C_1  and  C_11 
REMARK    2  A    between atoms: C_2  and  C_3 
REMARK    3  A    between atoms: C_4  and  O_10 
REMARK    4  A    between atoms: C_8  and  O_9 
REMARK    5  A    between atoms: C_11  and  O_13 
ROOT
HETATM    1  C   UNK N   1      28.009  23.792  -4.703  0.00  0.00    -0.003 A 
HETATM    2  C   UNK N   1      26.663  24.047  -4.393  0.00  0.00     0.078 A 
HETATM    3  C   UNK N   1      25.726  24.194  -5.417  0.00  0.00     0.073 A 
HETATM    4  C   UNK N   1      28.403  23.688  -6.046  0.00  0.00     0.017 A 
HETATM    5  C   UNK N   1      27.459  23.837  -7.067  0.00  0.00     0.037 A 
HETATM    6  C   UNK N   1      26.121  24.090  -6.752  0.00  0.00     0.068 A 
ENDROOT
BRANCH   1   7
HETATM    7  C   UNK N   1      28.977  23.641  -3.604  0.00  0.00     0.021 C 
HETATM    8  C   UNK N   1      29.822  22.615  -3.497  0.00  0.00     0.082 C 
BRANCH   8   9
HETATM    9  C   UNK N   1      30.750  22.557  -2.361  0.00  0.00     0.165 C 
HETATM   10  O   UNK N   1      30.461  23.109  -1.313  0.00  0.00    -0.647 OA
BRANCH   9  11
HETATM   11  O   UNK N   1      31.920  21.896  -2.469  0.00  0.00    -0.773 OA
HETATM   12  H   UNK N   1      32.056  21.297  -3.175  0.00  0.00     0.167 HD
ENDBRANCH   9  11
ENDBRANCH   8   9
ENDBRANCH   1   7
BRANCH   2  13
HETATM   13  O   UNK N   1      26.265  24.150  -3.112  0.00  0.00    -0.360 OA
HETATM   14  H   UNK N   1      26.433  24.936  -2.631  0.00  0.00     0.217 HD
ENDBRANCH   2  13
BRANCH   6  15
HETATM   15  O   UNK N   1      25.215  24.233  -7.731  0.00  0.00    -0.361 OA
HETATM   16  H   UNK N   1      25.491  24.246  -8.627  0.00  0.00     0.217 HD
ENDBRANCH   6  15
TORSDOF 5
ENDMDL
MODEL 7
REMARK VINA RESULT:      -5.1      7.282      9.250
REMARK  5 active torsions:
REMARK  status: ('A' for Active; 'I' for Inactive)
REMARK    1  A    between atoms: C_1  and  C_11 
REMARK    2  A    between atoms: C_2  and  C_3 
REMARK    3  A    between atoms: C_4  and  O_10 
REMARK    4  A    between atoms: C_8  and  O_9 
REMARK    5  A    between atoms: C_11  and  O_13 
ROOT
HETATM    1  C   UNK N   1      35.785  13.382  13.852  0.00  0.00    -0.003 A 
HETATM    2  C   UNK N   1      36.468  13.264  15.074  0.00  0.00     0.078 A 
HETATM    3  C   UNK N   1      36.090  12.285  15.994  0.00  0.00     0.073 A 
HETATM    4  C   UNK N   1      34.723  12.509  13.564  0.00  0.00     0.017 A 
HETATM    5  C   UNK N   1      34.350  11.530  14.491  0.00  0.00     0.037 A 
HETATM    6  C   UNK N   1      35.033  11.419  15.705  0.00  0.00     0.068 A 
ENDROOT
BRANCH   1   7
HETATM    7  C   UNK N   1      36.203  14.422  12.899  0.00  0.00     0.021 C 
HETATM    8  C   UNK N   1      35.362  15.068  12.090  0.00  0.00     0.082 C 
BRANCH   8   9
HETATM    9  C   UNK N   1      35.881  16.091  11.174  0.00  0.00     0.165 C 
HETATM   10  O   UNK N   1      35.155  17.001  10.807  0.00  0.00    -0.647 OA
BRANCH   9  11
HETATM   11  O   UNK N   1      37.154  16.033  10.734  0.00  0.00    -0.773 OA
HETATM   12  H   UNK N   1      37.566  15.202  10.602  0.00  0.00     0.167 HD
ENDBRANCH   9  11
ENDBRANCH   8   9
ENDBRANCH   1   7
BRANCH   2  13
HETATM   13  O   UNK N   1      37.488  14.090  15.368  0.00  0.00    -0.360 OA
HETATM   14  H   UNK N   1      38.326  13.738  15.594  0.00  0.00     0.217 HD
ENDBRANCH   2  13
BRANCH   6  15
HETATM   15  O   UNK N   1      34.675  10.480  16.594  0.00  0.00    -0.361 OA
HETATM   16  H   UNK N   1      33.969  10.642  17.188  0.00  0.00     0.217 HD
ENDBRANCH   6  15
TORSDOF 5
ENDMDL
MODEL 8
REMARK VINA RESULT:      -5.0     10.812     12.671
REMARK  5 active torsions:
REMARK  status: ('A' for Active; 'I' for Inactive)
REMARK    1  A    between atoms: C_1  and  C_11 
REMARK    2  A    between atoms: C_2  and  C_3 
REMARK    3  A    between atoms: C_4  and  O_10 
REMARK    4  A    between atoms: C_8  and  O_9 
REMARK    5  A    between atoms: C_11  and  O_13 
ROOT
HETATM    1  C   UNK N   1      20.497  17.831   3.262  0.00  0.00    -0.003 A 
HETATM    2  C   UNK N   1      19.669  18.833   2.729  0.00  0.00     0.078 A 
HETATM    3  C   UNK N   1      20.165  20.126   2.547  0.00  0.00     0.073 A 
HETATM    4  C   UNK N   1      21.822  18.138   3.608  0.00  0.00     0.017 A 
HETATM    5  C   UNK N   1      22.313  19.435   3.422  0.00  0.00     0.037 A 
HETATM    6  C   UNK N   1      21.483  20.427   2.892  0.00  0.00     0.068 A 
ENDROOT
BRANCH   1   7
HETATM    7  C   UNK N   1      19.950  16.477   3.444  0.00  0.00     0.021 C 
HETATM    8  C   UNK N   1      19.624  15.963   4.630  0.00  0.00     0.082 C 
BRANCH   8   9
HETATM    9  C   UNK N   1      19.085  14.599   4.705  0.00  0.00     0.165 C 
HETATM   10  O   UNK N   1      17.925  14.423   5.039  0.00  0.00    -0.647 OA
BRANCH   9  11
HETATM   11  O   UNK N   1      19.864  13.539   4.408  0.00  0.00    -0.773 OA
HETATM   12  H   UNK N   1      19.567  12.898   3.793  0.00  0.00     0.167 HD
ENDBRANCH   9  11
ENDBRANCH   8   9
ENDBRANCH   1   7
BRANCH   2  13
HETATM   13  O   UNK N   1      18.396  18.558   2.392  0.00  0.00    -0.360 OA
HETATM   14  H   UNK N   1      17.874  19.208   1.965  0.00  0.00     0.217 HD
ENDBRANCH   2  13
BRANCH   6  15
HETATM   15  O   UNK N   1      21.953  21.671   2.714  0.00  0.00    -0.361 OA
HETATM   16  H   UNK N   1      22.061  22.242   3.450  0.00  0.00     0.217 HD
ENDBRANCH   6  15
TORSDOF 5
ENDMDL
MODEL 9
REMARK VINA RESULT:      -4.9      9.891     11.041
REMARK  5 active torsions:
REMARK  status: ('A' for Active; 'I' for Inactive)
REMARK    1  A    between atoms: C_1  and  C_11 
REMARK    2  A    between atoms: C_2  and  C_3 
REMARK    3  A    between atoms: C_4  and  O_10 
REMARK    4  A    between atoms: C_8  and  O_9 
REMARK    5  A    between atoms: C_11  and  O_13 
ROOT
HETATM    1  C   UNK N   1      21.380  14.352   8.876  0.00  0.00    -0.003 A 
HETATM    2  C   UNK N   1      20.506  13.765   9.806  0.00  0.00     0.078 A 
HETATM    3  C   UNK N   1      20.936  12.689  10.585  0.00  0.00     0.073 A 
HETATM    4  C   UNK N   1      22.684  13.850   8.736  0.00  0.00     0.017 A 
HETATM    5  C   UNK N   1      23.108  12.772   9.520  0.00  0.00     0.037 A 
HETATM    6  C   UNK N   1      22.233  12.193  10.444  0.00  0.00     0.068 A 
ENDROOT
BRANCH   1   7
HETATM    7  C   UNK N   1      20.903  15.485   8.066  0.00  0.00     0.021 C 
HETATM    8  C   UNK N   1      21.666  16.147   7.196  0.00  0.00     0.082 C 
BRANCH   8   9
HETATM    9  C   UNK N   1      21.094  17.266   6.436  0.00  0.00     0.165 C 
HETATM   10  O   UNK N   1      20.478  17.046   5.406  0.00  0.00    -0.647 OA
BRANCH   9  11
HETATM   11  O   UNK N   1      21.244  18.534   6.868  0.00  0.00    -0.773 OA
HETATM   12  H   UNK N   1      21.754  19.141   6.369  0.00  0.00     0.167 HD
ENDBRANCH   9  11
ENDBRANCH   8   9
ENDBRANCH   1   7
BRANCH   2  13
HETATM   13  O   UNK N   1      19.253  14.231   9.954  0.00  0.00    -0.360 OA
HETATM   14  H   UNK N   1      18.782  14.553   9.211  0.00  0.00     0.217 HD
ENDBRANCH   2  13
BRANCH   6  15
HETATM   15  O   UNK N   1      22.639  11.158  11.196  0.00  0.00    -0.361 OA
HETATM   16  H   UNK N   1      22.630  10.290  10.844  0.00  0.00     0.217 HD
ENDBRANCH   6  15
TORSDOF 5
ENDMDL
