MODEL 1
REMARK VINA RESULT:      -5.6      0.000      0.000
REMARK  8 active torsions:
REMARK  status: ('A' for Active; 'I' for Inactive)
REMARK    1  A    between atoms: C_1  and  N_19 
REMARK    2  A    between atoms: C_3  and  C_11 
REMARK    3  A    between atoms: C_4  and  N_17 
REMARK    4  A    between atoms: C_6  and  N_18 
REMARK    5  A    between atoms: C_7  and  C_9 
REMARK    6  A    between atoms: C_7  and  N_19 
REMARK    7  A    between atoms: C_8  and  C_10 
REMARK    8  A    between atoms: C_8  and  N_19 
REMARK       I    between atoms: C_11  and  N_20 
ROOT
HETATM    1  C   UNK N   1      29.917  17.504   7.083  0.00  0.00     0.064 A 
HETATM    2  C   UNK N   1      30.823  17.234   6.045  0.00  0.00     0.051 A 
HETATM    3  C   UNK N   1      32.221  17.251   6.192  0.00  0.00     0.067 A 
HETATM    4  C   UNK N   1      32.755  17.569   7.489  0.00  0.00     0.121 A 
HETATM    5  C   UNK N   1      31.849  17.821   8.525  0.00  0.00     0.075 A 
HETATM    6  C   UNK N   1      30.457  17.780   8.379  0.00  0.00     0.131 A 
ENDROOT
BRANCH   1   7
HETATM    7  N   UNK N   1      28.511  17.548   6.746  0.00  0.00    -0.377 N 
BRANCH   7   8
HETATM    8  C   UNK N   1      27.973  18.718   6.072  0.00  0.00     0.138 C 
BRANCH   8   9
HETATM    9  C   UNK N   1      27.668  19.841   7.050  0.00  0.00     0.134 C 
HETATM   10 Cl   UNK N   1      27.503  21.367   6.151  0.00  0.00    -0.129 Cl
ENDBRANCH   8   9
ENDBRANCH   7   8
BRANCH   7  11
HETATM   11  C   UNK N   1      27.573  16.550   7.222  0.00  0.00     0.138 C 
BRANCH  11  12
HETATM   12  C   UNK N   1      26.970  15.775   6.058  0.00  0.00     0.134 C 
HETATM   13 Cl   UNK N   1      28.224  14.770   5.296  0.00  0.00    -0.129 Cl
ENDBRANCH  11  12
ENDBRANCH   7  11
ENDBRANCH   1   7
BRANCH   6  14
HETATM   14  N   UNK N   1      29.676  17.941   9.567  0.00  0.00    -0.113 N 
HETATM   15  O   UNK N   1      29.676  18.996  10.127  0.00  0.00    -0.532 OA
HETATM   16  O   UNK N   1      29.281  16.884  10.241  0.00  0.00    -0.532 OA
ENDBRANCH   6  14
BRANCH   3  17
HETATM   17  C   UNK N   1      32.992  16.956   4.933  0.00  0.00     0.252 C 
HETATM   18  O   UNK N   1      32.831  17.588   3.908  0.00  0.00    -0.268 OA
HETATM   19  N   UNK N   1      33.863  15.924   4.917  0.00  0.00    -0.366 N 
HETATM   20  H   UNK N   1      34.479  15.784   4.162  0.00  0.00     0.159 HD
HETATM   21  H   UNK N   1      33.882  15.298   5.677  0.00  0.00     0.159 HD
ENDBRANCH   3  17
BRANCH   4  22
HETATM   22  N   UNK N   1      34.149  17.612   7.843  0.00  0.00    -0.115 N 
HETATM   23  O   UNK N   1      34.823  16.486   7.940  0.00  0.00    -0.532 OA
HETATM   24  O   UNK N   1      34.740  18.638   7.958  0.00  0.00    -0.532 OA
ENDBRANCH   4  22
TORSDOF 8
ENDMDL
MODEL 2
REMARK VINA RESULT:      -5.6      0.889      2.780
REMARK  8 active torsions:
REMARK  status: ('A' for Active; 'I' for Inactive)
REMARK    1  A    between atoms: C_1  and  N_19 
REMARK    2  A    between atoms: C_3  and  C_11 
REMARK    3  A    between atoms: C_4  and  N_17 
REMARK    4  A    between atoms: C_6  and  N_18 
REMARK    5  A    between atoms: C_7  and  C_9 
REMARK    6  A    between atoms: C_7  and  N_19 
REMARK    7  A    between atoms: C_8  and  C_10 
REMARK    8  A    between atoms: C_8  and  N_19 
REMARK       I    between atoms: C_11  and  N_20 
ROOT
HETATM    1  C   UNK N   1      30.116  17.515   7.040  0.00  0.00     0.064 A 
HETATM    2  C   UNK N   1      31.156  17.231   6.141  0.00  0.00     0.051 A 
HETATM    3  C   UNK N   1      32.523  17.311   6.461  0.00  0.00     0.067 A 
HETATM    4  C   UNK N   1      32.876  17.713   7.797  0.00  0.00     0.121 A 
HETATM    5  C   UNK N   1      31.836  17.979   8.695  0.00  0.00     0.075 A 
HETATM    6  C   UNK N   1      30.476  17.875   8.377  0.00  0.00     0.131 A 
ENDROOT
BRANCH   1   7
HETATM    7  N   UNK N   1      28.765  17.486   6.527  0.00  0.00    -0.377 N 
BRANCH   7   8
HETATM    8  C   UNK N   1      28.037  16.228   6.497  0.00  0.00     0.138 C 
BRANCH   8   9
HETATM    9  C   UNK N   1      27.811  15.742   5.074  0.00  0.00     0.134 C 
HETATM   10 Cl   UNK N   1      27.644  13.970   5.085  0.00  0.00    -0.129 Cl
ENDBRANCH   8   9
ENDBRANCH   7   8
BRANCH   7  11
HETATM   11  C   UNK N   1      28.167  18.629   5.864  0.00  0.00     0.138 C 
BRANCH  11  12
HETATM   12  C   UNK N   1      27.663  19.643   6.882  0.00  0.00     0.134 C 
HETATM   13 Cl   UNK N   1      27.599  21.256   6.137  0.00  0.00    -0.129 Cl
ENDBRANCH  11  12
ENDBRANCH   7  11
ENDBRANCH   1   7
BRANCH   6  14
HETATM   14  N   UNK N   1      29.545  18.062   9.447  0.00  0.00    -0.113 N 
HETATM   15  O   UNK N   1      29.698  18.975  10.202  0.00  0.00    -0.532 OA
HETATM   16  O   UNK N   1      28.777  17.067   9.830  0.00  0.00    -0.532 OA
ENDBRANCH   6  14
BRANCH   3  17
HETATM   17  C   UNK N   1      33.458  16.986   5.328  0.00  0.00     0.252 C 
HETATM   18  O   UNK N   1      34.533  16.447   5.505  0.00  0.00    -0.268 OA
HETATM   19  N   UNK N   1      33.123  17.344   4.070  0.00  0.00    -0.366 N 
HETATM   20  H   UNK N   1      33.640  17.032   3.293  0.00  0.00     0.159 HD
HETATM   21  H   UNK N   1      32.344  17.929   3.927  0.00  0.00     0.159 HD
ENDBRANCH   3  17
BRANCH   4  22
HETATM   22  N   UNK N   1      34.210  17.829   8.321  0.00  0.00    -0.115 N 
HETATM   23  O   UNK N   1      34.963  18.841   7.947  0.00  0.00    -0.532 OA
HETATM   24  O   UNK N   1      34.625  17.092   9.158  0.00  0.00    -0.532 OA
ENDBRANCH   4  22
TORSDOF 8
ENDMDL
MODEL 3
REMARK VINA RESULT:      -5.5      2.160      5.063
REMARK  8 active torsions:
REMARK  status: ('A' for Active; 'I' for Inactive)
REMARK    1  A    between atoms: C_1  and  N_19 
REMARK    2  A    between atoms: C_3  and  C_11 
REMARK    3  A    between atoms: C_4  and  N_17 
REMARK    4  A    between atoms: C_6  and  N_18 
REMARK    5  A    between atoms: C_7  and  C_9 
REMARK    6  A    between atoms: C_7  and  N_19 
REMARK    7  A    between atoms: C_8  and  C_10 
REMARK    8  A    between atoms: C_8  and  N_19 
REMARK       I    between atoms: C_11  and  N_20 
ROOT
HETATM    1  C   UNK N   1      31.947  17.107   6.390  0.00  0.00     0.064 A 
HETATM    2  C   UNK N   1      30.563  17.094   6.156  0.00  0.00     0.051 A 
HETATM    3  C   UNK N   1      29.594  17.406   7.126  0.00  0.00     0.067 A 
HETATM    4  C   UNK N   1      30.053  17.757   8.444  0.00  0.00     0.121 A 
HETATM    5  C   UNK N   1      31.434  17.786   8.668  0.00  0.00     0.075 A 
HETATM    6  C   UNK N   1      32.395  17.497   7.692  0.00  0.00     0.131 A 
ENDROOT
BRANCH   1   7
HETATM    7  N   UNK N   1      32.809  16.661   5.318  0.00  0.00    -0.377 N 
BRANCH   7   8
HETATM    8  C   UNK N   1      32.858  17.418   4.077  0.00  0.00     0.138 C 
BRANCH   8   9
HETATM    9  C   UNK N   1      32.522  16.551   2.875  0.00  0.00     0.134 C 
HETATM   10 Cl   UNK N   1      30.754  16.431   2.721  0.00  0.00    -0.129 Cl
ENDBRANCH   8   9
ENDBRANCH   7   8
BRANCH   7  11
HETATM   11  C   UNK N   1      33.488  15.382   5.356  0.00  0.00     0.138 C 
BRANCH  11  12
HETATM   12  C   UNK N   1      32.587  14.307   5.948  0.00  0.00     0.134 C 
HETATM   13 Cl   UNK N   1      31.719  13.469   4.641  0.00  0.00    -0.129 Cl
ENDBRANCH  11  12
ENDBRANCH   7  11
ENDBRANCH   1   7
BRANCH   6  14
HETATM   14  N   UNK N   1      33.766  17.693   8.054  0.00  0.00    -0.113 N 
HETATM   15  O   UNK N   1      34.092  17.564   9.196  0.00  0.00    -0.532 OA
HETATM   16  O   UNK N   1      34.566  18.362   7.256  0.00  0.00    -0.532 OA
ENDBRANCH   6  14
BRANCH   3  17
HETATM   17  C   UNK N   1      28.169  17.299   6.654  0.00  0.00     0.252 C 
HETATM   18  O   UNK N   1      27.719  16.279   6.168  0.00  0.00    -0.268 OA
HETATM   19  N   UNK N   1      27.365  18.381   6.724  0.00  0.00    -0.366 N 
HETATM   20  H   UNK N   1      26.398  18.314   6.552  0.00  0.00     0.159 HD
HETATM   21  H   UNK N   1      27.754  19.256   6.952  0.00  0.00     0.159 HD
ENDBRANCH   3  17
BRANCH   4  22
HETATM   22  N   UNK N   1      29.223  18.131   9.558  0.00  0.00    -0.115 N 
HETATM   23  O   UNK N   1      28.068  17.525   9.731  0.00  0.00    -0.532 OA
HETATM   24  O   UNK N   1      29.588  18.903  10.386  0.00  0.00    -0.532 OA
ENDBRANCH   4  22
TORSDOF 8
ENDMDL
MODEL 4
REMARK VINA RESULT:      -5.4      2.068      5.252
REMARK  8 active torsions:
REMARK  status: ('A' for Active; 'I' for Inactive)
REMARK    1  A    between atoms: C_1  and  N_19 
REMARK    2  A    between atoms: C_3  and  C_11 
REMARK    3  A    between atoms: C_4  and  N_17 
REMARK    4  A    between atoms: C_6  and  N_18 
REMARK    5  A    between atoms: C_7  and  C_9 
REMARK    6  A    between atoms: C_7  and  N_19 
REMARK    7  A    between atoms: C_8  and  C_10 
REMARK    8  A    between atoms: C_8  and  N_19 
REMARK       I    between atoms: C_11  and  N_20 
ROOT
HETATM    1  C   UNK N   1      31.775  17.072   6.303  0.00  0.00     0.064 A 
HETATM    2  C   UNK N   1      30.385  17.148   6.124  0.00  0.00     0.051 A 
HETATM    3  C   UNK N   1      29.476  17.510   7.133  0.00  0.00     0.067 A 
HETATM    4  C   UNK N   1      30.007  17.820   8.434  0.00  0.00     0.121 A 
HETATM    5  C   UNK N   1      31.395  17.760   8.604  0.00  0.00     0.075 A 
HETATM    6  C   UNK N   1      32.298  17.421   7.588  0.00  0.00     0.131 A 
ENDROOT
BRANCH   1   7
HETATM    7  N   UNK N   1      32.565  16.583   5.195  0.00  0.00    -0.377 N 
BRANCH   7   8
HETATM    8  C   UNK N   1      33.299  15.335   5.334  0.00  0.00     0.138 C 
BRANCH   8   9
HETATM    9  C   UNK N   1      32.443  14.245   5.957  0.00  0.00     0.134 C 
HETATM   10 Cl   UNK N   1      31.160  13.788   4.813  0.00  0.00    -0.129 Cl
ENDBRANCH   8   9
ENDBRANCH   7   8
BRANCH   7  11
HETATM   11  C   UNK N   1      32.809  17.382   4.010  0.00  0.00     0.138 C 
BRANCH  11  12
HETATM   12  C   UNK N   1      32.379  16.635   2.755  0.00  0.00     0.134 C 
HETATM   13 Cl   UNK N   1      30.605  16.539   2.694  0.00  0.00    -0.129 Cl
ENDBRANCH  11  12
ENDBRANCH   7  11
ENDBRANCH   1   7
BRANCH   6  14
HETATM   14  N   UNK N   1      33.691  17.527   7.898  0.00  0.00    -0.113 N 
HETATM   15  O   UNK N   1      34.374  18.274   7.263  0.00  0.00    -0.532 OA
HETATM   16  O   UNK N   1      34.286  16.577   8.582  0.00  0.00    -0.532 OA
ENDBRANCH   6  14
BRANCH   3  17
HETATM   17  C   UNK N   1      28.030  17.497   6.716  0.00  0.00     0.252 C 
HETATM   18  O   UNK N   1      27.569  18.308   5.937  0.00  0.00    -0.268 OA
HETATM   19  N   UNK N   1      27.194  16.584   7.255  0.00  0.00    -0.366 N 
HETATM   20  H   UNK N   1      26.281  16.458   6.911  0.00  0.00     0.159 HD
HETATM   21  H   UNK N   1      27.505  16.033   8.009  0.00  0.00     0.159 HD
ENDBRANCH   3  17
BRANCH   4  22
HETATM   22  N   UNK N   1      29.246  18.234   9.582  0.00  0.00    -0.115 N 
HETATM   23  O   UNK N   1      28.081  17.670   9.820  0.00  0.00    -0.532 OA
HETATM   24  O   UNK N   1      29.677  19.003  10.381  0.00  0.00    -0.532 OA
ENDBRANCH   4  22
TORSDOF 8
ENDMDL
MODEL 5
REMARK VINA RESULT:      -5.3      7.882     10.728
REMARK  8 active torsions:
REMARK  status: ('A' for Active; 'I' for Inactive)
REMARK    1  A    between atoms: C_1  and  N_19 
REMARK    2  A    between atoms: C_3  and  C_11 
REMARK    3  A    between atoms: C_4  and  N_17 
REMARK    4  A    between atoms: C_6  and  N_18 
REMARK    5  A    between atoms: C_7  and  C_9 
REMARK    6  A    between atoms: C_7  and  N_19 
REMARK    7  A    between atoms: C_8  and  C_10 
REMARK    8  A    between atoms: C_8  and  N_19 
REMARK       I    between atoms: C_11  and  N_20 
ROOT
HETATM    1  C   UNK N   1      21.813  16.973   6.043  0.00  0.00     0.064 A 
HETATM    2  C   UNK N   1      20.959  17.610   6.957  0.00  0.00     0.051 A 
HETATM    3  C   UNK N   1      20.347  16.969   8.047  0.00  0.00     0.067 A 
HETATM    4  C   UNK N   1      20.611  15.566   8.234  0.00  0.00     0.121 A 
HETATM    5  C   UNK N   1      21.476  14.938   7.332  0.00  0.00     0.075 A 
HETATM    6  C   UNK N   1      22.102  15.588   6.261  0.00  0.00     0.131 A 
ENDROOT
BRANCH   1   7
HETATM    7  N   UNK N   1      22.281  17.747   4.915  0.00  0.00    -0.377 N 
BRANCH   7   8
HETATM    8  C   UNK N   1      21.578  17.660   3.645  0.00  0.00     0.138 C 
BRANCH   8   9
HETATM    9  C   UNK N   1      20.973  18.995   3.244  0.00  0.00     0.134 C 
HETATM   10 Cl   UNK N   1      19.289  18.740   2.731  0.00  0.00    -0.129 Cl
ENDBRANCH   8   9
ENDBRANCH   7   8
BRANCH   7  11
HETATM   11  C   UNK N   1      23.539  18.466   4.942  0.00  0.00     0.138 C 
BRANCH  11  12
HETATM   12  C   UNK N   1      24.535  17.855   3.965  0.00  0.00     0.134 C 
HETATM   13 Cl   UNK N   1      25.477  19.147   3.186  0.00  0.00    -0.129 Cl
ENDBRANCH  11  12
ENDBRANCH   7  11
ENDBRANCH   1   7
BRANCH   6  14
HETATM   14  N   UNK N   1      23.053  14.828   5.508  0.00  0.00    -0.113 N 
HETATM   15  O   UNK N   1      22.663  14.081   4.660  0.00  0.00    -0.532 OA
HETATM   16  O   UNK N   1      24.269  14.654   5.972  0.00  0.00    -0.532 OA
ENDBRANCH   6  14
BRANCH   3  17
HETATM   17  C   UNK N   1      19.451  17.848   8.876  0.00  0.00     0.252 C 
HETATM   18  O   UNK N   1      19.873  18.797   9.508  0.00  0.00    -0.268 OA
HETATM   19  N   UNK N   1      18.136  17.555   8.966  0.00  0.00    -0.366 N 
HETATM   20  H   UNK N   1      17.499  18.178   9.385  0.00  0.00     0.159 HD
HETATM   21  H   UNK N   1      17.807  16.700   8.606  0.00  0.00     0.159 HD
ENDBRANCH   3  17
BRANCH   4  22
HETATM   22  N   UNK N   1      20.102  14.744   9.299  0.00  0.00    -0.115 N 
HETATM   23  O   UNK N   1      20.947  14.088  10.066  0.00  0.00    -0.532 OA
HETATM   24  O   UNK N   1      18.945  14.712   9.573  0.00  0.00    -0.532 OA
ENDBRANCH   4  22
TORSDOF 8
ENDMDL
MODEL 6
REMARK VINA RESULT:      -5.3     12.398     13.833
REMARK  8 active torsions:
REMARK  status: ('A' for Active; 'I' for Inactive)
REMARK    1  A    between atoms: C_1  and  N_19 
REMARK    2  A    between atoms: C_3  and  C_11 
REMARK    3  A    between atoms: C_4  and  N_17 
REMARK    4  A    between atoms: C_6  and  N_18 
REMARK    5  A    between atoms: C_7  and  C_9 
REMARK    6  A    between atoms: C_7  and  N_19 
REMARK    7  A    between atoms: C_8  and  C_10 
REMARK    8  A    between atoms: C_8  and  N_19 
REMARK       I    between atoms: C_11  and  N_20 
ROOT
HETATM    1  C   UNK N   1      28.183  23.854  -5.557  0.00  0.00     0.064 A 
HETATM    2  C   UNK N   1      29.265  22.998  -5.813  0.00  0.00     0.051 A 
HETATM    3  C   UNK N   1      30.159  22.538  -4.830  0.00  0.00     0.067 A 
HETATM    4  C   UNK N   1      29.952  22.979  -3.476  0.00  0.00     0.121 A 
HETATM    5  C   UNK N   1      28.862  23.818  -3.222  0.00  0.00     0.075 A 
HETATM    6  C   UNK N   1      27.961  24.254  -4.201  0.00  0.00     0.131 A 
ENDROOT
BRANCH   1   7
HETATM    7  N   UNK N   1      27.417  24.319  -6.692  0.00  0.00    -0.377 N 
BRANCH   7   8
HETATM    8  C   UNK N   1      27.327  25.745  -6.959  0.00  0.00     0.138 C 
BRANCH   8   9
HETATM    9  C   UNK N   1      25.961  26.131  -7.505  0.00  0.00     0.134 C 
HETATM   10 Cl   UNK N   1      25.035  26.951  -6.227  0.00  0.00    -0.129 Cl
ENDBRANCH   8   9
ENDBRANCH   7   8
BRANCH   7  11
HETATM   11  C   UNK N   1      26.577  23.431  -7.471  0.00  0.00     0.138 C 
BRANCH  11  12
HETATM   12  C   UNK N   1      25.641  22.640  -6.568  0.00  0.00     0.134 C 
HETATM   13 Cl   UNK N   1      24.906  21.308  -7.488  0.00  0.00    -0.129 Cl
ENDBRANCH  11  12
ENDBRANCH   7  11
ENDBRANCH   1   7
BRANCH   6  14
HETATM   14  N   UNK N   1      26.831  25.009  -3.752  0.00  0.00    -0.113 N 
HETATM   15  O   UNK N   1      25.736  24.544  -3.865  0.00  0.00    -0.532 OA
HETATM   16  O   UNK N   1      26.935  26.307  -3.579  0.00  0.00    -0.532 OA
ENDBRANCH   6  14
BRANCH   3  17
HETATM   17  C   UNK N   1      31.260  21.649  -5.343  0.00  0.00     0.252 C 
HETATM   18  O   UNK N   1      32.157  22.065  -6.050  0.00  0.00    -0.268 OA
HETATM   19  N   UNK N   1      31.235  20.330  -5.053  0.00  0.00    -0.366 N 
HETATM   20  H   UNK N   1      32.001  19.746  -5.255  0.00  0.00     0.159 HD
HETATM   21  H   UNK N   1      30.434  19.946  -4.631  0.00  0.00     0.159 HD
ENDBRANCH   3  17
BRANCH   4  22
HETATM   22  N   UNK N   1      30.739  22.600  -2.333  0.00  0.00    -0.115 N 
HETATM   23  O   UNK N   1      31.846  21.912  -2.513  0.00  0.00    -0.532 OA
HETATM   24  O   UNK N   1      30.475  22.971  -1.234  0.00  0.00    -0.532 OA
ENDBRANCH   4  22
TORSDOF 8
ENDMDL
MODEL 7
REMARK VINA RESULT:      -5.3      7.312      9.315
REMARK  8 active torsions:
REMARK  status: ('A' for Active; 'I' for Inactive)
REMARK    1  A    between atoms: C_1  and  N_19 
REMARK    2  A    between atoms: C_3  and  C_11 
REMARK    3  A    between atoms: C_4  and  N_17 
REMARK    4  A    between atoms: C_6  and  N_18 
REMARK    5  A    between atoms: C_7  and  C_9 
REMARK    6  A    between atoms: C_7  and  N_19 
REMARK    7  A    between atoms: C_8  and  C_10 
REMARK    8  A    between atoms: C_8  and  N_19 
REMARK       I    between atoms: C_11  and  N_20 
ROOT
HETATM    1  C   UNK N   1      22.232  18.303   3.598  0.00  0.00     0.064 A 
HETATM    2  C   UNK N   1      23.435  17.706   4.006  0.00  0.00     0.051 A 
HETATM    3  C   UNK N   1      24.683  18.354   3.997  0.00  0.00     0.067 A 
HETATM    4  C   UNK N   1      24.727  19.716   3.535  0.00  0.00     0.121 A 
HETATM    5  C   UNK N   1      23.524  20.313   3.145  0.00  0.00     0.075 A 
HETATM    6  C   UNK N   1      22.280  19.670   3.178  0.00  0.00     0.131 A 
ENDROOT
BRANCH   1   7
HETATM    7  N   UNK N   1      21.050  17.470   3.569  0.00  0.00    -0.377 N 
BRANCH   7   8
HETATM    8  C   UNK N   1      20.275  17.285   4.786  0.00  0.00     0.138 C 
BRANCH   8   9
HETATM    9  C   UNK N   1      19.468  15.998   4.749  0.00  0.00     0.134 C 
HETATM   10 Cl   UNK N   1      19.982  14.951   6.093  0.00  0.00    -0.129 Cl
ENDBRANCH   8   9
ENDBRANCH   7   8
BRANCH   7  11
HETATM   11  C   UNK N   1      20.707  16.657   2.419  0.00  0.00     0.138 C 
BRANCH  11  12
HETATM   12  C   UNK N   1      19.971  17.482   1.373  0.00  0.00     0.134 C 
HETATM   13 Cl   UNK N   1      19.412  16.421   0.060  0.00  0.00    -0.129 Cl
ENDBRANCH  11  12
ENDBRANCH   7  11
ENDBRANCH   1   7
BRANCH   6  14
HETATM   14  N   UNK N   1      21.132  20.464   2.862  0.00  0.00    -0.113 N 
HETATM   15  O   UNK N   1      21.141  21.138   1.876  0.00  0.00    -0.532 OA
HETATM   16  O   UNK N   1      20.255  20.752   3.798  0.00  0.00    -0.532 OA
ENDBRANCH   6  14
BRANCH   3  17
HETATM   17  C   UNK N   1      25.839  17.506   4.454  0.00  0.00     0.252 C 
HETATM   18  O   UNK N   1      26.267  16.579   3.795  0.00  0.00    -0.268 OA
HETATM   19  N   UNK N   1      26.398  17.743   5.660  0.00  0.00    -0.366 N 
HETATM   20  H   UNK N   1      27.235  17.302   5.933  0.00  0.00     0.159 HD
HETATM   21  H   UNK N   1      25.960  18.371   6.278  0.00  0.00     0.159 HD
ENDBRANCH   3  17
BRANCH   4  22
HETATM   22  N   UNK N   1      25.897  20.551   3.475  0.00  0.00    -0.115 N 
HETATM   23  O   UNK N   1      26.644  20.690   4.549  0.00  0.00    -0.532 OA
HETATM   24  O   UNK N   1      26.267  21.046   2.459  0.00  0.00    -0.532 OA
ENDBRANCH   4  22
TORSDOF 8
ENDMDL
MODEL 8
REMARK VINA RESULT:      -5.3      2.643      3.836
REMARK  8 active torsions:
REMARK  status: ('A' for Active; 'I' for Inactive)
REMARK    1  A    between atoms: C_1  and  N_19 
REMARK    2  A    between atoms: C_3  and  C_11 
REMARK    3  A    between atoms: C_4  and  N_17 
REMARK    4  A    between atoms: C_6  and  N_18 
REMARK    5  A    between atoms: C_7  and  C_9 
REMARK    6  A    between atoms: C_7  and  N_19 
REMARK    7  A    between atoms: C_8  and  C_10 
REMARK    8  A    between atoms: C_8  and  N_19 
REMARK       I    between atoms: C_11  and  N_20 
ROOT
HETATM    1  C   UNK N   1      31.288  16.958   6.547  0.00  0.00     0.064 A 
HETATM    2  C   UNK N   1      32.241  17.575   7.373  0.00  0.00     0.051 A 
HETATM    3  C   UNK N   1      33.555  17.108   7.551  0.00  0.00     0.067 A 
HETATM    4  C   UNK N   1      33.945  15.918   6.842  0.00  0.00     0.121 A 
HETATM    5  C   UNK N   1      32.998  15.315   6.007  0.00  0.00     0.075 A 
HETATM    6  C   UNK N   1      31.698  15.799   5.815  0.00  0.00     0.131 A 
ENDROOT
BRANCH   1   7
HETATM    7  N   UNK N   1      29.949  17.503   6.551  0.00  0.00    -0.377 N 
BRANCH   7   8
HETATM    8  C   UNK N   1      29.071  17.236   7.680  0.00  0.00     0.138 C 
BRANCH   8   9
HETATM    9  C   UNK N   1      28.690  18.513   8.410  0.00  0.00     0.134 C 
HETATM   10 Cl   UNK N   1      29.713  18.683   9.855  0.00  0.00    -0.129 Cl
ENDBRANCH   8   9
ENDBRANCH   7   8
BRANCH   7  11
HETATM   11  C   UNK N   1      29.376  18.150   5.388  0.00  0.00     0.138 C 
BRANCH  11  12
HETATM   12  C   UNK N   1      28.116  17.427   4.931  0.00  0.00     0.134 C 
HETATM   13 Cl   UNK N   1      27.146  18.508   3.904  0.00  0.00    -0.129 Cl
ENDBRANCH  11  12
ENDBRANCH   7  11
ENDBRANCH   1   7
BRANCH   6  14
HETATM   14  N   UNK N   1      30.898  15.134   4.832  0.00  0.00    -0.113 N 
HETATM   15  O   UNK N   1      30.902  15.536   3.707  0.00  0.00    -0.532 OA
HETATM   16  O   UNK N   1      29.903  14.362   5.207  0.00  0.00    -0.532 OA
ENDBRANCH   6  14
BRANCH   3  17
HETATM   17  C   UNK N   1      34.390  17.917   8.506  0.00  0.00     0.252 C 
HETATM   18  O   UNK N   1      34.869  18.992   8.202  0.00  0.00    -0.268 OA
HETATM   19  N   UNK N   1      34.662  17.420   9.732  0.00  0.00    -0.366 N 
HETATM   20  H   UNK N   1      35.087  17.973  10.427  0.00  0.00     0.159 HD
HETATM   21  H   UNK N   1      34.430  16.486   9.935  0.00  0.00     0.159 HD
ENDBRANCH   3  17
BRANCH   4  22
HETATM   22  N   UNK N   1      35.244  15.302   6.873  0.00  0.00    -0.115 N 
HETATM   23  O   UNK N   1      35.601  14.605   7.932  0.00  0.00    -0.532 OA
HETATM   24  O   UNK N   1      35.973  15.319   5.934  0.00  0.00    -0.532 OA
ENDBRANCH   4  22
TORSDOF 8
ENDMDL
MODEL 9
REMARK VINA RESULT:      -5.2      8.129     10.247
REMARK  8 active torsions:
REMARK  status: ('A' for Active; 'I' for Inactive)
REMARK    1  A    between atoms: C_1  and  N_19 
REMARK    2  A    between atoms: C_3  and  C_11 
REMARK    3  A    between atoms: C_4  and  N_17 
REMARK    4  A    between atoms: C_6  and  N_18 
REMARK    5  A    between atoms: C_7  and  C_9 
REMARK    6  A    between atoms: C_7  and  N_19 
REMARK    7  A    between atoms: C_8  and  C_10 
REMARK    8  A    between atoms: C_8  and  N_19 
REMARK       I    between atoms: C_11  and  N_20 
ROOT
HETATM    1  C   UNK N   1      36.019  12.905  13.377  0.00  0.00     0.064 A 
HETATM    2  C   UNK N   1      35.488  14.010  12.693  0.00  0.00     0.051 A 
HETATM    3  C   UNK N   1      35.975  14.488  11.465  0.00  0.00     0.067 A 
HETATM    4  C   UNK N   1      37.092  13.801  10.873  0.00  0.00     0.121 A 
HETATM    5  C   UNK N   1      37.607  12.689  11.549  0.00  0.00     0.075 A 
HETATM    6  C   UNK N   1      37.103  12.203  12.761  0.00  0.00     0.131 A 
ENDROOT
BRANCH   1   7
HETATM    7  N   UNK N   1      35.472  12.602  14.681  0.00  0.00    -0.377 N 
BRANCH   7   8
HETATM    8  C   UNK N   1      34.168  11.966  14.781  0.00  0.00     0.138 C 
BRANCH   8   9
HETATM    9  C   UNK N   1      34.240  10.481  14.463  0.00  0.00     0.134 C 
HETATM   10 Cl   UNK N   1      33.760  10.226  12.769  0.00  0.00    -0.129 Cl
ENDBRANCH   8   9
ENDBRANCH   7   8
BRANCH   7  11
HETATM   11  C   UNK N   1      36.088  13.076  15.905  0.00  0.00     0.138 C 
BRANCH  11  12
HETATM   12  C   UNK N   1      35.043  13.285  16.992  0.00  0.00     0.134 C 
HETATM   13 Cl   UNK N   1      35.269  12.078  18.278  0.00  0.00    -0.129 Cl
ENDBRANCH  11  12
ENDBRANCH   7  11
ENDBRANCH   1   7
BRANCH   6  14
HETATM   14  N   UNK N   1      37.666  10.983  13.255  0.00  0.00    -0.113 N 
HETATM   15  O   UNK N   1      37.217   9.941  12.884  0.00  0.00    -0.532 OA
HETATM   16  O   UNK N   1      38.383  10.990  14.356  0.00  0.00    -0.532 OA
ENDBRANCH   6  14
BRANCH   3  17
HETATM   17  C   UNK N   1      35.265  15.704  10.933  0.00  0.00     0.252 C 
HETATM   18  O   UNK N   1      35.850  16.736  10.667  0.00  0.00    -0.268 OA
HETATM   19  N   UNK N   1      33.923  15.676  10.788  0.00  0.00    -0.366 N 
HETATM   20  H   UNK N   1      33.442  16.397  10.321  0.00  0.00     0.159 HD
HETATM   21  H   UNK N   1      33.414  14.918  11.156  0.00  0.00     0.159 HD
ENDBRANCH   3  17
BRANCH   4  22
HETATM   22  N   UNK N   1      37.713  14.121   9.616  0.00  0.00    -0.115 N 
HETATM   23  O   UNK N   1      37.089  13.822   8.495  0.00  0.00    -0.532 OA
HETATM   24  O   UNK N   1      38.730  14.735   9.551  0.00  0.00    -0.532 OA
ENDBRANCH   4  22
TORSDOF 8
ENDMDL
