REMARK  5 active torsions:
REMARK  status: ('A' for Active; 'I' for Inactive)
REMARK    1  A    between atoms: C_6  and  C_10 
REMARK    2  A    between atoms: C_10  and  C_11 
REMARK    3  A    between atoms: C_11  and  C_12 
REMARK    4  A    between atoms: C_12  and  C_13 
REMARK    5  A    between atoms: C_13  and  O_14 
ROOT
HETATM    1  C   UNK N   1      -3.128   1.170  -0.099  0.00  0.00     0.316 C 
HETATM    2  N   UNK N   1      -3.666  -0.046   0.112  0.00  0.00    -0.336 N 
HETATM    3  C   UNK N   1      -2.589  -0.989  -0.026  0.00  0.00     0.119 C 
HETATM    4  C   UNK N   1      -1.387  -0.142   0.336  0.00  0.00     0.123 C 
HETATM    5  N   UNK N   1      -1.781   1.159  -0.136  0.00  0.00    -0.335 N 
HETATM    6  C   UNK N   1      -0.212  -0.951  -0.155  0.00  0.00     0.072 C 
HETATM    7  S   UNK N   1      -0.630  -2.628   0.522  0.00  0.00    -0.160 SA
HETATM    8  C   UNK N   1      -2.413  -2.205   0.835  0.00  0.00     0.101 C 
HETATM    9  O   UNK N   1      -3.795   2.180  -0.244  0.00  0.00    -0.247 OA
HETATM   10  H   UNK N   1      -4.607  -0.248   0.320  0.00  0.00     0.164 HD
HETATM   11  H   UNK N   1      -1.189   1.890  -0.426  0.00  0.00     0.164 HD
ENDROOT
BRANCH   6  12
HETATM   12  C   UNK N   1       1.107  -0.477   0.441  0.00  0.00     0.018 C 
BRANCH  12  13
HETATM   13  C   UNK N   1       1.735   0.651  -0.361  0.00  0.00     0.012 C 
BRANCH  13  14
HETATM   14  C   UNK N   1       3.173   0.900   0.098  0.00  0.00     0.110 C 
BRANCH  14  15
HETATM   15  C   UNK N   1       4.107  -0.270  -0.095  0.00  0.00     0.139 C 
HETATM   16  O   UNK N   1       3.697  -1.344  -0.509  0.00  0.00    -0.650 OA
BRANCH  15  17
HETATM   17  O   UNK N   1       5.412  -0.128   0.200  0.00  0.00    -0.776 OA
HETATM   18  H   UNK N   1       5.952  -0.866   0.405  0.00  0.00     0.167 HD
ENDBRANCH  15  17
ENDBRANCH  14  15
ENDBRANCH  13  14
ENDBRANCH  12  13
ENDBRANCH   6  12
TORSDOF 5
