MODEL 1
REMARK VINA RESULT:      -5.4      0.000      0.000
REMARK  5 active torsions:
REMARK  status: ('A' for Active; 'I' for Inactive)
REMARK    1  A    between atoms: C_6  and  C_10 
REMARK    2  A    between atoms: C_10  and  C_11 
REMARK    3  A    between atoms: C_11  and  C_12 
REMARK    4  A    between atoms: C_12  and  C_13 
REMARK    5  A    between atoms: C_13  and  O_14 
ROOT
HETATM    1  C   UNK N   1      20.964  20.501   1.697  0.00  0.00     0.316 C 
HETATM    2  N   UNK N   1      22.028  20.603   2.515  0.00  0.00    -0.336 N 
HETATM    3  C   UNK N   1      21.865  19.580   3.513  0.00  0.00     0.119 C 
HETATM    4  C   UNK N   1      21.026  18.558   2.775  0.00  0.00     0.123 C 
HETATM    5  N   UNK N   1      20.235  19.387   1.905  0.00  0.00    -0.335 N 
HETATM    6  C   UNK N   1      20.505  17.658   3.868  0.00  0.00     0.072 C 
HETATM    7  S   UNK N   1      22.060  17.331   4.828  0.00  0.00    -0.160 SA
HETATM    8  C   UNK N   1      22.986  18.753   4.070  0.00  0.00     0.101 C 
HETATM    9  O   UNK N   1      20.687  21.336   0.853  0.00  0.00    -0.247 OA
HETATM   10  H   UNK N   1      22.770  21.247   2.444  0.00  0.00     0.164 HD
HETATM   11  H   UNK N   1      19.344  19.183   1.539  0.00  0.00     0.164 HD
ENDROOT
BRANCH   6  12
HETATM   12  C   UNK N   1      19.957  16.344   3.325  0.00  0.00     0.018 C 
BRANCH  12  13
HETATM   13  C   UNK N   1      20.802  15.787   2.191  0.00  0.00     0.012 C 
BRANCH  13  14
HETATM   14  C   UNK N   1      19.913  15.348   1.026  0.00  0.00     0.110 C 
BRANCH  14  15
HETATM   15  C   UNK N   1      19.475  16.466   0.111  0.00  0.00     0.139 C 
HETATM   16  O   UNK N   1      20.284  17.253  -0.358  0.00  0.00    -0.650 OA
BRANCH  15  17
HETATM   17  O   UNK N   1      18.170  16.602  -0.186  0.00  0.00    -0.776 OA
HETATM   18  H   UNK N   1      17.587  17.082   0.369  0.00  0.00     0.167 HD
ENDBRANCH  15  17
ENDBRANCH  14  15
ENDBRANCH  13  14
ENDBRANCH  12  13
ENDBRANCH   6  12
TORSDOF 5
ENDMDL
MODEL 2
REMARK VINA RESULT:      -5.2      8.916      9.828
REMARK  5 active torsions:
REMARK  status: ('A' for Active; 'I' for Inactive)
REMARK    1  A    between atoms: C_6  and  C_10 
REMARK    2  A    between atoms: C_10  and  C_11 
REMARK    3  A    between atoms: C_11  and  C_12 
REMARK    4  A    between atoms: C_12  and  C_13 
REMARK    5  A    between atoms: C_13  and  O_14 
ROOT
HETATM    1  C   UNK N   1      23.701  12.140  12.101  0.00  0.00     0.316 C 
HETATM    2  N   UNK N   1      24.809  12.330  11.359  0.00  0.00    -0.336 N 
HETATM    3  C   UNK N   1      24.367  12.411   9.993  0.00  0.00     0.119 C 
HETATM    4  C   UNK N   1      22.946  12.910  10.157  0.00  0.00     0.123 C 
HETATM    5  N   UNK N   1      22.559  12.314  11.408  0.00  0.00    -0.335 N 
HETATM    6  C   UNK N   1      22.314  12.651   8.811  0.00  0.00     0.072 C 
HETATM    7  S   UNK N   1      23.608  13.343   7.674  0.00  0.00    -0.160 SA
HETATM    8  C   UNK N   1      24.937  13.352   8.974  0.00  0.00     0.101 C 
HETATM    9  O   UNK N   1      23.731  11.840  13.282  0.00  0.00    -0.247 OA
HETATM   10  H   UNK N   1      25.735  12.399  11.687  0.00  0.00     0.164 HD
HETATM   11  H   UNK N   1      21.647  12.081  11.697  0.00  0.00     0.164 HD
ENDROOT
BRANCH   6  12
HETATM   12  C   UNK N   1      21.012  13.418   8.626  0.00  0.00     0.018 C 
BRANCH  12  13
HETATM   13  C   UNK N   1      21.040  14.781   9.298  0.00  0.00     0.012 C 
BRANCH  13  14
HETATM   14  C   UNK N   1      20.769  15.888   8.277  0.00  0.00     0.110 C 
BRANCH  14  15
HETATM   15  C   UNK N   1      19.679  16.855   8.671  0.00  0.00     0.139 C 
HETATM   16  O   UNK N   1      19.942  18.001   9.004  0.00  0.00    -0.650 OA
BRANCH  15  17
HETATM   17  O   UNK N   1      18.398  16.445   8.661  0.00  0.00    -0.776 OA
HETATM   18  H   UNK N   1      18.132  15.677   8.195  0.00  0.00     0.167 HD
ENDBRANCH  15  17
ENDBRANCH  14  15
ENDBRANCH  13  14
ENDBRANCH  12  13
ENDBRANCH   6  12
TORSDOF 5
ENDMDL
MODEL 3
REMARK VINA RESULT:      -5.2     16.794     18.563
REMARK  5 active torsions:
REMARK  status: ('A' for Active; 'I' for Inactive)
REMARK    1  A    between atoms: C_6  and  C_10 
REMARK    2  A    between atoms: C_10  and  C_11 
REMARK    3  A    between atoms: C_11  and  C_12 
REMARK    4  A    between atoms: C_12  and  C_13 
REMARK    5  A    between atoms: C_13  and  O_14 
ROOT
HETATM    1  C   UNK N   1      36.973  14.540  15.044  0.00  0.00     0.316 C 
HETATM    2  N   UNK N   1      36.450  13.304  14.934  0.00  0.00    -0.336 N 
HETATM    3  C   UNK N   1      35.656  13.311  13.735  0.00  0.00     0.119 C 
HETATM    4  C   UNK N   1      36.336  14.391  12.919  0.00  0.00     0.123 C 
HETATM    5  N   UNK N   1      36.801  15.293  13.939  0.00  0.00    -0.335 N 
HETATM    6  C   UNK N   1      35.337  14.709  11.834  0.00  0.00     0.072 C 
HETATM    7  S   UNK N   1      34.886  13.003  11.258  0.00  0.00    -0.160 SA
HETATM    8  C   UNK N   1      35.571  12.166  12.769  0.00  0.00     0.101 C 
HETATM    9  O   UNK N   1      37.544  14.938  16.044  0.00  0.00    -0.247 OA
HETATM   10  H   UNK N   1      36.585  12.548  15.550  0.00  0.00     0.164 HD
HETATM   11  H   UNK N   1      36.960  16.260  13.849  0.00  0.00     0.164 HD
ENDROOT
BRANCH   6  12
HETATM   12  C   UNK N   1      35.961  15.486  10.682  0.00  0.00     0.018 C 
BRANCH  12  13
HETATM   13  C   UNK N   1      35.296  16.835  10.464  0.00  0.00     0.012 C 
BRANCH  13  14
HETATM   14  C   UNK N   1      34.569  16.864   9.118  0.00  0.00     0.110 C 
BRANCH  14  15
HETATM   15  C   UNK N   1      34.790  18.119   8.310  0.00  0.00     0.139 C 
HETATM   16  O   UNK N   1      35.299  19.111   8.810  0.00  0.00    -0.650 OA
BRANCH  15  17
HETATM   17  O   UNK N   1      34.412  18.147   7.019  0.00  0.00    -0.776 OA
HETATM   18  H   UNK N   1      35.038  18.095   6.323  0.00  0.00     0.167 HD
ENDBRANCH  15  17
ENDBRANCH  14  15
ENDBRANCH  13  14
ENDBRANCH  12  13
ENDBRANCH   6  12
TORSDOF 5
ENDMDL
MODEL 4
REMARK VINA RESULT:      -5.1     17.877     19.503
REMARK  5 active torsions:
REMARK  status: ('A' for Active; 'I' for Inactive)
REMARK    1  A    between atoms: C_6  and  C_10 
REMARK    2  A    between atoms: C_10  and  C_11 
REMARK    3  A    between atoms: C_11  and  C_12 
REMARK    4  A    between atoms: C_12  and  C_13 
REMARK    5  A    between atoms: C_13  and  O_14 
ROOT
HETATM    1  C   UNK N   1      36.979  14.596  15.297  0.00  0.00     0.316 C 
HETATM    2  N   UNK N   1      36.228  13.735  16.010  0.00  0.00    -0.336 N 
HETATM    3  C   UNK N   1      35.388  13.056  15.061  0.00  0.00     0.119 C 
HETATM    4  C   UNK N   1      36.215  13.145  13.795  0.00  0.00     0.123 C 
HETATM    5  N   UNK N   1      36.894  14.403  13.966  0.00  0.00    -0.335 N 
HETATM    6  C   UNK N   1      35.238  12.800  12.698  0.00  0.00     0.072 C 
HETATM    7  S   UNK N   1      34.445  11.275  13.398  0.00  0.00    -0.160 SA
HETATM    8  C   UNK N   1      35.038  11.599  15.130  0.00  0.00     0.101 C 
HETATM    9  O   UNK N   1      37.667  15.464  15.806  0.00  0.00    -0.247 OA
HETATM   10  H   UNK N   1      36.251  13.599  16.985  0.00  0.00     0.164 HD
HETATM   11  H   UNK N   1      37.227  14.999  13.257  0.00  0.00     0.164 HD
ENDROOT
BRANCH   6  12
HETATM   12  C   UNK N   1      35.936  12.455  11.389  0.00  0.00     0.018 C 
BRANCH  12  13
HETATM   13  C   UNK N   1      35.813  13.562  10.355  0.00  0.00     0.012 C 
BRANCH  13  14
HETATM   14  C   UNK N   1      34.975  14.718  10.904  0.00  0.00     0.110 C 
BRANCH  14  15
HETATM   15  C   UNK N   1      35.682  16.052  10.928  0.00  0.00     0.139 C 
HETATM   16  O   UNK N   1      35.059  17.099  10.842  0.00  0.00    -0.650 OA
BRANCH  15  17
HETATM   17  O   UNK N   1      37.023  16.086  11.040  0.00  0.00    -0.776 OA
HETATM   18  H   UNK N   1      37.472  16.859  11.321  0.00  0.00     0.167 HD
ENDBRANCH  15  17
ENDBRANCH  14  15
ENDBRANCH  13  14
ENDBRANCH  12  13
ENDBRANCH   6  12
TORSDOF 5
ENDMDL
MODEL 5
REMARK VINA RESULT:      -4.9     15.924     17.684
REMARK  5 active torsions:
REMARK  status: ('A' for Active; 'I' for Inactive)
REMARK    1  A    between atoms: C_6  and  C_10 
REMARK    2  A    between atoms: C_10  and  C_11 
REMARK    3  A    between atoms: C_11  and  C_12 
REMARK    4  A    between atoms: C_12  and  C_13 
REMARK    5  A    between atoms: C_13  and  O_14 
ROOT
HETATM    1  C   UNK N   1      35.121  12.906  12.974  0.00  0.00     0.316 C 
HETATM    2  N   UNK N   1      36.423  12.639  12.758  0.00  0.00    -0.336 N 
HETATM    3  C   UNK N   1      36.628  12.771  11.341  0.00  0.00     0.119 C 
HETATM    4  C   UNK N   1      35.536  13.749  10.959  0.00  0.00     0.123 C 
HETATM    5  N   UNK N   1      34.495  13.420  11.897  0.00  0.00    -0.335 N 
HETATM    6  C   UNK N   1      35.453  13.632   9.457  0.00  0.00     0.072 C 
HETATM    7  S   UNK N   1      37.247  13.739   8.995  0.00  0.00    -0.160 SA
HETATM    8  C   UNK N   1      37.850  13.375  10.715  0.00  0.00     0.101 C 
HETATM    9  O   UNK N   1      34.565  12.701  14.039  0.00  0.00    -0.247 OA
HETATM   10  H   UNK N   1      37.098  12.402  13.434  0.00  0.00     0.164 HD
HETATM   11  H   UNK N   1      33.526  13.544  11.777  0.00  0.00     0.164 HD
ENDROOT
BRANCH   6  12
HETATM   12  C   UNK N   1      34.695  14.793   8.827  0.00  0.00     0.018 C 
BRANCH  12  13
HETATM   13  C   UNK N   1      35.029  16.126   9.478  0.00  0.00     0.012 C 
BRANCH  13  14
HETATM   14  C   UNK N   1      34.038  17.203   9.033  0.00  0.00     0.110 C 
BRANCH  14  15
HETATM   15  C   UNK N   1      34.603  18.219   8.070  0.00  0.00     0.139 C 
HETATM   16  O   UNK N   1      34.448  18.100   6.864  0.00  0.00    -0.650 OA
BRANCH  15  17
HETATM   17  O   UNK N   1      35.294  19.270   8.549  0.00  0.00    -0.776 OA
HETATM   18  H   UNK N   1      35.667  19.913   7.979  0.00  0.00     0.167 HD
ENDBRANCH  15  17
ENDBRANCH  14  15
ENDBRANCH  13  14
ENDBRANCH  12  13
ENDBRANCH   6  12
TORSDOF 5
ENDMDL
MODEL 6
REMARK VINA RESULT:      -4.9     12.632     14.383
REMARK  5 active torsions:
REMARK  status: ('A' for Active; 'I' for Inactive)
REMARK    1  A    between atoms: C_6  and  C_10 
REMARK    2  A    between atoms: C_10  and  C_11 
REMARK    3  A    between atoms: C_11  and  C_12 
REMARK    4  A    between atoms: C_12  and  C_13 
REMARK    5  A    between atoms: C_13  and  O_14 
ROOT
HETATM    1  C   UNK N   1      34.398  14.447  11.090  0.00  0.00     0.316 C 
HETATM    2  N   UNK N   1      35.122  14.051  10.026  0.00  0.00    -0.336 N 
HETATM    3  C   UNK N   1      34.419  14.527   8.865  0.00  0.00     0.119 C 
HETATM    4  C   UNK N   1      33.680  15.727   9.420  0.00  0.00     0.123 C 
HETATM    5  N   UNK N   1      33.422  15.321  10.777  0.00  0.00    -0.335 N 
HETATM    6  C   UNK N   1      32.643  16.033   8.368  0.00  0.00     0.072 C 
HETATM    7  S   UNK N   1      33.677  15.984   6.828  0.00  0.00    -0.160 SA
HETATM    8  C   UNK N   1      35.084  15.081   7.640  0.00  0.00     0.101 C 
HETATM    9  O   UNK N   1      34.606  14.051  12.224  0.00  0.00    -0.247 OA
HETATM   10  H   UNK N   1      35.963  13.540  10.040  0.00  0.00     0.164 HD
HETATM   11  H   UNK N   1      32.685  15.621  11.356  0.00  0.00     0.164 HD
ENDROOT
BRANCH   6  12
HETATM   12  C   UNK N   1      32.043  17.423   8.534  0.00  0.00     0.018 C 
BRANCH  12  13
HETATM   13  C   UNK N   1      30.560  17.459   8.201  0.00  0.00     0.012 C 
BRANCH  13  14
HETATM   14  C   UNK N   1      29.786  18.218   9.280  0.00  0.00     0.110 C 
BRANCH  14  15
HETATM   15  C   UNK N   1      28.289  18.033   9.229  0.00  0.00     0.139 C 
HETATM   16  O   UNK N   1      27.763  17.021   9.667  0.00  0.00    -0.650 OA
BRANCH  15  17
HETATM   17  O   UNK N   1      27.523  18.997   8.686  0.00  0.00    -0.776 OA
HETATM   18  H   UNK N   1      26.611  19.071   8.889  0.00  0.00     0.167 HD
ENDBRANCH  15  17
ENDBRANCH  14  15
ENDBRANCH  13  14
ENDBRANCH  12  13
ENDBRANCH   6  12
TORSDOF 5
ENDMDL
MODEL 7
REMARK VINA RESULT:      -4.9      9.184     11.230
REMARK  5 active torsions:
REMARK  status: ('A' for Active; 'I' for Inactive)
REMARK    1  A    between atoms: C_6  and  C_10 
REMARK    2  A    between atoms: C_10  and  C_11 
REMARK    3  A    between atoms: C_11  and  C_12 
REMARK    4  A    between atoms: C_12  and  C_13 
REMARK    5  A    between atoms: C_13  and  O_14 
ROOT
HETATM    1  C   UNK N   1      26.923  20.181   6.485  0.00  0.00     0.316 C 
HETATM    2  N   UNK N   1      26.311  19.203   5.791  0.00  0.00    -0.336 N 
HETATM    3  C   UNK N   1      27.298  18.177   5.592  0.00  0.00     0.119 C 
HETATM    4  C   UNK N   1      28.219  18.399   6.773  0.00  0.00     0.123 C 
HETATM    5  N   UNK N   1      28.131  19.823   6.961  0.00  0.00    -0.335 N 
HETATM    6  C   UNK N   1      29.462  17.622   6.415  0.00  0.00     0.072 C 
HETATM    7  S   UNK N   1      28.725  16.007   5.873  0.00  0.00    -0.160 SA
HETATM    8  C   UNK N   1      27.015  16.705   5.660  0.00  0.00     0.101 C 
HETATM    9  O   UNK N   1      26.432  21.283   6.662  0.00  0.00    -0.247 OA
HETATM   10  H   UNK N   1      25.375  19.192   5.484  0.00  0.00     0.164 HD
HETATM   11  H   UNK N   1      28.813  20.413   7.357  0.00  0.00     0.164 HD
ENDROOT
BRANCH   6  12
HETATM   12  C   UNK N   1      30.366  17.389   7.618  0.00  0.00     0.018 C 
BRANCH  12  13
HETATM   13  C   UNK N   1      31.825  17.223   7.226  0.00  0.00     0.012 C 
BRANCH  13  14
HETATM   14  C   UNK N   1      32.733  17.969   8.205  0.00  0.00     0.110 C 
BRANCH  14  15
HETATM   15  C   UNK N   1      34.119  18.260   7.682  0.00  0.00     0.139 C 
HETATM   16  O   UNK N   1      34.508  17.784   6.626  0.00  0.00    -0.650 OA
BRANCH  15  17
HETATM   17  O   UNK N   1      34.939  19.054   8.394  0.00  0.00    -0.776 OA
HETATM   18  H   UNK N   1      34.940  19.984   8.284  0.00  0.00     0.167 HD
ENDBRANCH  15  17
ENDBRANCH  14  15
ENDBRANCH  13  14
ENDBRANCH  12  13
ENDBRANCH   6  12
TORSDOF 5
ENDMDL
MODEL 8
REMARK VINA RESULT:      -4.7     12.091     12.688
REMARK  5 active torsions:
REMARK  status: ('A' for Active; 'I' for Inactive)
REMARK    1  A    between atoms: C_6  and  C_10 
REMARK    2  A    between atoms: C_10  and  C_11 
REMARK    3  A    between atoms: C_11  and  C_12 
REMARK    4  A    between atoms: C_12  and  C_13 
REMARK    5  A    between atoms: C_13  and  O_14 
ROOT
HETATM    1  C   UNK N   1      25.873  27.295  -3.804  0.00  0.00     0.316 C 
HETATM    2  N   UNK N   1      25.503  27.435  -5.092  0.00  0.00    -0.336 N 
HETATM    3  C   UNK N   1      26.418  26.633  -5.859  0.00  0.00     0.119 C 
HETATM    4  C   UNK N   1      26.833  25.584  -4.849  0.00  0.00     0.123 C 
HETATM    5  N   UNK N   1      26.780  26.317  -3.613  0.00  0.00    -0.335 N 
HETATM    6  C   UNK N   1      28.060  24.956  -5.462  0.00  0.00     0.072 C 
HETATM    7  S   UNK N   1      27.473  24.653  -7.197  0.00  0.00    -0.160 SA
HETATM    8  C   UNK N   1      26.027  25.812  -7.053  0.00  0.00     0.101 C 
HETATM    9  O   UNK N   1      25.430  27.986  -2.903  0.00  0.00    -0.247 OA
HETATM   10  H   UNK N   1      24.757  27.977  -5.437  0.00  0.00     0.164 HD
HETATM   11  H   UNK N   1      27.299  26.141  -2.795  0.00  0.00     0.164 HD
ENDROOT
BRANCH   6  12
HETATM   12  C   UNK N   1      28.419  23.628  -4.809  0.00  0.00     0.018 C 
BRANCH  12  13
HETATM   13  C   UNK N   1      29.905  23.509  -4.513  0.00  0.00     0.012 C 
BRANCH  13  14
HETATM   14  C   UNK N   1      30.211  22.175  -3.829  0.00  0.00     0.110 C 
BRANCH  14  15
HETATM   15  C   UNK N   1      30.934  22.295  -2.509  0.00  0.00     0.139 C 
HETATM   16  O   UNK N   1      30.542  23.061  -1.642  0.00  0.00    -0.650 OA
BRANCH  15  17
HETATM   17  O   UNK N   1      32.032  21.549  -2.288  0.00  0.00    -0.776 OA
HETATM   18  H   UNK N   1      32.781  21.898  -1.845  0.00  0.00     0.167 HD
ENDBRANCH  15  17
ENDBRANCH  14  15
ENDBRANCH  13  14
ENDBRANCH  12  13
ENDBRANCH   6  12
TORSDOF 5
ENDMDL
MODEL 9
REMARK VINA RESULT:      -4.6     15.182     16.883
REMARK  5 active torsions:
REMARK  status: ('A' for Active; 'I' for Inactive)
REMARK    1  A    between atoms: C_6  and  C_10 
REMARK    2  A    between atoms: C_10  and  C_11 
REMARK    3  A    between atoms: C_11  and  C_12 
REMARK    4  A    between atoms: C_12  and  C_13 
REMARK    5  A    between atoms: C_13  and  O_14 
ROOT
HETATM    1  C   UNK N   1      34.556  18.319   8.436  0.00  0.00     0.316 C 
HETATM    2  N   UNK N   1      33.575  17.846   7.644  0.00  0.00    -0.336 N 
HETATM    3  C   UNK N   1      33.470  16.441   7.933  0.00  0.00     0.119 C 
HETATM    4  C   UNK N   1      33.982  16.379   9.357  0.00  0.00     0.123 C 
HETATM    5  N   UNK N   1      34.956  17.439   9.374  0.00  0.00    -0.335 N 
HETATM    6  C   UNK N   1      34.256  14.912   9.580  0.00  0.00     0.072 C 
HETATM    7  S   UNK N   1      32.689  14.157   8.933  0.00  0.00    -0.160 SA
HETATM    8  C   UNK N   1      32.175  15.688   8.011  0.00  0.00     0.101 C 
HETATM    9  O   UNK N   1      35.036  19.433   8.312  0.00  0.00    -0.247 OA
HETATM   10  H   UNK N   1      33.037  18.360   6.998  0.00  0.00     0.164 HD
HETATM   11  H   UNK N   1      35.749  17.507   9.953  0.00  0.00     0.164 HD
ENDROOT
BRANCH   6  12
HETATM   12  C   UNK N   1      34.413  14.570  11.056  0.00  0.00     0.018 C 
BRANCH  12  13
HETATM   13  C   UNK N   1      35.870  14.501  11.484  0.00  0.00     0.012 C 
BRANCH  13  14
HETATM   14  C   UNK N   1      36.077  13.381  12.505  0.00  0.00     0.110 C 
BRANCH  14  15
HETATM   15  C   UNK N   1      35.905  13.801  13.945  0.00  0.00     0.139 C 
HETATM   16  O   UNK N   1      34.938  13.438  14.598  0.00  0.00    -0.650 OA
BRANCH  15  17
HETATM   17  O   UNK N   1      36.830  14.594  14.516  0.00  0.00    -0.776 OA
HETATM   18  H   UNK N   1      36.681  15.511  14.639  0.00  0.00     0.167 HD
ENDBRANCH  15  17
ENDBRANCH  14  15
ENDBRANCH  13  14
ENDBRANCH  12  13
ENDBRANCH   6  12
TORSDOF 5
ENDMDL
