MODEL 1
REMARK VINA RESULT:      -5.7      0.000      0.000
REMARK  4 active torsions:
REMARK  status: ('A' for Active; 'I' for Inactive)
REMARK    1  A    between atoms: C_1  and  O_3 
REMARK    2  A    between atoms: C_1  and  C_4 
REMARK    3  A    between atoms: C_6  and  N_7 
REMARK    4  A    between atoms: C_8  and  N_9 
REMARK       I    between atoms: N_9  and  C_10 
ROOT
HETATM    1  C   UNK N   1      27.969  19.175   7.252  0.00  0.00     0.040 A 
HETATM    2  C   UNK N   1      28.240  18.438   6.093  0.00  0.00     0.049 A 
HETATM    3  C   UNK N   1      27.779  18.875   4.848  0.00  0.00     0.053 A 
HETATM    4  C   UNK N   1      27.036  20.064   4.743  0.00  0.00     0.061 A 
HETATM    5  C   UNK N   1      26.766  20.799   5.910  0.00  0.00     0.033 A 
HETATM    6  C   UNK N   1      27.228  20.360   7.152  0.00  0.00     0.021 A 
ENDROOT
BRANCH   4   7
HETATM    7  N   UNK N   1      26.580  20.483   3.456  0.00  0.00    -0.326 N 
HETATM    8  C   UNK N   1      25.345  20.309   2.906  0.00  0.00     0.218 C 
HETATM    9  O   UNK N   1      25.133  20.739   1.785  0.00  0.00    -0.274 OA
HETATM   10  C   UNK N   1      24.232  19.611   3.620  0.00  0.00     0.117 C 
HETATM   11  H   UNK N   1      27.238  20.957   2.898  0.00  0.00     0.169 HD
ENDBRANCH   4   7
BRANCH   3  12
HETATM   12  N   UNK N   1      28.067  18.112   3.697  0.00  0.00    -0.397 N 
HETATM   13  H   UNK N   1      28.128  18.550   2.818  0.00  0.00     0.156 HD
HETATM   14  H   UNK N   1      28.208  17.140   3.773  0.00  0.00     0.156 HD
ENDBRANCH   3  12
BRANCH   1  15
HETATM   15  C   UNK N   1      28.462  18.705   8.562  0.00  0.00     0.176 C 
HETATM   16  O   UNK N   1      29.645  18.807   8.848  0.00  0.00    -0.646 OA
BRANCH  15  17
HETATM   17  O   UNK N   1      27.610  18.160   9.452  0.00  0.00    -0.773 OA
HETATM   18  H   UNK N   1      26.685  18.224   9.315  0.00  0.00     0.167 HD
ENDBRANCH  15  17
ENDBRANCH   1  15
TORSDOF 4
ENDMDL
MODEL 2
REMARK VINA RESULT:      -5.3     11.682     12.848
REMARK  4 active torsions:
REMARK  status: ('A' for Active; 'I' for Inactive)
REMARK    1  A    between atoms: C_1  and  O_3 
REMARK    2  A    between atoms: C_1  and  C_4 
REMARK    3  A    between atoms: C_6  and  N_7 
REMARK    4  A    between atoms: C_8  and  N_9 
REMARK       I    between atoms: N_9  and  C_10 
ROOT
HETATM    1  C   UNK N   1      26.138  27.706  -3.958  0.00  0.00     0.040 A 
HETATM    2  C   UNK N   1      26.638  26.519  -3.409  0.00  0.00     0.049 A 
HETATM    3  C   UNK N   1      26.356  25.286  -4.004  0.00  0.00     0.053 A 
HETATM    4  C   UNK N   1      25.565  25.222  -5.165  0.00  0.00     0.061 A 
HETATM    5  C   UNK N   1      25.065  26.417  -5.710  0.00  0.00     0.033 A 
HETATM    6  C   UNK N   1      25.349  27.647  -5.114  0.00  0.00     0.021 A 
ENDROOT
BRANCH   4   7
HETATM    7  N   UNK N   1      25.295  23.946  -5.749  0.00  0.00    -0.326 N 
HETATM    8  C   UNK N   1      26.015  23.293  -6.703  0.00  0.00     0.218 C 
HETATM    9  O   UNK N   1      25.633  22.199  -7.085  0.00  0.00    -0.274 OA
HETATM   10  C   UNK N   1      27.261  23.858  -7.307  0.00  0.00     0.117 C 
HETATM   11  H   UNK N   1      24.491  23.482  -5.420  0.00  0.00     0.169 HD
ENDBRANCH   4   7
BRANCH   3  12
HETATM   12  N   UNK N   1      26.872  24.106  -3.429  0.00  0.00    -0.397 N 
HETATM   13  H   UNK N   1      26.275  23.347  -3.242  0.00  0.00     0.156 HD
HETATM   14  H   UNK N   1      27.832  24.042  -3.215  0.00  0.00     0.156 HD
ENDBRANCH   3  12
BRANCH   1  15
HETATM   15  C   UNK N   1      26.443  29.003  -3.322  0.00  0.00     0.176 C 
HETATM   16  O   UNK N   1      27.163  29.052  -2.335  0.00  0.00    -0.646 OA
BRANCH  15  17
HETATM   17  O   UNK N   1      25.931  30.143  -3.824  0.00  0.00    -0.773 OA
HETATM   18  H   UNK N   1      25.167  30.114  -4.366  0.00  0.00     0.167 HD
ENDBRANCH  15  17
ENDBRANCH   1  15
TORSDOF 4
ENDMDL
MODEL 3
REMARK VINA RESULT:      -5.3      5.587      8.283
REMARK  4 active torsions:
REMARK  status: ('A' for Active; 'I' for Inactive)
REMARK    1  A    between atoms: C_1  and  O_3 
REMARK    2  A    between atoms: C_1  and  C_4 
REMARK    3  A    between atoms: C_6  and  N_7 
REMARK    4  A    between atoms: C_8  and  N_9 
REMARK       I    between atoms: N_9  and  C_10 
ROOT
HETATM    1  C   UNK N   1      31.634  17.135   5.415  0.00  0.00     0.040 A 
HETATM    2  C   UNK N   1      31.123  17.200   6.717  0.00  0.00     0.049 A 
HETATM    3  C   UNK N   1      31.969  17.450   7.802  0.00  0.00     0.053 A 
HETATM    4  C   UNK N   1      33.347  17.642   7.598  0.00  0.00     0.061 A 
HETATM    5  C   UNK N   1      33.854  17.575   6.289  0.00  0.00     0.033 A 
HETATM    6  C   UNK N   1      33.006  17.325   5.208  0.00  0.00     0.021 A 
ENDROOT
BRANCH   4   7
HETATM    7  N   UNK N   1      34.184  17.897   8.727  0.00  0.00    -0.326 N 
HETATM    8  C   UNK N   1      34.891  16.997   9.466  0.00  0.00     0.218 C 
HETATM    9  O   UNK N   1      35.560  17.399  10.404  0.00  0.00    -0.274 OA
HETATM   10  C   UNK N   1      34.886  15.530   9.178  0.00  0.00     0.117 C 
HETATM   11  H   UNK N   1      34.260  18.839   9.005  0.00  0.00     0.169 HD
ENDBRANCH   4   7
BRANCH   3  12
HETATM   12  N   UNK N   1      31.427  17.510   9.102  0.00  0.00    -0.397 N 
HETATM   13  H   UNK N   1      31.787  18.149   9.757  0.00  0.00     0.156 HD
HETATM   14  H   UNK N   1      30.686  16.911   9.355  0.00  0.00     0.156 HD
ENDBRANCH   3  12
BRANCH   1  15
HETATM   15  C   UNK N   1      30.731  16.871   4.277  0.00  0.00     0.176 C 
HETATM   16  O   UNK N   1      29.644  16.345   4.461  0.00  0.00    -0.646 OA
BRANCH  15  17
HETATM   17  O   UNK N   1      31.099  17.209   3.026  0.00  0.00    -0.773 OA
HETATM   18  H   UNK N   1      30.481  17.151   2.324  0.00  0.00     0.167 HD
ENDBRANCH  15  17
ENDBRANCH   1  15
TORSDOF 4
ENDMDL
MODEL 4
REMARK VINA RESULT:      -5.2      2.422      6.123
REMARK  4 active torsions:
REMARK  status: ('A' for Active; 'I' for Inactive)
REMARK    1  A    between atoms: C_1  and  O_3 
REMARK    2  A    between atoms: C_1  and  C_4 
REMARK    3  A    between atoms: C_6  and  N_7 
REMARK    4  A    between atoms: C_8  and  N_9 
REMARK       I    between atoms: N_9  and  C_10 
ROOT
HETATM    1  C   UNK N   1      23.093  20.142   3.006  0.00  0.00     0.040 A 
HETATM    2  C   UNK N   1      23.028  19.098   3.937  0.00  0.00     0.049 A 
HETATM    3  C   UNK N   1      24.187  18.628   4.562  0.00  0.00     0.053 A 
HETATM    4  C   UNK N   1      25.436  19.200   4.263  0.00  0.00     0.061 A 
HETATM    5  C   UNK N   1      25.495  20.246   3.326  0.00  0.00     0.033 A 
HETATM    6  C   UNK N   1      24.336  20.713   2.704  0.00  0.00     0.021 A 
ENDROOT
BRANCH   4   7
HETATM    7  N   UNK N   1      26.602  18.698   4.919  0.00  0.00    -0.326 N 
HETATM    8  C   UNK N   1      27.323  19.287   5.913  0.00  0.00     0.218 C 
HETATM    9  O   UNK N   1      28.298  18.705   6.360  0.00  0.00    -0.274 OA
HETATM   10  C   UNK N   1      26.971  20.622   6.488  0.00  0.00     0.117 C 
HETATM   11  H   UNK N   1      26.923  17.818   4.616  0.00  0.00     0.169 HD
ENDBRANCH   4   7
BRANCH   3  12
HETATM   12  N   UNK N   1      24.091  17.577   5.496  0.00  0.00    -0.397 N 
HETATM   13  H   UNK N   1      23.221  17.352   5.898  0.00  0.00     0.156 HD
HETATM   14  H   UNK N   1      24.895  17.065   5.746  0.00  0.00     0.156 HD
ENDBRANCH   3  12
BRANCH   1  15
HETATM   15  C   UNK N   1      21.863  20.631   2.353  0.00  0.00     0.176 C 
HETATM   16  O   UNK N   1      21.715  20.511   1.146  0.00  0.00    -0.646 OA
BRANCH  15  17
HETATM   17  O   UNK N   1      20.892  21.213   3.084  0.00  0.00    -0.773 OA
HETATM   18  H   UNK N   1      21.106  21.641   3.890  0.00  0.00     0.167 HD
ENDBRANCH  15  17
ENDBRANCH   1  15
TORSDOF 4
ENDMDL
MODEL 5
REMARK VINA RESULT:      -5.2     15.134     17.953
REMARK  4 active torsions:
REMARK  status: ('A' for Active; 'I' for Inactive)
REMARK    1  A    between atoms: C_1  and  O_3 
REMARK    2  A    between atoms: C_1  and  C_4 
REMARK    3  A    between atoms: C_6  and  N_7 
REMARK    4  A    between atoms: C_8  and  N_9 
REMARK       I    between atoms: N_9  and  C_10 
ROOT
HETATM    1  C   UNK N   1      35.439  12.539  16.944  0.00  0.00     0.040 A 
HETATM    2  C   UNK N   1      35.079  13.278  18.077  0.00  0.00     0.049 A 
HETATM    3  C   UNK N   1      35.112  12.694  19.347  0.00  0.00     0.053 A 
HETATM    4  C   UNK N   1      35.511  11.354  19.502  0.00  0.00     0.061 A 
HETATM    5  C   UNK N   1      35.871  10.618  18.361  0.00  0.00     0.033 A 
HETATM    6  C   UNK N   1      35.836  11.204  17.094  0.00  0.00     0.021 A 
ENDROOT
BRANCH   4   7
HETATM    7  N   UNK N   1      35.535  10.787  20.814  0.00  0.00    -0.326 N 
HETATM    8  C   UNK N   1      34.641   9.924  21.370  0.00  0.00     0.218 C 
HETATM    9  O   UNK N   1      34.824   9.539  22.513  0.00  0.00    -0.274 OA
HETATM   10  C   UNK N   1      33.437   9.421  20.638  0.00  0.00     0.117 C 
HETATM   11  H   UNK N   1      36.292  11.053  21.385  0.00  0.00     0.169 HD
ENDBRANCH   4   7
BRANCH   3  12
HETATM   12  N   UNK N   1      34.743  13.461  20.471  0.00  0.00    -0.397 N 
HETATM   13  H   UNK N   1      35.225  14.294  20.679  0.00  0.00     0.156 HD
HETATM   14  H   UNK N   1      34.002  13.165  21.049  0.00  0.00     0.156 HD
ENDBRANCH   3  12
BRANCH   1  15
HETATM   15  C   UNK N   1      35.401  13.167  15.608  0.00  0.00     0.176 C 
HETATM   16  O   UNK N   1      34.413  13.048  14.898  0.00  0.00    -0.646 OA
BRANCH  15  17
HETATM   17  O   UNK N   1      36.456  13.876  15.161  0.00  0.00    -0.773 OA
HETATM   18  H   UNK N   1      36.358  14.786  14.963  0.00  0.00     0.167 HD
ENDBRANCH  15  17
ENDBRANCH   1  15
TORSDOF 4
ENDMDL
MODEL 6
REMARK VINA RESULT:      -5.1      4.740      6.696
REMARK  4 active torsions:
REMARK  status: ('A' for Active; 'I' for Inactive)
REMARK    1  A    between atoms: C_1  and  O_3 
REMARK    2  A    between atoms: C_1  and  C_4 
REMARK    3  A    between atoms: C_6  and  N_7 
REMARK    4  A    between atoms: C_8  and  N_9 
REMARK       I    between atoms: N_9  and  C_10 
ROOT
HETATM    1  C   UNK N   1      29.521  17.705   8.217  0.00  0.00     0.040 A 
HETATM    2  C   UNK N   1      30.706  17.846   8.949  0.00  0.00     0.049 A 
HETATM    3  C   UNK N   1      31.948  17.642   8.339  0.00  0.00     0.053 A 
HETATM    4  C   UNK N   1      32.021  17.292   6.979  0.00  0.00     0.061 A 
HETATM    5  C   UNK N   1      30.828  17.151   6.250  0.00  0.00     0.033 A 
HETATM    6  C   UNK N   1      29.590  17.355   6.862  0.00  0.00     0.021 A 
ENDROOT
BRANCH   4   7
HETATM    7  N   UNK N   1      33.305  17.091   6.385  0.00  0.00    -0.326 N 
HETATM    8  C   UNK N   1      34.011  15.930   6.287  0.00  0.00     0.218 C 
HETATM    9  O   UNK N   1      35.101  15.946   5.740  0.00  0.00    -0.274 OA
HETATM   10  C   UNK N   1      33.506  14.627   6.821  0.00  0.00     0.117 C 
HETATM   11  H   UNK N   1      33.732  17.890   5.999  0.00  0.00     0.169 HD
ENDBRANCH   4   7
BRANCH   3  12
HETATM   12  N   UNK N   1      33.125  17.791   9.100  0.00  0.00    -0.397 N 
HETATM   13  H   UNK N   1      33.081  17.784  10.083  0.00  0.00     0.156 HD
HETATM   14  H   UNK N   1      33.993  17.903   8.648  0.00  0.00     0.156 HD
ENDBRANCH   3  12
BRANCH   1  15
HETATM   15  C   UNK N   1      28.216  17.924   8.871  0.00  0.00     0.176 C 
HETATM   16  O   UNK N   1      27.760  17.086   9.634  0.00  0.00    -0.646 OA
BRANCH  15  17
HETATM   17  O   UNK N   1      27.518  19.051   8.632  0.00  0.00    -0.773 OA
HETATM   18  H   UNK N   1      26.800  19.038   8.029  0.00  0.00     0.167 HD
ENDBRANCH  15  17
ENDBRANCH   1  15
TORSDOF 4
ENDMDL
MODEL 7
REMARK VINA RESULT:      -5.1      5.261      6.214
REMARK  4 active torsions:
REMARK  status: ('A' for Active; 'I' for Inactive)
REMARK    1  A    between atoms: C_1  and  O_3 
REMARK    2  A    between atoms: C_1  and  C_4 
REMARK    3  A    between atoms: C_6  and  N_7 
REMARK    4  A    between atoms: C_8  and  N_9 
REMARK       I    between atoms: N_9  and  C_10 
ROOT
HETATM    1  C   UNK N   1      33.490  17.822   7.703  0.00  0.00     0.040 A 
HETATM    2  C   UNK N   1      32.196  17.675   8.219  0.00  0.00     0.049 A 
HETATM    3  C   UNK N   1      31.131  17.328   7.382  0.00  0.00     0.053 A 
HETATM    4  C   UNK N   1      31.347  17.120   6.008  0.00  0.00     0.061 A 
HETATM    5  C   UNK N   1      32.647  17.269   5.497  0.00  0.00     0.033 A 
HETATM    6  C   UNK N   1      33.708  17.616   6.335  0.00  0.00     0.021 A 
ENDROOT
BRANCH   4   7
HETATM    7  N   UNK N   1      30.238  16.765   5.180  0.00  0.00    -0.326 N 
HETATM    8  C   UNK N   1      29.822  15.517   4.826  0.00  0.00     0.218 C 
HETATM    9  O   UNK N   1      28.844  15.403   4.106  0.00  0.00    -0.274 OA
HETATM   10  C   UNK N   1      30.513  14.272   5.285  0.00  0.00     0.117 C 
HETATM   11  H   UNK N   1      29.710  17.514   4.822  0.00  0.00     0.169 HD
ENDBRANCH   4   7
BRANCH   3  12
HETATM   12  N   UNK N   1      29.840  17.187   7.929  0.00  0.00    -0.397 N 
HETATM   13  H   UNK N   1      29.722  16.779   8.817  0.00  0.00     0.156 HD
HETATM   14  H   UNK N   1      29.054  17.498   7.423  0.00  0.00     0.156 HD
ENDBRANCH   3  12
BRANCH   1  15
HETATM   15  C   UNK N   1      34.606  18.188   8.597  0.00  0.00     0.176 C 
HETATM   16  O   UNK N   1      35.265  19.194   8.381  0.00  0.00    -0.646 OA
BRANCH  15  17
HETATM   17  O   UNK N   1      34.908  17.415   9.658  0.00  0.00    -0.773 OA
HETATM   18  H   UNK N   1      34.317  17.365  10.384  0.00  0.00     0.167 HD
ENDBRANCH  15  17
ENDBRANCH   1  15
TORSDOF 4
ENDMDL
MODEL 8
REMARK VINA RESULT:      -5.1      2.981      4.068
REMARK  4 active torsions:
REMARK  status: ('A' for Active; 'I' for Inactive)
REMARK    1  A    between atoms: C_1  and  O_3 
REMARK    2  A    between atoms: C_1  and  C_4 
REMARK    3  A    between atoms: C_6  and  N_7 
REMARK    4  A    between atoms: C_8  and  N_9 
REMARK       I    between atoms: N_9  and  C_10 
ROOT
HETATM    1  C   UNK N   1      31.104  17.526   7.898  0.00  0.00     0.040 A 
HETATM    2  C   UNK N   1      30.051  17.997   8.691  0.00  0.00     0.049 A 
HETATM    3  C   UNK N   1      28.779  18.189   8.143  0.00  0.00     0.053 A 
HETATM    4  C   UNK N   1      28.541  17.910   6.785  0.00  0.00     0.061 A 
HETATM    5  C   UNK N   1      29.603  17.438   5.995  0.00  0.00     0.033 A 
HETATM    6  C   UNK N   1      30.872  17.247   6.545  0.00  0.00     0.021 A 
ENDROOT
BRANCH   4   7
HETATM    7  N   UNK N   1      27.230  18.116   6.256  0.00  0.00    -0.326 N 
HETATM    8  C   UNK N   1      26.768  19.188   5.555  0.00  0.00     0.218 C 
HETATM    9  O   UNK N   1      25.609  19.191   5.177  0.00  0.00    -0.274 OA
HETATM   10  C   UNK N   1      27.624  20.369   5.223  0.00  0.00     0.117 C 
HETATM   11  H   UNK N   1      26.581  17.393   6.418  0.00  0.00     0.169 HD
ENDBRANCH   4   7
BRANCH   3  12
HETATM   12  N   UNK N   1      27.737  18.665   8.964  0.00  0.00    -0.397 N 
HETATM   13  H   UNK N   1      27.378  18.097   9.684  0.00  0.00     0.156 HD
HETATM   14  H   UNK N   1      27.367  19.566   8.819  0.00  0.00     0.156 HD
ENDBRANCH   3  12
BRANCH   1  15
HETATM   15  C   UNK N   1      32.443  17.326   8.488  0.00  0.00     0.176 C 
HETATM   16  O   UNK N   1      33.391  17.997   8.108  0.00  0.00    -0.646 OA
BRANCH  15  17
HETATM   17  O   UNK N   1      32.630  16.402   9.450  0.00  0.00    -0.773 OA
HETATM   18  H   UNK N   1      32.116  15.618   9.452  0.00  0.00     0.167 HD
ENDBRANCH  15  17
ENDBRANCH   1  15
TORSDOF 4
ENDMDL
MODEL 9
REMARK VINA RESULT:      -5.1      4.357      6.395
REMARK  4 active torsions:
REMARK  status: ('A' for Active; 'I' for Inactive)
REMARK    1  A    between atoms: C_1  and  O_3 
REMARK    2  A    between atoms: C_1  and  C_4 
REMARK    3  A    between atoms: C_6  and  N_7 
REMARK    4  A    between atoms: C_8  and  N_9 
REMARK       I    between atoms: N_9  and  C_10 
ROOT
HETATM    1  C   UNK N   1      29.497  17.944   8.166  0.00  0.00     0.040 A 
HETATM    2  C   UNK N   1      29.586  16.883   7.256  0.00  0.00     0.049 A 
HETATM    3  C   UNK N   1      30.827  16.321   6.940  0.00  0.00     0.053 A 
HETATM    4  C   UNK N   1      32.002  16.815   7.532  0.00  0.00     0.061 A 
HETATM    5  C   UNK N   1      31.905  17.880   8.443  0.00  0.00     0.033 A 
HETATM    6  C   UNK N   1      30.665  18.440   8.758  0.00  0.00     0.021 A 
ENDROOT
BRANCH   4   7
HETATM    7  N   UNK N   1      33.254  16.218   7.188  0.00  0.00    -0.326 N 
HETATM    8  C   UNK N   1      34.034  16.475   6.101  0.00  0.00     0.218 C 
HETATM    9  O   UNK N   1      35.082  15.865   5.970  0.00  0.00    -0.274 OA
HETATM   10  C   UNK N   1      33.663  17.479   5.057  0.00  0.00     0.117 C 
HETATM   11  H   UNK N   1      33.595  15.538   7.813  0.00  0.00     0.169 HD
ENDBRANCH   4   7
BRANCH   3  12
HETATM   12  N   UNK N   1      30.888  15.253   6.021  0.00  0.00    -0.397 N 
HETATM   13  H   UNK N   1      31.706  15.101   5.496  0.00  0.00     0.156 HD
HETATM   14  H   UNK N   1      30.111  14.659   5.904  0.00  0.00     0.156 HD
ENDBRANCH   3  12
BRANCH   1  15
HETATM   15  C   UNK N   1      28.181  18.529   8.493  0.00  0.00     0.176 C 
HETATM   16  O   UNK N   1      27.759  19.489   7.866  0.00  0.00    -0.646 OA
BRANCH  15  17
HETATM   17  O   UNK N   1      27.436  18.009   9.488  0.00  0.00    -0.773 OA
HETATM   18  H   UNK N   1      27.422  18.423  10.328  0.00  0.00     0.167 HD
ENDBRANCH  15  17
ENDBRANCH   1  15
TORSDOF 4
ENDMDL
