REMARK  13 active torsions:
REMARK  status: ('A' for Active; 'I' for Inactive)
REMARK    1  A    between atoms: C_4  and  C_5 
REMARK    2  A    between atoms: C_4  and  C_12 
REMARK    3  A    between atoms: C_5  and  O_27 
REMARK    4  A    between atoms: C_7  and  C_11 
REMARK    5  A    between atoms: C_7  and  N_20 
REMARK    6  A    between atoms: C_9  and  C_14 
REMARK    7  A    between atoms: C_13  and  N_15 
REMARK    8  A    between atoms: O_22  and  P_29 
REMARK    9  A    between atoms: O_23  and  P_29 
REMARK   10  A    between atoms: O_25  and  P_30 
REMARK   11  A    between atoms: O_27  and  P_30 
REMARK   12  A    between atoms: O_28  and  P_29 
REMARK   13  A    between atoms: O_28  and  P_30 
ROOT
HETATM    1  C   UNK N   1       1.407  -1.931   1.450  0.00  0.00     0.069 C 
HETATM    2  C   UNK N   1       0.273  -1.310   0.718  0.00  0.00     0.022 A 
HETATM    3  C   UNK N   1      -0.766  -2.078   0.143  0.00  0.00     0.009 A 
HETATM    4  C   UNK N   1      -1.064   0.398  -0.016  0.00  0.00     0.123 A 
HETATM    5  N   UNK N   1       0.117   0.070   0.603  0.00  0.00    -0.337 N 
HETATM    6  S   UNK N   1      -1.859  -0.990  -0.442  0.00  0.00    -0.071 SA
ENDROOT
BRANCH   3   7
HETATM    7  C   UNK N   1      -0.972  -3.570   0.074  0.00  0.00     0.075 C 
BRANCH   7   8
HETATM    8  C   UNK N   1       0.194  -4.433   0.541  0.00  0.00     0.185 C 
BRANCH   8   9
HETATM    9  O   UNK N   1       1.008  -4.767  -0.548  0.00  0.00    -0.296 OA
BRANCH   9  10
HETATM   10  P   UNK N   1       2.644  -4.555   0.008  0.00  0.00     0.401 P 
HETATM   11  O   UNK N   1       2.527  -3.550  -1.171  0.00  0.00    -0.631 OA
BRANCH  10  12
HETATM   12  O   UNK N   1       2.438  -6.182  -0.565  0.00  0.00    -0.307 OA
HETATM   13  H   UNK N   1       1.594  -6.537  -0.885  0.00  0.00     0.222 HD
ENDBRANCH  10  12
BRANCH  10  14
HETATM   14  O   UNK N   1       3.991  -4.988  -1.006  0.00  0.00    -0.195 OA
BRANCH  14  15
HETATM   15  P   UNK N   1       5.408  -4.228  -0.320  0.00  0.00     0.399 P 
HETATM   16  O   UNK N   1       6.192  -3.616  -1.511  0.00  0.00    -0.631 OA
BRANCH  15  17
HETATM   17  O   UNK N   1       5.052  -2.903   0.747  0.00  0.00    -0.307 OA
HETATM   18  H   UNK N   1       5.593  -2.361   1.343  0.00  0.00     0.222 HD
ENDBRANCH  15  17
BRANCH  15  19
HETATM   19  O   UNK N   1       6.471  -5.376   0.430  0.00  0.00    -0.307 OA
HETATM   20  H   UNK N   1       6.212  -6.212   0.849  0.00  0.00     0.222 HD
ENDBRANCH  15  19
ENDBRANCH  14  15
ENDBRANCH  10  14
ENDBRANCH   9  10
ENDBRANCH   8   9
ENDBRANCH   7   8
ENDBRANCH   3   7
BRANCH   5  21
HETATM   21  C   UNK N   1       1.030   1.084   1.165  0.00  0.00     0.173 C 
BRANCH  21  22
HETATM   22  C   UNK N   1       2.473   1.028   0.700  0.00  0.00     0.019 A 
HETATM   23  C   UNK N   1       3.352   0.109   1.274  0.00  0.00     0.102 A 
HETATM   24  N   UNK N   1       4.665   0.098   0.933  0.00  0.00    -0.355 N 
HETATM   25  C   UNK N   1       5.157   0.995   0.044  0.00  0.00     0.078 A 
ATOM     26  HN  UNK N   1       5.290  -0.592   1.351  1.00  0.00     0.166 HD
HETATM   27  C   UNK N   1       6.605   0.978  -0.296  0.00  0.00     0.089 C 
HETATM   28  N   UNK N   1       4.333   1.918  -0.518  0.00  0.00    -0.332 N 
HETATM   29  C   UNK N   1       3.006   1.958  -0.208  0.00  0.00     0.109 A 
ATOM     30  HN  UNK N   1       4.713   2.592  -1.182  1.00  0.00     0.168 HD
BRANCH  29  31
HETATM   31  N   UNK N   1       2.189   2.952  -0.785  0.00  0.00    -0.385 N 
HETATM   32  H   UNK N   1       2.505   3.793  -1.188  0.00  0.00     0.157 HD
HETATM   33  H   UNK N   1       1.218   2.791  -0.785  0.00  0.00     0.157 HD
ENDBRANCH  29  31
ENDBRANCH  21  22
ENDBRANCH   5  21
BRANCH   4  34
HETATM   34  C   UNK N   1      -1.609   1.765  -0.210  0.00  0.00     0.179 C 
HETATM   35  C   UNK N   1      -2.989   1.953  -0.752  0.00  0.00     0.099 C 
HETATM   36  O   UNK N   1      -0.961   2.747   0.107  0.00  0.00    -0.291 OA
ENDBRANCH   4  34
TORSDOF 13
