REMARK  22 active torsions:
REMARK  status: ('A' for Active; 'I' for Inactive)
REMARK    1  A    between atoms: O_1  and  V_35 
REMARK    2  A    between atoms: O_3  and  V_35 
REMARK    3  A    between atoms: O_5  and  V_36 
REMARK    4  A    between atoms: O_7  and  V_36 
REMARK    5  A    between atoms: O_9  and  V_37 
REMARK    6  A    between atoms: O_11  and  V_38 
REMARK    7  A    between atoms: O_13  and  V_38 
REMARK    8  A    between atoms: O_17  and  V_39 
REMARK    9  A    between atoms: O_19  and  V_39 
REMARK   10  A    between atoms: O_21  and  V_39 
REMARK   11  A    between atoms: O_27  and  V_41 
REMARK   12  A    between atoms: O_29  and  V_41 
REMARK   13  A    between atoms: O_31  and  V_37 
REMARK   14  A    between atoms: O_31  and  V_40 
REMARK   15  A    between atoms: O_32  and  V_40 
REMARK   16  A    between atoms: O_32  and  V_41 
REMARK   17  A    between atoms: O_33  and  V_35 
REMARK   18  A    between atoms: O_33  and  V_37 
REMARK   19  A    between atoms: O_33  and  V_38 
REMARK   20  A    between atoms: O_34  and  V_36 
REMARK   21  A    between atoms: O_34  and  V_39 
REMARK   22  A    between atoms: O_34  and  V_41 
ROOT
HETATM    1  O   UNK N   1      -7.090   3.821   0.000  0.00  0.00    -0.253 OA
ATOM      2  HO  UNK N   1      -8.028   3.671   0.000  1.00  0.00     0.253 HD
HETATM    3  V   UNK N   1      -5.342   3.779   0.000  0.00  0.00     0.000 V 
ENDROOT
BRANCH   3   4
HETATM    4  O   UNK N   1      -3.615   4.055   0.000  0.00  0.00    -0.253 OA
ATOM      5  HO  UNK N   1      -3.556   3.106   0.000  1.00  0.00     0.253 HD
ENDBRANCH   3   4
BRANCH   3   6
HETATM    6  O   UNK N   1      -5.451   5.532   0.000  0.00  0.00    -0.253 OA
ATOM      7  HO  UNK N   1      -6.389   5.383   0.000  1.00  0.00     0.253 HD
ENDBRANCH   3   6
BRANCH   3   8
HETATM    8  O   UNK N   1      -5.313   1.766   0.000  0.00  0.00     0.000 OA
BRANCH   8   9
HETATM    9  V   UNK N   1      -6.995   0.749   0.000  0.00  0.00     0.000 V 
BRANCH   9  10
HETATM   10  O   UNK N   1      -8.545   1.574   0.000  0.00  0.00    -0.253 OA
ATOM     11  HO  UNK N   1      -8.559   2.524   0.000  1.00  0.00     0.253 HD
ENDBRANCH   9  10
BRANCH   9  12
HETATM   12  O   UNK N   1      -6.966  -1.216   0.000  0.00  0.00    -0.253 OA
ATOM     13  HO  UNK N   1      -6.127  -1.662   0.000  1.00  0.00     0.253 HD
ENDBRANCH   9  12
ENDBRANCH   8   9
BRANCH   8  14
HETATM   14  V   UNK N   1      -3.603   0.772   0.000  0.00  0.00     0.000 V 
BRANCH  14  15
HETATM   15  O   UNK N   1      -3.409  -0.977   0.000  0.00  0.00    -0.253 OA
ATOM     16  HO  UNK N   1      -4.102  -1.627   0.000  1.00  0.00     0.253 HD
ENDBRANCH  14  15
BRANCH  14  17
HETATM   17  O   UNK N   1      -2.196   2.090   0.000  0.00  0.00     0.000 OA
BRANCH  17  18
HETATM   18  V   UNK N   1      -0.287   1.813   0.000  0.00  0.00     0.000 V 
HETATM   19  O   UNK N   1       0.368   3.439   0.000  0.00  0.00    -0.253 OA
ATOM     20  HO  UNK N   1       0.013   2.557   0.000  1.00  0.00     0.253 HD
HETATM   21  O   UNK N   1       0.368   3.439   0.000  0.00  0.00    -0.253 OA
ATOM     22  HO  UNK N   1       0.013   2.557   0.000  1.00  0.00     0.253 HD
BRANCH  18  23
HETATM   23  O   UNK N   1       0.930   0.183   0.000  0.00  0.00     0.000 OA
BRANCH  23  24
HETATM   24  V   UNK N   1       2.892   0.608   0.000  0.00  0.00     0.000 V 
BRANCH  24  25
HETATM   25  O   UNK N   1       3.679  -0.964   0.000  0.00  0.00    -0.253 OA
ATOM     26  HO  UNK N   1       3.929  -1.880   0.000  1.00  0.00     0.253 HD
ENDBRANCH  24  25
BRANCH  24  27
HETATM   27  O   UNK N   1       2.453   2.217   0.000  0.00  0.00    -0.253 OA
ATOM     28  HO  UNK N   1       2.028   3.067   0.000  1.00  0.00     0.253 HD
ENDBRANCH  24  27
BRANCH  24  29
HETATM   29  O   UNK N   1       4.539   1.777   0.000  0.00  0.00     0.000 OA
BRANCH  29  30
HETATM   30  V   UNK N   1       6.314   0.891   0.000  0.00  0.00     0.000 V 
BRANCH  30  31
HETATM   31  O   UNK N   1       8.020   1.879   0.000  0.00  0.00    -0.253 OA
ATOM     32  HO  UNK N   1       7.958   2.827   0.000  1.00  0.00     0.253 HD
ENDBRANCH  30  31
BRANCH  30  33
HETATM   33  O   UNK N   1       6.428  -0.860   0.000  0.00  0.00    -0.253 OA
ATOM     34  HO  UNK N   1       5.606  -1.336   0.000  1.00  0.00     0.253 HD
ENDBRANCH  30  33
ENDBRANCH  29  30
BRANCH  29  35
HETATM   35  V   UNK N   1       4.573   3.825   0.000  0.00  0.00     0.000 V 
BRANCH  35  36
HETATM   36  O   UNK N   1       6.320   3.837   0.000  0.00  0.00    -0.253 OA
ATOM     37  HO  UNK N   1       7.196   3.470   0.000  1.00  0.00     0.253 HD
ENDBRANCH  35  36
BRANCH  35  38
HETATM   38  O   UNK N   1       2.948   4.505   0.000  0.00  0.00    -0.253 OA
ATOM     39  HO  UNK N   1       1.998   4.498   0.000  1.00  0.00     0.253 HD
ENDBRANCH  35  38
BRANCH  35  40
HETATM   40  O   UNK N   1       4.988   5.530   0.000  0.00  0.00    -0.253 OA
ATOM     41  HO  UNK N   1       4.038   5.524   0.000  1.00  0.00     0.253 HD
ENDBRANCH  35  40
ENDBRANCH  29  35
ENDBRANCH  24  29
ENDBRANCH  23  24
ENDBRANCH  18  23
ENDBRANCH  17  18
ENDBRANCH  14  17
ENDBRANCH   8  14
ENDBRANCH   3   8
TORSDOF 22
