MODEL 1
REMARK VINA RESULT:      -5.7      0.000      0.000
REMARK  1 active torsions:
REMARK  status: ('A' for Active; 'I' for Inactive)
REMARK    1  A    between atoms: C_6  and  O_15 
ROOT
HETATM    1  C   UNK N   1      23.131  12.123  12.675  0.00  0.00     0.102 C 
HETATM    2  C   UNK N   1      21.330  12.242  10.895  0.00  0.00     0.113 A 
HETATM    3  C   UNK N   1      22.642  12.365  11.345  0.00  0.00     0.078 A 
HETATM    4  C   UNK N   1      23.387  12.765  10.270  0.00  0.00     0.082 A 
HETATM    5  C   UNK N   1      22.536  12.872   9.222  0.00  0.00     0.137 A 
HETATM    6  C   UNK N   1      24.734  13.049  10.102  0.00  0.00     0.171 A 
HETATM    7  C   UNK N   1      24.283  13.534   7.813  0.00  0.00     0.679 A 
HETATM    8  N   UNK N   1      23.547  11.933  13.737  0.00  0.00    -0.191 NA
HETATM    9  N   UNK N   1      24.709  13.895   6.664  0.00  0.00    -0.234 N 
ATOM     10  HN  UNK N   1      24.060  13.975   5.882  1.00  0.00     0.174 HD
HETATM   11  N   UNK N   1      21.275  12.559   9.575  0.00  0.00    -0.350 N 
HETATM   12  N   UNK N   1      22.955  13.251   7.991  0.00  0.00    -0.176 N 
HETATM   13  N   UNK N   1      25.161  13.431   8.864  0.00  0.00    -0.170 N 
ATOM     14  HN  UNK N   1      26.147  13.645   8.716  1.00  0.00     0.186 HD
HETATM   15  H   UNK N   1      25.664  14.095   6.534  0.00  0.00     0.174 HD
HETATM   16  H   UNK N   1      20.479  12.560   8.995  0.00  0.00     0.166 HD
HETATM   17  H   UNK N   1      22.319  13.323   7.242  0.00  0.00     0.186 HD
ENDROOT
BRANCH   6  18
HETATM   18  O   UNK N   1      25.602  12.952  11.124  0.00  0.00    -0.345 OA
HETATM   19  H   UNK N   1      26.513  12.813  10.954  0.00  0.00     0.219 HD
ENDBRANCH   6  18
TORSDOF 1
ENDMDL
MODEL 2
REMARK VINA RESULT:      -5.7      9.178     10.733
REMARK  1 active torsions:
REMARK  status: ('A' for Active; 'I' for Inactive)
REMARK    1  A    between atoms: C_6  and  O_15 
ROOT
HETATM    1  C   UNK N   1      20.951  20.263   0.993  0.00  0.00     0.102 C 
HETATM    2  C   UNK N   1      20.736  19.762   3.469  0.00  0.00     0.113 A 
HETATM    3  C   UNK N   1      20.677  19.415   2.120  0.00  0.00     0.078 A 
HETATM    4  C   UNK N   1      20.303  18.100   2.072  0.00  0.00     0.082 A 
HETATM    5  C   UNK N   1      20.149  17.689   3.353  0.00  0.00     0.137 A 
HETATM    6  C   UNK N   1      20.081  17.215   1.028  0.00  0.00     0.171 A 
HETATM    7  C   UNK N   1      19.559  15.540   2.640  0.00  0.00     0.679 A 
HETATM    8  N   UNK N   1      21.168  20.926   0.070  0.00  0.00    -0.191 NA
HETATM    9  N   UNK N   1      19.210  14.340   2.900  0.00  0.00    -0.234 N 
ATOM     10  HN  UNK N   1      19.093  14.040   3.868  1.00  0.00     0.174 HD
HETATM   11  N   UNK N   1      20.407  18.682   4.226  0.00  0.00    -0.350 N 
HETATM   12  N   UNK N   1      19.781  16.423   3.663  0.00  0.00    -0.176 N 
HETATM   13  N   UNK N   1      19.710  15.938   1.335  0.00  0.00    -0.170 N 
ATOM     14  HN  UNK N   1      19.541  15.270   0.583  1.00  0.00     0.186 HD
HETATM   15  H   UNK N   1      19.053  13.703   2.165  0.00  0.00     0.174 HD
HETATM   16  H   UNK N   1      20.365  18.634   5.208  0.00  0.00     0.166 HD
HETATM   17  H   UNK N   1      19.675  16.145   4.602  0.00  0.00     0.186 HD
ENDROOT
BRANCH   6  18
HETATM   18  O   UNK N   1      20.226  17.595  -0.254  0.00  0.00    -0.345 OA
HETATM   19  H   UNK N   1      21.034  17.971  -0.542  0.00  0.00     0.219 HD
ENDBRANCH   6  18
TORSDOF 1
ENDMDL
MODEL 3
REMARK VINA RESULT:      -5.4     20.511     22.548
REMARK  1 active torsions:
REMARK  status: ('A' for Active; 'I' for Inactive)
REMARK    1  A    between atoms: C_6  and  O_15 
ROOT
HETATM    1  C   UNK N   1      39.919  21.269   1.796  0.00  0.00     0.102 C 
HETATM    2  C   UNK N   1      41.107  23.468   1.373  0.00  0.00     0.113 A 
HETATM    3  C   UNK N   1      41.018  22.188   1.914  0.00  0.00     0.078 A 
HETATM    4  C   UNK N   1      42.188  21.967   2.588  0.00  0.00     0.082 A 
HETATM    5  C   UNK N   1      42.939  23.085   2.444  0.00  0.00     0.137 A 
HETATM    6  C   UNK N   1      42.675  20.892   3.317  0.00  0.00     0.171 A 
HETATM    7  C   UNK N   1      44.663  22.144   3.716  0.00  0.00     0.679 A 
HETATM    8  N   UNK N   1      39.048  20.512   1.714  0.00  0.00    -0.191 NA
HETATM    9  N   UNK N   1      45.822  22.221   4.248  0.00  0.00    -0.234 N 
ATOM     10  HN  UNK N   1      46.379  23.068   4.137  1.00  0.00     0.174 HD
HETATM   11  N   UNK N   1      42.305  24.016   1.708  0.00  0.00    -0.350 N 
HETATM   12  N   UNK N   1      44.172  23.198   2.994  0.00  0.00    -0.176 N 
HETATM   13  N   UNK N   1      43.916  21.002   3.873  0.00  0.00    -0.170 N 
ATOM     14  HN  UNK N   1      44.295  20.225   4.414  1.00  0.00     0.186 HD
HETATM   15  H   UNK N   1      46.178  21.462   4.765  0.00  0.00     0.174 HD
HETATM   16  H   UNK N   1      42.639  24.910   1.464  0.00  0.00     0.166 HD
HETATM   17  H   UNK N   1      44.702  24.020   2.877  0.00  0.00     0.186 HD
ENDROOT
BRANCH   6  18
HETATM   18  O   UNK N   1      41.952  19.770   3.476  0.00  0.00    -0.345 OA
HETATM   19  H   UNK N   1      41.747  19.236   2.734  0.00  0.00     0.219 HD
ENDBRANCH   6  18
TORSDOF 1
ENDMDL
MODEL 4
REMARK VINA RESULT:      -5.4     10.296     12.110
REMARK  1 active torsions:
REMARK  status: ('A' for Active; 'I' for Inactive)
REMARK    1  A    between atoms: C_6  and  O_15 
ROOT
HETATM    1  C   UNK N   1      33.992  17.361   8.185  0.00  0.00     0.102 C 
HETATM    2  C   UNK N   1      32.900  15.122   8.657  0.00  0.00     0.113 A 
HETATM    3  C   UNK N   1      33.805  16.146   8.929  0.00  0.00     0.078 A 
HETATM    4  C   UNK N   1      34.490  15.772  10.053  0.00  0.00     0.082 A 
HETATM    5  C   UNK N   1      33.999  14.566  10.427  0.00  0.00     0.137 A 
HETATM    6  C   UNK N   1      35.500  16.369  10.792  0.00  0.00     0.171 A 
HETATM    7  C   UNK N   1      35.461  14.488  12.253  0.00  0.00     0.679 A 
HETATM    8  N   UNK N   1      34.161  18.345   7.602  0.00  0.00    -0.191 NA
HETATM    9  N   UNK N   1      35.921  13.891  13.284  0.00  0.00    -0.234 N 
ATOM     10  HN  UNK N   1      35.547  12.982  13.556  1.00  0.00     0.174 HD
HETATM   11  N   UNK N   1      33.029  14.146   9.594  0.00  0.00    -0.350 N 
HETATM   12  N   UNK N   1      34.464  13.907  11.515  0.00  0.00    -0.176 N 
HETATM   13  N   UNK N   1      35.971  15.709  11.889  0.00  0.00    -0.170 N 
ATOM     14  HN  UNK N   1      36.714  16.130  12.447  1.00  0.00     0.186 HD
HETATM   15  H   UNK N   1      36.636  14.309  13.817  0.00  0.00     0.174 HD
HETATM   16  H   UNK N   1      32.519  13.306   9.652  0.00  0.00     0.166 HD
HETATM   17  H   UNK N   1      34.093  13.031  11.770  0.00  0.00     0.186 HD
ENDROOT
BRANCH   6  18
HETATM   18  O   UNK N   1      36.006  17.566  10.444  0.00  0.00    -0.345 OA
HETATM   19  H   UNK N   1      35.469  18.188   9.996  0.00  0.00     0.219 HD
ENDBRANCH   6  18
TORSDOF 1
ENDMDL
MODEL 5
REMARK VINA RESULT:      -5.3      9.676     11.303
REMARK  1 active torsions:
REMARK  status: ('A' for Active; 'I' for Inactive)
REMARK    1  A    between atoms: C_6  and  O_15 
ROOT
HETATM    1  C   UNK N   1      34.663  18.318   8.086  0.00  0.00     0.102 C 
HETATM    2  C   UNK N   1      33.630  16.981   6.196  0.00  0.00     0.113 A 
HETATM    3  C   UNK N   1      34.028  17.160   7.519  0.00  0.00     0.078 A 
HETATM    4  C   UNK N   1      33.696  16.012   8.185  0.00  0.00     0.082 A 
HETATM    5  C   UNK N   1      33.120  15.186   7.278  0.00  0.00     0.137 A 
HETATM    6  C   UNK N   1      33.840  15.603   9.502  0.00  0.00     0.171 A 
HETATM    7  C   UNK N   1      32.807  13.539   8.911  0.00  0.00     0.679 A 
HETATM    8  N   UNK N   1      35.174  19.238   8.565  0.00  0.00    -0.191 NA
HETATM    9  N   UNK N   1      32.392  12.382   9.258  0.00  0.00    -0.234 N 
ATOM     10  HN  UNK N   1      31.963  11.766   8.568  1.00  0.00     0.174 HD
HETATM   11  N   UNK N   1      33.067  15.751   6.058  0.00  0.00    -0.350 N 
HETATM   12  N   UNK N   1      32.670  13.954   7.613  0.00  0.00    -0.176 N 
HETATM   13  N   UNK N   1      33.388  14.362   9.844  0.00  0.00    -0.170 N 
ATOM     14  HN  UNK N   1      33.484  14.040  10.807  1.00  0.00     0.186 HD
HETATM   15  H   UNK N   1      32.487  12.084  10.192  0.00  0.00     0.174 HD
HETATM   16  H   UNK N   1      32.697  15.355   5.236  0.00  0.00     0.166 HD
HETATM   17  H   UNK N   1      32.254  13.369   6.939  0.00  0.00     0.186 HD
ENDROOT
BRANCH   6  18
HETATM   18  O   UNK N   1      34.407  16.402  10.423  0.00  0.00    -0.345 OA
HETATM   19  H   UNK N   1      34.963  17.106  10.154  0.00  0.00     0.219 HD
ENDBRANCH   6  18
TORSDOF 1
ENDMDL
MODEL 6
REMARK VINA RESULT:      -5.3      7.945      9.626
REMARK  1 active torsions:
REMARK  status: ('A' for Active; 'I' for Inactive)
REMARK    1  A    between atoms: C_6  and  O_15 
ROOT
HETATM    1  C   UNK N   1      20.937  16.716   5.276  0.00  0.00     0.102 C 
HETATM    2  C   UNK N   1      22.882  18.276   4.819  0.00  0.00     0.113 A 
HETATM    3  C   UNK N   1      21.598  17.788   4.585  0.00  0.00     0.078 A 
HETATM    4  C   UNK N   1      21.079  18.532   3.560  0.00  0.00     0.082 A 
HETATM    5  C   UNK N   1      22.030  19.428   3.206  0.00  0.00     0.137 A 
HETATM    6  C   UNK N   1      19.860  18.514   2.898  0.00  0.00     0.171 A 
HETATM    7  C   UNK N   1      20.637  20.319   1.550  0.00  0.00     0.679 A 
HETATM    8  N   UNK N   1      20.384  15.856   5.819  0.00  0.00    -0.191 NA
HETATM    9  N   UNK N   1      20.425  21.154   0.607  0.00  0.00    -0.234 N 
ATOM     10  HN  UNK N   1      21.148  21.823   0.345  1.00  0.00     0.174 HD
HETATM   11  N   UNK N   1      23.140  19.295   3.956  0.00  0.00    -0.350 N 
HETATM   12  N   UNK N   1      21.836  20.327   2.212  0.00  0.00    -0.176 N 
HETATM   13  N   UNK N   1      19.661  19.418   1.895  0.00  0.00    -0.170 N 
ATOM     14  HN  UNK N   1      18.773  19.423   1.393  1.00  0.00     0.186 HD
HETATM   15  H   UNK N   1      19.561  21.151   0.133  0.00  0.00     0.174 HD
HETATM   16  H   UNK N   1      23.967  19.826   3.894  0.00  0.00     0.166 HD
HETATM   17  H   UNK N   1      22.542  20.971   1.969  0.00  0.00     0.186 HD
ENDROOT
BRANCH   6  18
HETATM   18  O   UNK N   1      18.898  17.636   3.228  0.00  0.00    -0.345 OA
HETATM   19  H   UNK N   1      18.386  17.770   4.001  0.00  0.00     0.219 HD
ENDBRANCH   6  18
TORSDOF 1
ENDMDL
MODEL 7
REMARK VINA RESULT:      -5.2      7.826      9.893
REMARK  1 active torsions:
REMARK  status: ('A' for Active; 'I' for Inactive)
REMARK    1  A    between atoms: C_6  and  O_15 
ROOT
HETATM    1  C   UNK N   1      33.456  16.957   6.251  0.00  0.00     0.102 C 
HETATM    2  C   UNK N   1      31.310  17.128   4.911  0.00  0.00     0.113 A 
HETATM    3  C   UNK N   1      32.039  17.147   6.098  0.00  0.00     0.078 A 
HETATM    4  C   UNK N   1      31.142  17.384   7.104  0.00  0.00     0.082 A 
HETATM    5  C   UNK N   1      29.924  17.500   6.522  0.00  0.00     0.137 A 
HETATM    6  C   UNK N   1      31.269  17.510   8.479  0.00  0.00     0.171 A 
HETATM    7  C   UNK N   1      28.917  17.867   8.602  0.00  0.00     0.679 A 
HETATM    8  N   UNK N   1      34.593  16.808   6.398  0.00  0.00    -0.191 NA
HETATM    9  N   UNK N   1      27.878  18.094   9.309  0.00  0.00    -0.234 N 
ATOM     10  HN  UNK N   1      26.965  18.177   8.863  1.00  0.00     0.174 HD
HETATM   11  N   UNK N   1      29.997  17.349   5.186  0.00  0.00    -0.350 N 
HETATM   12  N   UNK N   1      28.804  17.741   7.243  0.00  0.00    -0.176 N 
HETATM   13  N   UNK N   1      30.143  17.752   9.209  0.00  0.00    -0.170 N 
ATOM     14  HN  UNK N   1      30.212  17.848  10.222  1.00  0.00     0.186 HD
HETATM   15  H   UNK N   1      27.959  18.188  10.286  0.00  0.00     0.174 HD
HETATM   16  H   UNK N   1      29.253  17.389   4.542  0.00  0.00     0.166 HD
HETATM   17  H   UNK N   1      27.927  17.822   6.800  0.00  0.00     0.186 HD
ENDROOT
BRANCH   6  18
HETATM   18  O   UNK N   1      32.465  17.399   9.083  0.00  0.00    -0.345 OA
HETATM   19  H   UNK N   1      33.060  18.123   9.081  0.00  0.00     0.219 HD
ENDBRANCH   6  18
TORSDOF 1
ENDMDL
MODEL 8
REMARK VINA RESULT:      -5.2      9.724     11.695
REMARK  1 active torsions:
REMARK  status: ('A' for Active; 'I' for Inactive)
REMARK    1  A    between atoms: C_6  and  O_15 
ROOT
HETATM    1  C   UNK N   1      31.912  16.292   7.349  0.00  0.00     0.102 C 
HETATM    2  C   UNK N   1      33.667  18.071   7.773  0.00  0.00     0.113 A 
HETATM    3  C   UNK N   1      33.029  16.864   8.049  0.00  0.00     0.078 A 
HETATM    4  C   UNK N   1      33.673  16.319   9.126  0.00  0.00     0.082 A 
HETATM    5  C   UNK N   1      34.660  17.181   9.469  0.00  0.00     0.137 A 
HETATM    6  C   UNK N   1      33.495  15.147   9.845  0.00  0.00     0.171 A 
HETATM    7  C   UNK N   1      35.331  15.786  11.223  0.00  0.00     0.679 A 
HETATM    8  N   UNK N   1      31.013  15.812   6.800  0.00  0.00    -0.191 NA
HETATM    9  N   UNK N   1      36.104  15.530  12.207  0.00  0.00    -0.234 N 
ATOM     10  HN  UNK N   1      36.842  16.187  12.460  1.00  0.00     0.174 HD
HETATM   11  N   UNK N   1      34.680  18.258   8.661  0.00  0.00    -0.350 N 
HETATM   12  N   UNK N   1      35.497  16.940  10.506  0.00  0.00    -0.176 N 
HETATM   13  N   UNK N   1      34.336  14.900  10.890  0.00  0.00    -0.170 N 
ATOM     14  HN  UNK N   1      34.223  14.044  11.434  1.00  0.00     0.186 HD
HETATM   15  H   UNK N   1      35.987  14.699  12.722  0.00  0.00     0.174 HD
HETATM   16  H   UNK N   1      35.299  19.022   8.705  0.00  0.00     0.166 HD
HETATM   17  H   UNK N   1      36.209  17.580  10.738  0.00  0.00     0.186 HD
ENDROOT
BRANCH   6  18
HETATM   18  O   UNK N   1      32.524  14.273   9.527  0.00  0.00    -0.345 OA
HETATM   19  H   UNK N   1      31.716  14.280  10.000  0.00  0.00     0.219 HD
ENDBRANCH   6  18
TORSDOF 1
ENDMDL
MODEL 9
REMARK VINA RESULT:      -5.2      9.208     10.522
REMARK  1 active torsions:
REMARK  status: ('A' for Active; 'I' for Inactive)
REMARK    1  A    between atoms: C_6  and  O_15 
ROOT
HETATM    1  C   UNK N   1      33.611  17.266   8.957  0.00  0.00     0.102 C 
HETATM    2  C   UNK N   1      31.110  16.996   8.645  0.00  0.00     0.113 A 
HETATM    3  C   UNK N   1      32.410  17.166   8.174  0.00  0.00     0.078 A 
HETATM    4  C   UNK N   1      32.326  17.221   6.810  0.00  0.00     0.082 A 
HETATM    5  C   UNK N   1      31.016  17.086   6.492  0.00  0.00     0.137 A 
HETATM    6  C   UNK N   1      33.271  17.375   5.806  0.00  0.00     0.171 A 
HETATM    7  C   UNK N   1      31.507  17.248   4.210  0.00  0.00     0.679 A 
HETATM    8  N   UNK N   1      34.591  17.348   9.565  0.00  0.00    -0.191 NA
HETATM    9  N   UNK N   1      31.130  17.261   2.990  0.00  0.00    -0.234 N 
ATOM     10  HN  UNK N   1      30.141  17.162   2.760  1.00  0.00     0.174 HD
HETATM   11  N   UNK N   1      30.252  16.948   7.591  0.00  0.00    -0.350 N 
HETATM   12  N   UNK N   1      30.584  17.096   5.209  0.00  0.00    -0.176 N 
HETATM   13  N   UNK N   1      32.840  17.385   4.512  0.00  0.00    -0.170 N 
ATOM     14  HN  UNK N   1      33.517  17.498   3.758  1.00  0.00     0.186 HD
HETATM   15  H   UNK N   1      31.794  17.367   2.270  0.00  0.00     0.174 HD
HETATM   16  H   UNK N   1      29.274  16.835   7.625  0.00  0.00     0.166 HD
HETATM   17  H   UNK N   1      29.626  16.996   4.999  0.00  0.00     0.186 HD
ENDROOT
BRANCH   6  18
HETATM   18  O   UNK N   1      34.578  17.511   6.092  0.00  0.00    -0.345 OA
HETATM   19  H   UNK N   1      34.895  17.296   6.947  0.00  0.00     0.219 HD
ENDBRANCH   6  18
TORSDOF 1
ENDMDL
