MODEL 1
REMARK VINA RESULT:      -6.9      0.000      0.000
REMARK  13 active torsions:
REMARK  status: ('A' for Active; 'I' for Inactive)
REMARK    1  A    between atoms: C_4  and  C_5 
REMARK    2  A    between atoms: C_4  and  C_12 
REMARK    3  A    between atoms: C_5  and  O_27 
REMARK    4  A    between atoms: C_7  and  C_11 
REMARK    5  A    between atoms: C_7  and  N_20 
REMARK    6  A    between atoms: C_9  and  C_14 
REMARK    7  A    between atoms: C_13  and  N_15 
REMARK    8  A    between atoms: O_22  and  P_29 
REMARK    9  A    between atoms: O_23  and  P_29 
REMARK   10  A    between atoms: O_25  and  P_30 
REMARK   11  A    between atoms: O_27  and  P_30 
REMARK   12  A    between atoms: O_28  and  P_29 
REMARK   13  A    between atoms: O_28  and  P_30 
ROOT
HETATM    1  C   UNK N   1      31.386  18.169   8.562  0.00  0.00     0.069 C 
HETATM    2  C   UNK N   1      31.620  17.299   7.381  0.00  0.00     0.022 A 
HETATM    3  C   UNK N   1      32.914  17.057   6.865  0.00  0.00     0.009 A 
HETATM    4  C   UNK N   1      31.073  15.784   5.752  0.00  0.00     0.123 A 
HETATM    5  N   UNK N   1      30.593  16.608   6.740  0.00  0.00    -0.337 N 
HETATM    6  S   UNK N   1      32.718  15.950   5.658  0.00  0.00    -0.071 SA
ENDROOT
BRANCH   3   7
HETATM    7  C   UNK N   1      34.262  17.587   7.284  0.00  0.00     0.075 C 
BRANCH   7   8
HETATM    8  C   UNK N   1      34.637  17.389   8.748  0.00  0.00     0.185 C 
BRANCH   8   9
HETATM    9  O   UNK N   1      34.977  16.050   8.977  0.00  0.00    -0.296 OA
BRANCH   9  10
HETATM   10  P   UNK N   1      34.878  15.831  10.702  0.00  0.00     0.401 P 
HETATM   11  O   UNK N   1      35.576  17.211  10.550  0.00  0.00    -0.631 OA
BRANCH  10  12
HETATM   12  O   UNK N   1      35.868  14.577  10.019  0.00  0.00    -0.307 OA
HETATM   13  H   UNK N   1      36.556  14.737   9.355  0.00  0.00     0.222 HD
ENDBRANCH  10  12
BRANCH  10  14
HETATM   14  O   UNK N   1      36.320  15.644  11.659  0.00  0.00    -0.195 OA
BRANCH  14  15
HETATM   15  P   UNK N   1      36.136  14.164  12.570  0.00  0.00     0.399 P 
HETATM   16  O   UNK N   1      36.338  14.544  14.061  0.00  0.00    -0.631 OA
BRANCH  15  17
HETATM   17  O   UNK N   1      34.548  13.464  12.468  0.00  0.00    -0.307 OA
HETATM   18  H   UNK N   1      33.749  13.539  13.013  0.00  0.00     0.222 HD
ENDBRANCH  15  17
BRANCH  15  19
HETATM   19  O   UNK N   1      37.365  13.000  12.189  0.00  0.00    -0.307 OA
HETATM   20  H   UNK N   1      38.324  13.129  12.267  0.00  0.00     0.222 HD
ENDBRANCH  15  19
ENDBRANCH  14  15
ENDBRANCH  10  14
ENDBRANCH   9  10
ENDBRANCH   8   9
ENDBRANCH   7   8
ENDBRANCH   3   7
BRANCH   5  21
HETATM   21  C   UNK N   1      29.168  16.646   7.122  0.00  0.00     0.173 C 
BRANCH  21  22
HETATM   22  C   UNK N   1      28.425  17.938   6.839  0.00  0.00     0.019 A 
HETATM   23  C   UNK N   1      28.450  18.486   5.556  0.00  0.00     0.102 A 
HETATM   24  N   UNK N   1      27.862  19.681   5.300  0.00  0.00    -0.355 N 
HETATM   25  C   UNK N   1      27.258  20.382   6.291  0.00  0.00     0.078 A 
ATOM     26  HN  UNK N   1      27.876  20.059   4.352  1.00  0.00     0.166 HD
HETATM   27  C   UNK N   1      26.641  21.702   5.990  0.00  0.00     0.089 C 
HETATM   28  N   UNK N   1      27.234  19.888   7.556  0.00  0.00    -0.332 N 
HETATM   29  C   UNK N   1      27.806  18.686   7.854  0.00  0.00     0.109 A 
ATOM     30  HN  UNK N   1      26.781  20.424   8.296  1.00  0.00     0.168 HD
BRANCH  29  31
HETATM   31  N   UNK N   1      27.791  18.222   9.185  0.00  0.00    -0.385 N 
HETATM   32  H   UNK N   1      28.108  17.341   9.490  0.00  0.00     0.157 HD
HETATM   33  H   UNK N   1      27.433  18.832   9.869  0.00  0.00     0.157 HD
ENDBRANCH  29  31
ENDBRANCH  21  22
ENDBRANCH   5  21
BRANCH   4  34
HETATM   34  C   UNK N   1      30.283  14.825   4.941  0.00  0.00     0.179 C 
HETATM   35  C   UNK N   1      29.739  15.235   3.611  0.00  0.00     0.099 C 
HETATM   36  O   UNK N   1      30.103  13.682   5.325  0.00  0.00    -0.291 OA
ENDBRANCH   4  34
TORSDOF 13
ENDMDL
MODEL 2
REMARK VINA RESULT:      -6.8      2.058      2.698
REMARK  13 active torsions:
REMARK  status: ('A' for Active; 'I' for Inactive)
REMARK    1  A    between atoms: C_4  and  C_5 
REMARK    2  A    between atoms: C_4  and  C_12 
REMARK    3  A    between atoms: C_5  and  O_27 
REMARK    4  A    between atoms: C_7  and  C_11 
REMARK    5  A    between atoms: C_7  and  N_20 
REMARK    6  A    between atoms: C_9  and  C_14 
REMARK    7  A    between atoms: C_13  and  N_15 
REMARK    8  A    between atoms: O_22  and  P_29 
REMARK    9  A    between atoms: O_23  and  P_29 
REMARK   10  A    between atoms: O_25  and  P_30 
REMARK   11  A    between atoms: O_27  and  P_30 
REMARK   12  A    between atoms: O_28  and  P_29 
REMARK   13  A    between atoms: O_28  and  P_30 
ROOT
HETATM    1  C   UNK N   1      31.785  15.994   5.046  0.00  0.00     0.069 C 
HETATM    2  C   UNK N   1      31.418  16.663   6.321  0.00  0.00     0.022 A 
HETATM    3  C   UNK N   1      32.376  17.304   7.140  0.00  0.00     0.009 A 
HETATM    4  C   UNK N   1      30.007  17.525   7.905  0.00  0.00     0.123 A 
HETATM    5  N   UNK N   1      30.101  16.765   6.765  0.00  0.00    -0.337 N 
HETATM    6  S   UNK N   1      31.522  18.011   8.362  0.00  0.00    -0.071 SA
ENDROOT
BRANCH   3   7
HETATM    7  C   UNK N   1      33.871  17.435   6.998  0.00  0.00     0.075 C 
BRANCH   7   8
HETATM    8  C   UNK N   1      34.674  17.429   8.293  0.00  0.00     0.185 C 
BRANCH   8   9
HETATM    9  O   UNK N   1      35.017  16.116   8.638  0.00  0.00    -0.296 OA
BRANCH   9  10
HETATM   10  P   UNK N   1      34.801  16.012  10.362  0.00  0.00     0.401 P 
HETATM   11  O   UNK N   1      35.414  17.425  10.156  0.00  0.00    -0.631 OA
BRANCH  10  12
HETATM   12  O   UNK N   1      35.922  14.789   9.849  0.00  0.00    -0.307 OA
HETATM   13  H   UNK N   1      36.459  14.855   9.044  0.00  0.00     0.222 HD
ENDBRANCH  10  12
BRANCH  10  14
HETATM   14  O   UNK N   1      36.174  15.999  11.431  0.00  0.00    -0.195 OA
BRANCH  14  15
HETATM   15  P   UNK N   1      36.106  14.499  12.327  0.00  0.00     0.399 P 
HETATM   16  O   UNK N   1      36.305  14.876  13.819  0.00  0.00    -0.631 OA
BRANCH  15  17
HETATM   17  O   UNK N   1      34.567  13.695  12.241  0.00  0.00    -0.307 OA
HETATM   18  H   UNK N   1      34.301  12.779  12.063  0.00  0.00     0.222 HD
ENDBRANCH  15  17
BRANCH  15  19
HETATM   19  O   UNK N   1      37.404  13.426  11.913  0.00  0.00    -0.307 OA
HETATM   20  H   UNK N   1      37.439  12.833  11.146  0.00  0.00     0.222 HD
ENDBRANCH  15  19
ENDBRANCH  14  15
ENDBRANCH  10  14
ENDBRANCH   9  10
ENDBRANCH   8   9
ENDBRANCH   7   8
ENDBRANCH   3   7
BRANCH   5  21
HETATM   21  C   UNK N   1      28.918  16.232   6.063  0.00  0.00     0.173 C 
BRANCH  21  22
HETATM   22  C   UNK N   1      28.082  17.235   5.290  0.00  0.00     0.019 A 
HETATM   23  C   UNK N   1      28.706  18.158   4.450  0.00  0.00     0.102 A 
HETATM   24  N   UNK N   1      27.986  19.115   3.814  0.00  0.00    -0.355 N 
HETATM   25  C   UNK N   1      26.646  19.211   3.998  0.00  0.00     0.078 A 
ATOM     26  HN  UNK N   1      28.457  19.772   3.191  1.00  0.00     0.166 HD
HETATM   27  C   UNK N   1      25.882  20.285   3.308  0.00  0.00     0.089 C 
HETATM   28  N   UNK N   1      26.009  18.342   4.826  0.00  0.00    -0.332 N 
HETATM   29  C   UNK N   1      26.695  17.361   5.478  0.00  0.00     0.109 A 
ATOM     30  HN  UNK N   1      25.002  18.425   4.963  1.00  0.00     0.168 HD
BRANCH  29  31
HETATM   31  N   UNK N   1      26.006  16.499   6.356  0.00  0.00    -0.385 N 
HETATM   32  H   UNK N   1      25.944  15.520   6.269  0.00  0.00     0.157 HD
HETATM   33  H   UNK N   1      25.547  16.912   7.122  0.00  0.00     0.157 HD
ENDBRANCH  29  31
ENDBRANCH  21  22
ENDBRANCH   5  21
BRANCH   4  34
HETATM   34  C   UNK N   1      28.757  17.933   8.593  0.00  0.00     0.179 C 
HETATM   35  C   UNK N   1      28.190  17.086   9.685  0.00  0.00     0.099 C 
HETATM   36  O   UNK N   1      28.201  18.980   8.309  0.00  0.00    -0.291 OA
ENDBRANCH   4  34
TORSDOF 13
ENDMDL
MODEL 3
REMARK VINA RESULT:      -6.4      1.383      2.027
REMARK  13 active torsions:
REMARK  status: ('A' for Active; 'I' for Inactive)
REMARK    1  A    between atoms: C_4  and  C_5 
REMARK    2  A    between atoms: C_4  and  C_12 
REMARK    3  A    between atoms: C_5  and  O_27 
REMARK    4  A    between atoms: C_7  and  C_11 
REMARK    5  A    between atoms: C_7  and  N_20 
REMARK    6  A    between atoms: C_9  and  C_14 
REMARK    7  A    between atoms: C_13  and  N_15 
REMARK    8  A    between atoms: O_22  and  P_29 
REMARK    9  A    between atoms: O_23  and  P_29 
REMARK   10  A    between atoms: O_25  and  P_30 
REMARK   11  A    between atoms: O_27  and  P_30 
REMARK   12  A    between atoms: O_28  and  P_29 
REMARK   13  A    between atoms: O_28  and  P_30 
ROOT
HETATM    1  C   UNK N   1      30.824  16.800   9.185  0.00  0.00     0.069 C 
HETATM    2  C   UNK N   1      31.639  16.785   7.943  0.00  0.00     0.022 A 
HETATM    3  C   UNK N   1      33.053  16.814   7.967  0.00  0.00     0.009 A 
HETATM    4  C   UNK N   1      32.035  16.566   5.699  0.00  0.00     0.123 A 
HETATM    5  N   UNK N   1      31.075  16.674   6.674  0.00  0.00    -0.337 N 
HETATM    6  S   UNK N   1      33.533  16.651   6.397  0.00  0.00    -0.071 SA
ENDROOT
BRANCH   3   7
HETATM    7  C   UNK N   1      34.022  16.907   9.119  0.00  0.00     0.075 C 
BRANCH   7   8
HETATM    8  C   UNK N   1      34.521  15.584   9.687  0.00  0.00     0.185 C 
BRANCH   8   9
HETATM    9  O   UNK N   1      35.829  15.340   9.253  0.00  0.00    -0.296 OA
BRANCH   9  10
HETATM   10  P   UNK N   1      36.587  14.439  10.535  0.00  0.00     0.401 P 
HETATM   11  O   UNK N   1      35.082  14.087  10.684  0.00  0.00    -0.631 OA
BRANCH  10  12
HETATM   12  O   UNK N   1      36.838  16.138  10.800  0.00  0.00    -0.307 OA
HETATM   13  H   UNK N   1      37.073  16.519  11.660  0.00  0.00     0.222 HD
ENDBRANCH  10  12
BRANCH  10  14
HETATM   14  O   UNK N   1      36.263  14.820  12.202  0.00  0.00    -0.195 OA
BRANCH  14  15
HETATM   15  P   UNK N   1      36.029  13.301  13.034  0.00  0.00     0.399 P 
HETATM   16  O   UNK N   1      36.712  13.454  14.419  0.00  0.00    -0.631 OA
BRANCH  15  17
HETATM   17  O   UNK N   1      34.364  12.926  13.363  0.00  0.00    -0.307 OA
HETATM   18  H   UNK N   1      33.923  12.207  13.844  0.00  0.00     0.222 HD
ENDBRANCH  15  17
BRANCH  15  19
HETATM   19  O   UNK N   1      36.828  11.984  12.235  0.00  0.00    -0.307 OA
HETATM   20  H   UNK N   1      36.978  11.896  11.281  0.00  0.00     0.222 HD
ENDBRANCH  15  19
ENDBRANCH  14  15
ENDBRANCH  10  14
ENDBRANCH   9  10
ENDBRANCH   8   9
ENDBRANCH   7   8
ENDBRANCH   3   7
BRANCH   5  21
HETATM   21  C   UNK N   1      29.631  16.568   6.386  0.00  0.00     0.173 C 
BRANCH  21  22
HETATM   22  C   UNK N   1      28.864  17.873   6.282  0.00  0.00     0.019 A 
HETATM   23  C   UNK N   1      28.363  18.477   7.436  0.00  0.00     0.102 A 
HETATM   24  N   UNK N   1      27.603  19.598   7.358  0.00  0.00    -0.355 N 
HETATM   25  C   UNK N   1      27.295  20.144   6.156  0.00  0.00     0.078 A 
ATOM     26  HN  UNK N   1      27.259  20.036   8.214  1.00  0.00     0.166 HD
HETATM   27  C   UNK N   1      26.441  21.360   6.096  0.00  0.00     0.089 C 
HETATM   28  N   UNK N   1      27.748  19.569   5.012  0.00  0.00    -0.332 N 
HETATM   29  C   UNK N   1      28.520  18.446   5.046  0.00  0.00     0.109 A 
ATOM     30  HN  UNK N   1      27.507  19.983   4.112  1.00  0.00     0.168 HD
BRANCH  29  31
HETATM   31  N   UNK N   1      28.944  17.858   3.837  0.00  0.00    -0.385 N 
HETATM   32  H   UNK N   1      28.476  17.920   2.973  0.00  0.00     0.157 HD
HETATM   33  H   UNK N   1      29.780  17.339   3.858  0.00  0.00     0.157 HD
ENDBRANCH  29  31
ENDBRANCH  21  22
ENDBRANCH   5  21
BRANCH   4  34
HETATM   34  C   UNK N   1      31.801  16.324   4.253  0.00  0.00     0.179 C 
HETATM   35  C   UNK N   1      32.450  17.200   3.231  0.00  0.00     0.099 C 
HETATM   36  O   UNK N   1      31.116  15.389   3.878  0.00  0.00    -0.291 OA
ENDBRANCH   4  34
TORSDOF 13
ENDMDL
MODEL 4
REMARK VINA RESULT:      -6.3      2.418      3.117
REMARK  13 active torsions:
REMARK  status: ('A' for Active; 'I' for Inactive)
REMARK    1  A    between atoms: C_4  and  C_5 
REMARK    2  A    between atoms: C_4  and  C_12 
REMARK    3  A    between atoms: C_5  and  O_27 
REMARK    4  A    between atoms: C_7  and  C_11 
REMARK    5  A    between atoms: C_7  and  N_20 
REMARK    6  A    between atoms: C_9  and  C_14 
REMARK    7  A    between atoms: C_13  and  N_15 
REMARK    8  A    between atoms: O_22  and  P_29 
REMARK    9  A    between atoms: O_23  and  P_29 
REMARK   10  A    between atoms: O_25  and  P_30 
REMARK   11  A    between atoms: O_27  and  P_30 
REMARK   12  A    between atoms: O_28  and  P_29 
REMARK   13  A    between atoms: O_28  and  P_30 
ROOT
HETATM    1  C   UNK N   1      29.181  18.088   7.882  0.00  0.00     0.069 C 
HETATM    2  C   UNK N   1      29.533  17.276   6.689  0.00  0.00     0.022 A 
HETATM    3  C   UNK N   1      30.874  17.007   6.328  0.00  0.00     0.009 A 
HETATM    4  C   UNK N   1      29.147  15.881   4.915  0.00  0.00     0.123 A 
HETATM    5  N   UNK N   1      28.573  16.669   5.882  0.00  0.00    -0.337 N 
HETATM    6  S   UNK N   1      30.795  15.979   5.040  0.00  0.00    -0.071 SA
ENDROOT
BRANCH   3   7
HETATM    7  C   UNK N   1      32.174  17.453   6.947  0.00  0.00     0.075 C 
BRANCH   7   8
HETATM    8  C   UNK N   1      33.404  17.390   6.048  0.00  0.00     0.185 C 
BRANCH   8   9
HETATM    9  O   UNK N   1      34.509  17.936   6.712  0.00  0.00    -0.296 OA
BRANCH   9  10
HETATM   10  P   UNK N   1      34.140  17.819   8.409  0.00  0.00     0.401 P 
HETATM   11  O   UNK N   1      34.993  19.114   8.310  0.00  0.00    -0.631 OA
BRANCH  10  12
HETATM   12  O   UNK N   1      35.082  16.440   7.930  0.00  0.00    -0.307 OA
HETATM   13  H   UNK N   1      35.501  16.351   7.060  0.00  0.00     0.222 HD
ENDBRANCH  10  12
BRANCH  10  14
HETATM   14  O   UNK N   1      35.402  17.544   9.577  0.00  0.00    -0.195 OA
BRANCH  14  15
HETATM   15  P   UNK N   1      35.085  15.988  10.309  0.00  0.00     0.399 P 
HETATM   16  O   UNK N   1      35.365  16.158  11.826  0.00  0.00    -0.631 OA
BRANCH  15  17
HETATM   17  O   UNK N   1      33.430  15.473  10.184  0.00  0.00    -0.307 OA
HETATM   18  H   UNK N   1      32.616  15.906   9.883  0.00  0.00     0.222 HD
ENDBRANCH  15  17
BRANCH  15  19
HETATM   19  O   UNK N   1      36.174  14.762   9.743  0.00  0.00    -0.307 OA
HETATM   20  H   UNK N   1      37.038  14.539  10.124  0.00  0.00     0.222 HD
ENDBRANCH  15  19
ENDBRANCH  14  15
ENDBRANCH  10  14
ENDBRANCH   9  10
ENDBRANCH   8   9
ENDBRANCH   7   8
ENDBRANCH   3   7
BRANCH   5  21
HETATM   21  C   UNK N   1      27.113  16.748   6.082  0.00  0.00     0.173 C 
BRANCH  21  22
HETATM   22  C   UNK N   1      26.362  17.733   5.206  0.00  0.00     0.019 A 
HETATM   23  C   UNK N   1      26.570  19.103   5.366  0.00  0.00     0.102 A 
HETATM   24  N   UNK N   1      25.849  20.003   4.652  0.00  0.00    -0.355 N 
HETATM   25  C   UNK N   1      24.893  19.592   3.784  0.00  0.00     0.078 A 
ATOM     26  HN  UNK N   1      26.026  21.001   4.771  1.00  0.00     0.166 HD
HETATM   27  C   UNK N   1      24.099  20.598   3.030  0.00  0.00     0.089 C 
HETATM   28  N   UNK N   1      24.650  18.265   3.619  0.00  0.00    -0.332 N 
HETATM   29  C   UNK N   1      25.358  17.328   4.312  0.00  0.00     0.109 A 
ATOM     30  HN  UNK N   1      23.925  17.965   2.967  1.00  0.00     0.168 HD
BRANCH  29  31
HETATM   31  N   UNK N   1      25.053  15.962   4.140  0.00  0.00    -0.385 N 
HETATM   32  H   UNK N   1      24.216  15.602   3.767  0.00  0.00     0.157 HD
HETATM   33  H   UNK N   1      25.737  15.311   4.417  0.00  0.00     0.157 HD
ENDBRANCH  29  31
ENDBRANCH  21  22
ENDBRANCH   5  21
BRANCH   4  34
HETATM   34  C   UNK N   1      28.434  15.004   3.953  0.00  0.00     0.179 C 
HETATM   35  C   UNK N   1      28.182  13.570   4.289  0.00  0.00     0.099 C 
HETATM   36  O   UNK N   1      28.009  15.447   2.900  0.00  0.00    -0.291 OA
ENDBRANCH   4  34
TORSDOF 13
ENDMDL
MODEL 5
REMARK VINA RESULT:      -6.3      7.400     11.049
REMARK  13 active torsions:
REMARK  status: ('A' for Active; 'I' for Inactive)
REMARK    1  A    between atoms: C_4  and  C_5 
REMARK    2  A    between atoms: C_4  and  C_12 
REMARK    3  A    between atoms: C_5  and  O_27 
REMARK    4  A    between atoms: C_7  and  C_11 
REMARK    5  A    between atoms: C_7  and  N_20 
REMARK    6  A    between atoms: C_9  and  C_14 
REMARK    7  A    between atoms: C_13  and  N_15 
REMARK    8  A    between atoms: O_22  and  P_29 
REMARK    9  A    between atoms: O_23  and  P_29 
REMARK   10  A    between atoms: O_25  and  P_30 
REMARK   11  A    between atoms: O_27  and  P_30 
REMARK   12  A    between atoms: O_28  and  P_29 
REMARK   13  A    between atoms: O_28  and  P_30 
ROOT
HETATM    1  C   UNK N   1      27.868  20.071   6.387  0.00  0.00     0.069 C 
HETATM    2  C   UNK N   1      27.129  18.859   5.947  0.00  0.00     0.022 A 
HETATM    3  C   UNK N   1      26.177  18.893   4.902  0.00  0.00     0.009 A 
HETATM    4  C   UNK N   1      26.647  16.623   5.837  0.00  0.00     0.123 A 
HETATM    5  N   UNK N   1      27.368  17.596   6.485  0.00  0.00    -0.337 N 
HETATM    6  S   UNK N   1      25.712  17.328   4.667  0.00  0.00    -0.071 SA
ENDROOT
BRANCH   3   7
HETATM    7  C   UNK N   1      25.664  20.038   4.067  0.00  0.00     0.075 C 
BRANCH   7   8
HETATM    8  C   UNK N   1      24.464  19.739   3.178  0.00  0.00     0.185 C 
BRANCH   8   9
HETATM    9  O   UNK N   1      23.480  20.719   3.355  0.00  0.00    -0.296 OA
BRANCH   9  10
HETATM   10  P   UNK N   1      22.078  20.135   2.505  0.00  0.00     0.401 P 
HETATM   11  O   UNK N   1      21.760  21.637   2.742  0.00  0.00    -0.631 OA
BRANCH  10  12
HETATM   12  O   UNK N   1      22.218  19.302   4.023  0.00  0.00    -0.307 OA
HETATM   13  H   UNK N   1      22.540  18.391   4.109  0.00  0.00     0.222 HD
ENDBRANCH  10  12
BRANCH  10  14
HETATM   14  O   UNK N   1      20.522  20.084   3.285  0.00  0.00    -0.195 OA
BRANCH  14  15
HETATM   15  P   UNK N   1      19.771  18.575   2.820  0.00  0.00     0.399 P 
HETATM   16  O   UNK N   1      20.558  18.060   1.586  0.00  0.00    -0.631 OA
BRANCH  15  17
HETATM   17  O   UNK N   1      19.895  17.325   4.021  0.00  0.00    -0.307 OA
HETATM   18  H   UNK N   1      20.275  16.432   4.019  0.00  0.00     0.222 HD
ENDBRANCH  15  17
BRANCH  15  19
HETATM   19  O   UNK N   1      18.129  18.792   2.301  0.00  0.00    -0.307 OA
HETATM   20  H   UNK N   1      17.514  19.477   2.608  0.00  0.00     0.222 HD
ENDBRANCH  15  19
ENDBRANCH  14  15
ENDBRANCH  10  14
ENDBRANCH   9  10
ENDBRANCH   8   9
ENDBRANCH   7   8
ENDBRANCH   3   7
BRANCH   5  21
HETATM   21  C   UNK N   1      28.352  17.288   7.541  0.00  0.00     0.173 C 
BRANCH  21  22
HETATM   22  C   UNK N   1      29.814  17.352   7.144  0.00  0.00     0.019 A 
HETATM   23  C   UNK N   1      30.204  16.956   5.864  0.00  0.00     0.102 A 
HETATM   24  N   UNK N   1      31.515  16.926   5.516  0.00  0.00    -0.355 N 
HETATM   25  C   UNK N   1      32.477  17.258   6.412  0.00  0.00     0.078 A 
ATOM     26  HN  UNK N   1      31.781  16.650   4.570  1.00  0.00     0.166 HD
HETATM   27  C   UNK N   1      33.909  17.194   6.013  0.00  0.00     0.089 C 
HETATM   28  N   UNK N   1      32.134  17.627   7.674  0.00  0.00    -0.332 N 
HETATM   29  C   UNK N   1      30.828  17.677   8.061  0.00  0.00     0.109 A 
ATOM     30  HN  UNK N   1      32.865  17.869   8.342  1.00  0.00     0.168 HD
BRANCH  29  31
HETATM   31  N   UNK N   1      30.512  18.031   9.389  0.00  0.00    -0.385 N 
HETATM   32  H   UNK N   1      31.150  18.084  10.137  0.00  0.00     0.157 HD
HETATM   33  H   UNK N   1      29.571  18.244   9.586  0.00  0.00     0.157 HD
ENDBRANCH  29  31
ENDBRANCH  21  22
ENDBRANCH   5  21
BRANCH   4  34
HETATM   34  C   UNK N   1      26.733  15.160   6.068  0.00  0.00     0.179 C 
HETATM   35  C   UNK N   1      25.740  14.480   6.955  0.00  0.00     0.099 C 
HETATM   36  O   UNK N   1      27.582  14.487   5.510  0.00  0.00    -0.291 OA
ENDBRANCH   4  34
TORSDOF 13
ENDMDL
MODEL 6
REMARK VINA RESULT:      -6.1      4.007      5.742
REMARK  13 active torsions:
REMARK  status: ('A' for Active; 'I' for Inactive)
REMARK    1  A    between atoms: C_4  and  C_5 
REMARK    2  A    between atoms: C_4  and  C_12 
REMARK    3  A    between atoms: C_5  and  O_27 
REMARK    4  A    between atoms: C_7  and  C_11 
REMARK    5  A    between atoms: C_7  and  N_20 
REMARK    6  A    between atoms: C_9  and  C_14 
REMARK    7  A    between atoms: C_13  and  N_15 
REMARK    8  A    between atoms: O_22  and  P_29 
REMARK    9  A    between atoms: O_23  and  P_29 
REMARK   10  A    between atoms: O_25  and  P_30 
REMARK   11  A    between atoms: O_27  and  P_30 
REMARK   12  A    between atoms: O_28  and  P_29 
REMARK   13  A    between atoms: O_28  and  P_30 
ROOT
HETATM    1  C   UNK N   1      27.398  15.161   3.862  0.00  0.00     0.069 C 
HETATM    2  C   UNK N   1      27.701  16.544   4.313  0.00  0.00     0.022 A 
HETATM    3  C   UNK N   1      28.950  16.899   4.874  0.00  0.00     0.009 A 
HETATM    4  C   UNK N   1      27.357  18.796   4.542  0.00  0.00     0.123 A 
HETATM    5  N   UNK N   1      26.805  17.600   4.155  0.00  0.00    -0.337 N 
HETATM    6  S   UNK N   1      28.892  18.532   5.102  0.00  0.00    -0.071 SA
ENDROOT
BRANCH   3   7
HETATM    7  C   UNK N   1      30.168  16.067   5.183  0.00  0.00     0.075 C 
BRANCH   7   8
HETATM    8  C   UNK N   1      31.517  16.738   4.954  0.00  0.00     0.185 C 
BRANCH   8   9
HETATM    9  O   UNK N   1      32.102  17.068   6.182  0.00  0.00    -0.296 OA
BRANCH   9  10
HETATM   10  P   UNK N   1      33.605  16.191   6.235  0.00  0.00     0.401 P 
HETATM   11  O   UNK N   1      33.086  16.112   7.697  0.00  0.00    -0.631 OA
BRANCH  10  12
HETATM   12  O   UNK N   1      33.918  17.842   5.796  0.00  0.00    -0.307 OA
HETATM   13  H   UNK N   1      33.511  18.603   6.238  0.00  0.00     0.222 HD
ENDBRANCH  10  12
BRANCH  10  14
HETATM   14  O   UNK N   1      34.953  16.792   7.159  0.00  0.00    -0.195 OA
BRANCH  14  15
HETATM   15  P   UNK N   1      34.296  17.845   8.390  0.00  0.00     0.399 P 
HETATM   16  O   UNK N   1      35.224  19.088   8.438  0.00  0.00    -0.631 OA
BRANCH  15  17
HETATM   17  O   UNK N   1      32.708  18.451   8.026  0.00  0.00    -0.307 OA
HETATM   18  H   UNK N   1      31.933  18.071   7.582  0.00  0.00     0.222 HD
ENDBRANCH  15  17
BRANCH  15  19
HETATM   19  O   UNK N   1      34.353  17.127   9.968  0.00  0.00    -0.307 OA
HETATM   20  H   UNK N   1      34.901  16.373  10.238  0.00  0.00     0.222 HD
ENDBRANCH  15  19
ENDBRANCH  14  15
ENDBRANCH  10  14
ENDBRANCH   9  10
ENDBRANCH   8   9
ENDBRANCH   7   8
ENDBRANCH   3   7
BRANCH   5  21
HETATM   21  C   UNK N   1      25.465  17.501   3.546  0.00  0.00     0.173 C 
BRANCH  21  22
HETATM   22  C   UNK N   1      24.286  17.502   4.500  0.00  0.00     0.019 A 
HETATM   23  C   UNK N   1      24.107  16.438   5.385  0.00  0.00     0.102 A 
HETATM   24  N   UNK N   1      23.015  16.378   6.188  0.00  0.00    -0.355 N 
HETATM   25  C   UNK N   1      22.062  17.339   6.132  0.00  0.00     0.078 A 
ATOM     26  HN  UNK N   1      22.910  15.600   6.840  1.00  0.00     0.166 HD
HETATM   27  C   UNK N   1      20.862  17.239   7.006  0.00  0.00     0.089 C 
HETATM   28  N   UNK N   1      22.193  18.379   5.267  0.00  0.00    -0.332 N 
HETATM   29  C   UNK N   1      23.278  18.480   4.449  0.00  0.00     0.109 A 
ATOM     30  HN  UNK N   1      21.468  19.095   5.229  1.00  0.00     0.168 HD
BRANCH  29  31
HETATM   31  N   UNK N   1      23.363  19.555   3.540  0.00  0.00    -0.385 N 
HETATM   32  H   UNK N   1      23.749  19.513   2.635  0.00  0.00     0.157 HD
HETATM   33  H   UNK N   1      23.005  20.423   3.836  0.00  0.00     0.157 HD
ENDBRANCH  29  31
ENDBRANCH  21  22
ENDBRANCH   5  21
BRANCH   4  34
HETATM   34  C   UNK N   1      26.736  20.138   4.412  0.00  0.00     0.179 C 
HETATM   35  C   UNK N   1      26.491  20.973   5.628  0.00  0.00     0.099 C 
HETATM   36  O   UNK N   1      26.457  20.594   3.317  0.00  0.00    -0.291 OA
ENDBRANCH   4  34
TORSDOF 13
ENDMDL
MODEL 7
REMARK VINA RESULT:      -6.1      7.692     10.774
REMARK  13 active torsions:
REMARK  status: ('A' for Active; 'I' for Inactive)
REMARK    1  A    between atoms: C_4  and  C_5 
REMARK    2  A    between atoms: C_4  and  C_12 
REMARK    3  A    between atoms: C_5  and  O_27 
REMARK    4  A    between atoms: C_7  and  C_11 
REMARK    5  A    between atoms: C_7  and  N_20 
REMARK    6  A    between atoms: C_9  and  C_14 
REMARK    7  A    between atoms: C_13  and  N_15 
REMARK    8  A    between atoms: O_22  and  P_29 
REMARK    9  A    between atoms: O_23  and  P_29 
REMARK   10  A    between atoms: O_25  and  P_30 
REMARK   11  A    between atoms: O_27  and  P_30 
REMARK   12  A    between atoms: O_28  and  P_29 
REMARK   13  A    between atoms: O_28  and  P_30 
ROOT
HETATM    1  C   UNK N   1      25.902  15.376   5.488  0.00  0.00     0.069 C 
HETATM    2  C   UNK N   1      25.777  16.813   5.132  0.00  0.00     0.022 A 
HETATM    3  C   UNK N   1      24.654  17.325   4.441  0.00  0.00     0.009 A 
HETATM    4  C   UNK N   1      26.326  19.035   5.164  0.00  0.00     0.123 A 
HETATM    5  N   UNK N   1      26.720  17.766   5.509  0.00  0.00    -0.337 N 
HETATM    6  S   UNK N   1      24.872  18.958   4.377  0.00  0.00    -0.071 SA
ENDROOT
BRANCH   3   7
HETATM    7  C   UNK N   1      23.431  16.635   3.891  0.00  0.00     0.075 C 
BRANCH   7   8
HETATM    8  C   UNK N   1      22.107  16.974   4.566  0.00  0.00     0.185 C 
BRANCH   8   9
HETATM    9  O   UNK N   1      22.310  17.200   5.932  0.00  0.00    -0.296 OA
BRANCH   9  10
HETATM   10  P   UNK N   1      20.730  17.129   6.659  0.00  0.00     0.401 P 
HETATM   11  O   UNK N   1      21.228  18.558   7.010  0.00  0.00    -0.631 OA
BRANCH  10  12
HETATM   12  O   UNK N   1      21.755  15.936   7.396  0.00  0.00    -0.307 OA
HETATM   13  H   UNK N   1      22.156  16.039   8.273  0.00  0.00     0.222 HD
ENDBRANCH  10  12
BRANCH  10  14
HETATM   14  O   UNK N   1      20.542  17.191   8.388  0.00  0.00    -0.195 OA
BRANCH  14  15
HETATM   15  P   UNK N   1      18.900  16.704   8.739  0.00  0.00     0.399 P 
HETATM   16  O   UNK N   1      18.226  16.432   7.368  0.00  0.00    -0.631 OA
BRANCH  15  17
HETATM   17  O   UNK N   1      18.781  15.218   9.632  0.00  0.00    -0.307 OA
HETATM   18  H   UNK N   1      18.150  14.480   9.621  0.00  0.00     0.222 HD
ENDBRANCH  15  17
BRANCH  15  19
HETATM   19  O   UNK N   1      17.986  17.971   9.494  0.00  0.00    -0.307 OA
HETATM   20  H   UNK N   1      17.052  17.931   9.752  0.00  0.00     0.222 HD
ENDBRANCH  15  19
ENDBRANCH  14  15
ENDBRANCH  10  14
ENDBRANCH   9  10
ENDBRANCH   8   9
ENDBRANCH   7   8
ENDBRANCH   3   7
BRANCH   5  21
HETATM   21  C   UNK N   1      27.947  17.496   6.284  0.00  0.00     0.173 C 
BRANCH  21  22
HETATM   22  C   UNK N   1      29.234  17.365   5.491  0.00  0.00     0.019 A 
HETATM   23  C   UNK N   1      29.184  17.255   4.101  0.00  0.00     0.102 A 
HETATM   24  N   UNK N   1      30.316  17.053   3.380  0.00  0.00    -0.355 N 
HETATM   25  C   UNK N   1      31.517  16.932   3.996  0.00  0.00     0.078 A 
ATOM     26  HN  UNK N   1      30.263  16.991   2.363  1.00  0.00     0.166 HD
HETATM   27  C   UNK N   1      32.740  16.688   3.186  0.00  0.00     0.089 C 
HETATM   28  N   UNK N   1      31.598  17.013   5.350  0.00  0.00    -0.332 N 
HETATM   29  C   UNK N   1      30.486  17.223   6.111  0.00  0.00     0.109 A 
ATOM     30  HN  UNK N   1      32.505  16.916   5.806  1.00  0.00     0.168 HD
BRANCH  29  31
HETATM   31  N   UNK N   1      30.605  17.267   7.515  0.00  0.00    -0.385 N 
HETATM   32  H   UNK N   1      30.632  16.486   8.115  0.00  0.00     0.157 HD
HETATM   33  H   UNK N   1      30.667  18.156   7.933  0.00  0.00     0.157 HD
ENDBRANCH  29  31
ENDBRANCH  21  22
ENDBRANCH   5  21
BRANCH   4  34
HETATM   34  C   UNK N   1      27.025  20.300   5.503  0.00  0.00     0.179 C 
HETATM   35  C   UNK N   1      26.503  21.177   6.594  0.00  0.00     0.099 C 
HETATM   36  O   UNK N   1      28.052  20.619   4.930  0.00  0.00    -0.291 OA
ENDBRANCH   4  34
TORSDOF 13
ENDMDL
MODEL 8
REMARK VINA RESULT:      -6.1     14.609     16.423
REMARK  13 active torsions:
REMARK  status: ('A' for Active; 'I' for Inactive)
REMARK    1  A    between atoms: C_4  and  C_5 
REMARK    2  A    between atoms: C_4  and  C_12 
REMARK    3  A    between atoms: C_5  and  O_27 
REMARK    4  A    between atoms: C_7  and  C_11 
REMARK    5  A    between atoms: C_7  and  N_20 
REMARK    6  A    between atoms: C_9  and  C_14 
REMARK    7  A    between atoms: C_13  and  N_15 
REMARK    8  A    between atoms: O_22  and  P_29 
REMARK    9  A    between atoms: O_23  and  P_29 
REMARK   10  A    between atoms: O_25  and  P_30 
REMARK   11  A    between atoms: O_27  and  P_30 
REMARK   12  A    between atoms: O_28  and  P_29 
REMARK   13  A    between atoms: O_28  and  P_30 
ROOT
HETATM    1  C   UNK N   1      29.244  25.826  -6.813  0.00  0.00     0.069 C 
HETATM    2  C   UNK N   1      28.866  26.546  -5.569  0.00  0.00     0.022 A 
HETATM    3  C   UNK N   1      29.797  26.815  -4.539  0.00  0.00     0.009 A 
HETATM    4  C   UNK N   1      27.520  27.782  -4.190  0.00  0.00     0.123 A 
HETATM    5  N   UNK N   1      27.590  27.063  -5.358  0.00  0.00    -0.337 N 
HETATM    6  S   UNK N   1      28.990  27.732  -3.431  0.00  0.00    -0.071 SA
ENDROOT
BRANCH   3   7
HETATM    7  C   UNK N   1      31.254  26.452  -4.403  0.00  0.00     0.075 C 
BRANCH   7   8
HETATM    8  C   UNK N   1      31.555  25.003  -4.038  0.00  0.00     0.185 C 
BRANCH   8   9
HETATM    9  O   UNK N   1      30.757  24.606  -2.958  0.00  0.00    -0.296 OA
BRANCH   9  10
HETATM   10  P   UNK N   1      30.472  22.904  -3.186  0.00  0.00     0.401 P 
HETATM   11  O   UNK N   1      30.708  23.031  -1.656  0.00  0.00    -0.631 OA
BRANCH  10  12
HETATM   12  O   UNK N   1      31.902  23.370  -4.057  0.00  0.00    -0.307 OA
HETATM   13  H   UNK N   1      32.590  22.745  -4.335  0.00  0.00     0.222 HD
ENDBRANCH  10  12
BRANCH  10  14
HETATM   14  O   UNK N   1      31.735  21.743  -2.891  0.00  0.00    -0.195 OA
BRANCH  14  15
HETATM   15  P   UNK N   1      31.949  20.838  -4.371  0.00  0.00     0.399 P 
HETATM   16  O   UNK N   1      30.651  21.043  -5.197  0.00  0.00    -0.631 OA
BRANCH  15  17
HETATM   17  O   UNK N   1      33.246  21.417  -5.372  0.00  0.00    -0.307 OA
HETATM   18  H   UNK N   1      34.137  21.754  -5.183  0.00  0.00     0.222 HD
ENDBRANCH  15  17
BRANCH  15  19
HETATM   19  O   UNK N   1      32.084  19.132  -4.084  0.00  0.00    -0.307 OA
HETATM   20  H   UNK N   1      31.403  18.557  -3.701  0.00  0.00     0.222 HD
ENDBRANCH  15  19
ENDBRANCH  14  15
ENDBRANCH  10  14
ENDBRANCH   9  10
ENDBRANCH   8   9
ENDBRANCH   7   8
ENDBRANCH   3   7
BRANCH   5  21
HETATM   21  C   UNK N   1      26.460  26.967  -6.303  0.00  0.00     0.173 C 
BRANCH  21  22
HETATM   22  C   UNK N   1      25.949  25.572  -6.608  0.00  0.00     0.019 A 
HETATM   23  C   UNK N   1      25.804  24.645  -5.575  0.00  0.00     0.102 A 
HETATM   24  N   UNK N   1      25.429  23.368  -5.837  0.00  0.00    -0.355 N 
HETATM   25  C   UNK N   1      25.208  22.958  -7.109  0.00  0.00     0.078 A 
ATOM     26  HN  UNK N   1      25.312  22.707  -5.067  1.00  0.00     0.166 HD
HETATM   27  C   UNK N   1      24.819  21.546  -7.373  0.00  0.00     0.089 C 
HETATM   28  N   UNK N   1      25.360  23.829  -8.141  0.00  0.00    -0.332 N 
HETATM   29  C   UNK N   1      25.729  25.123  -7.921  0.00  0.00     0.109 A 
ATOM     30  HN  UNK N   1      25.197  23.510  -9.096  1.00  0.00     0.168 HD
BRANCH  29  31
HETATM   31  N   UNK N   1      25.911  25.989  -9.019  0.00  0.00    -0.385 N 
HETATM   32  H   UNK N   1      25.784  26.965  -9.008  0.00  0.00     0.157 HD
HETATM   33  H   UNK N   1      26.190  25.581  -9.870  0.00  0.00     0.157 HD
ENDBRANCH  29  31
ENDBRANCH  21  22
ENDBRANCH   5  21
BRANCH   4  34
HETATM   34  C   UNK N   1      26.354  28.561  -3.701  0.00  0.00     0.179 C 
HETATM   35  C   UNK N   1      26.250  30.022  -3.999  0.00  0.00     0.099 C 
HETATM   36  O   UNK N   1      25.450  28.017  -3.091  0.00  0.00    -0.291 OA
ENDBRANCH   4  34
TORSDOF 13
ENDMDL
MODEL 9
REMARK VINA RESULT:      -6.0      7.245      9.528
REMARK  13 active torsions:
REMARK  status: ('A' for Active; 'I' for Inactive)
REMARK    1  A    between atoms: C_4  and  C_5 
REMARK    2  A    between atoms: C_4  and  C_12 
REMARK    3  A    between atoms: C_5  and  O_27 
REMARK    4  A    between atoms: C_7  and  C_11 
REMARK    5  A    between atoms: C_7  and  N_20 
REMARK    6  A    between atoms: C_9  and  C_14 
REMARK    7  A    between atoms: C_13  and  N_15 
REMARK    8  A    between atoms: O_22  and  P_29 
REMARK    9  A    between atoms: O_23  and  P_29 
REMARK   10  A    between atoms: O_25  and  P_30 
REMARK   11  A    between atoms: O_27  and  P_30 
REMARK   12  A    between atoms: O_28  and  P_29 
REMARK   13  A    between atoms: O_28  and  P_30 
ROOT
HETATM    1  C   UNK N   1      24.364  12.839   5.580  0.00  0.00     0.069 C 
HETATM    2  C   UNK N   1      23.770  14.181   5.812  0.00  0.00     0.022 A 
HETATM    3  C   UNK N   1      24.303  15.353   5.229  0.00  0.00     0.009 A 
HETATM    4  C   UNK N   1      22.199  15.680   6.537  0.00  0.00     0.123 A 
HETATM    5  N   UNK N   1      22.613  14.371   6.564  0.00  0.00    -0.337 N 
HETATM    6  S   UNK N   1      23.269  16.571   5.642  0.00  0.00    -0.071 SA
ENDROOT
BRANCH   3   7
HETATM    7  C   UNK N   1      25.509  15.561   4.348  0.00  0.00     0.075 C 
BRANCH   7   8
HETATM    8  C   UNK N   1      26.679  16.310   4.974  0.00  0.00     0.185 C 
BRANCH   8   9
HETATM    9  O   UNK N   1      26.675  17.644   4.549  0.00  0.00    -0.296 OA
BRANCH   9  10
HETATM   10  P   UNK N   1      27.850  18.456   5.545  0.00  0.00     0.401 P 
HETATM   11  O   UNK N   1      28.700  17.438   4.735  0.00  0.00    -0.631 OA
BRANCH  10  12
HETATM   12  O   UNK N   1      26.715  17.620   6.560  0.00  0.00    -0.307 OA
HETATM   13  H   UNK N   1      25.793  17.896   6.678  0.00  0.00     0.222 HD
ENDBRANCH  10  12
BRANCH  10  14
HETATM   14  O   UNK N   1      28.710  17.593   6.788  0.00  0.00    -0.195 OA
BRANCH  14  15
HETATM   15  P   UNK N   1      28.234  18.296   8.316  0.00  0.00     0.399 P 
HETATM   16  O   UNK N   1      29.546  18.728   9.023  0.00  0.00    -0.631 OA
BRANCH  15  17
HETATM   17  O   UNK N   1      27.278  19.740   8.162  0.00  0.00    -0.307 OA
HETATM   18  H   UNK N   1      26.633  20.179   8.739  0.00  0.00     0.222 HD
ENDBRANCH  15  17
BRANCH  15  19
HETATM   19  O   UNK N   1      27.470  17.140   9.360  0.00  0.00    -0.307 OA
HETATM   20  H   UNK N   1      27.869  16.327   9.708  0.00  0.00     0.222 HD
ENDBRANCH  15  19
ENDBRANCH  14  15
ENDBRANCH  10  14
ENDBRANCH   9  10
ENDBRANCH   8   9
ENDBRANCH   7   8
ENDBRANCH   3   7
BRANCH   5  21
HETATM   21  C   UNK N   1      21.837  13.304   7.226  0.00  0.00     0.173 C 
BRANCH  21  22
HETATM   22  C   UNK N   1      22.207  12.991   8.664  0.00  0.00     0.019 A 
HETATM   23  C   UNK N   1      23.341  12.226   8.938  0.00  0.00     0.102 A 
HETATM   24  N   UNK N   1      23.644  11.864  10.209  0.00  0.00    -0.355 N 
HETATM   25  C   UNK N   1      22.838  12.218  11.240  0.00  0.00     0.078 A 
ATOM     26  HN  UNK N   1      24.486  11.318  10.393  1.00  0.00     0.166 HD
HETATM   27  C   UNK N   1      23.179  11.789  12.623  0.00  0.00     0.089 C 
HETATM   28  N   UNK N   1      21.714  12.944  11.007  0.00  0.00    -0.332 N 
HETATM   29  C   UNK N   1      21.378  13.335   9.745  0.00  0.00     0.109 A 
ATOM     30  HN  UNK N   1      21.111  13.202  11.788  1.00  0.00     0.168 HD
BRANCH  29  31
HETATM   31  N   UNK N   1      20.185  14.058   9.537  0.00  0.00    -0.385 N 
HETATM   32  H   UNK N   1      19.305  13.836   9.917  0.00  0.00     0.157 HD
HETATM   33  H   UNK N   1      20.238  14.855   8.962  0.00  0.00     0.157 HD
ENDBRANCH  29  31
ENDBRANCH  21  22
ENDBRANCH   5  21
BRANCH   4  34
HETATM   34  C   UNK N   1      20.953  16.225   7.132  0.00  0.00     0.179 C 
HETATM   35  C   UNK N   1      19.666  16.154   6.374  0.00  0.00     0.099 C 
HETATM   36  O   UNK N   1      20.950  16.696   8.256  0.00  0.00    -0.291 OA
ENDBRANCH   4  34
TORSDOF 13
ENDMDL
