MODEL 1
REMARK VINA RESULT:      -5.2      0.000      0.000
REMARK  8 active torsions:
REMARK  status: ('A' for Active; 'I' for Inactive)
REMARK    1  A    between atoms: S_1  and  N_4 
REMARK    2  A    between atoms: S_1  and  C_7 
REMARK    3  A    between atoms: C_10  and  N_11 
REMARK    4  A    between atoms: N_11  and  C_12 
REMARK    5  A    between atoms: C_12  and  O_14 
REMARK    6  A    between atoms: O_14  and  C_15 
REMARK    7  A    between atoms: C_15  and  C_16 
REMARK    8  A    between atoms: C_16  and  C_17 
ROOT
HETATM    1  C   UNK N   1      27.257  27.263  -7.347  0.00  0.00     0.031 A 
HETATM    2  C   UNK N   1      27.618  28.057  -6.263  0.00  0.00     0.027 A 
HETATM    3  C   UNK N   1      26.716  28.266  -5.218  0.00  0.00     0.079 A 
HETATM    4  C   UNK N   1      25.459  27.646  -5.248  0.00  0.00     0.027 A 
HETATM    5  C   UNK N   1      25.102  26.843  -6.340  0.00  0.00     0.031 A 
HETATM    6  C   UNK N   1      25.995  26.657  -7.407  0.00  0.00     0.034 A 
ENDROOT
BRANCH   6   7
HETATM    7  N   UNK N   1      25.580  25.867  -8.525  0.00  0.00    -0.328 N 
HETATM    8  H   UNK N   1      25.153  26.363  -9.260  0.00  0.00     0.169 HD
BRANCH   7   9
HETATM    9  C   UNK N   1      25.702  24.448  -8.723  0.00  0.00     0.214 C 
HETATM   10  S   UNK N   1      26.373  23.897  -9.884  0.00  0.00    -0.033 SA
BRANCH   9  11
HETATM   11  O   UNK N   1      25.137  23.625  -7.792  0.00  0.00    -0.327 OA
BRANCH  11  12
HETATM   12  C   UNK N   1      25.845  22.817  -6.920  0.00  0.00     0.183 C 
BRANCH  12  13
HETATM   13  C   UNK N   1      25.870  23.438  -5.536  0.00  0.00     0.066 C 
BRANCH  13  14
HETATM   14  C   UNK N   1      27.212  24.028  -5.253  0.00  0.00    -0.049 A 
HETATM   15  C   UNK N   1      27.476  24.782  -4.077  0.00  0.00     0.015 A 
HETATM   16  C   UNK N   1      28.790  25.253  -4.002  0.00  0.00     0.050 A 
HETATM   17  S   UNK N   1      29.539  24.719  -5.383  0.00  0.00    -0.113 SA
HETATM   18  C   UNK N   1      28.301  23.899  -6.118  0.00  0.00     0.056 A 
ENDBRANCH  13  14
ENDBRANCH  12  13
ENDBRANCH  11  12
ENDBRANCH   9  11
ENDBRANCH   7   9
ENDBRANCH   6   7
BRANCH   3  19
HETATM   19  S   UNK N   1      27.186  29.321  -3.848  0.00  0.00     0.256 S 
HETATM   20  O   UNK N   1      28.056  28.869  -2.666  0.00  0.00    -0.201 OA
HETATM   21  O   UNK N   1      26.276  30.460  -3.367  0.00  0.00    -0.201 OA
BRANCH  19  22
HETATM   22  N   UNK N   1      25.981  28.284  -3.077  0.00  0.00    -0.324 N 
HETATM   23  H   UNK N   1      25.439  27.590  -2.562  0.00  0.00     0.169 HD
HETATM   24  H   UNK N   1      25.172  28.789  -3.439  0.00  0.00     0.169 HD
ENDBRANCH  19  22
ENDBRANCH   3  19
TORSDOF 8
ENDMDL
MODEL 2
REMARK VINA RESULT:      -5.2     14.162     16.410
REMARK  8 active torsions:
REMARK  status: ('A' for Active; 'I' for Inactive)
REMARK    1  A    between atoms: S_1  and  N_4 
REMARK    2  A    between atoms: S_1  and  C_7 
REMARK    3  A    between atoms: C_10  and  N_11 
REMARK    4  A    between atoms: N_11  and  C_12 
REMARK    5  A    between atoms: C_12  and  O_14 
REMARK    6  A    between atoms: O_14  and  C_15 
REMARK    7  A    between atoms: C_15  and  C_16 
REMARK    8  A    between atoms: C_16  and  C_17 
ROOT
HETATM    1  C   UNK N   1      29.145  18.158   8.820  0.00  0.00     0.031 A 
HETATM    2  C   UNK N   1      28.279  18.792   7.934  0.00  0.00     0.027 A 
HETATM    3  C   UNK N   1      28.364  18.530   6.565  0.00  0.00     0.079 A 
HETATM    4  C   UNK N   1      29.301  17.602   6.091  0.00  0.00     0.027 A 
HETATM    5  C   UNK N   1      30.167  16.963   6.987  0.00  0.00     0.031 A 
HETATM    6  C   UNK N   1      30.105  17.247   8.360  0.00  0.00     0.034 A 
ENDROOT
BRANCH   6   7
HETATM    7  N   UNK N   1      31.034  16.609   9.241  0.00  0.00    -0.328 N 
HETATM    8  H   UNK N   1      30.777  16.595  10.192  0.00  0.00     0.169 HD
BRANCH   7   9
HETATM    9  C   UNK N   1      32.291  15.986   8.931  0.00  0.00     0.214 C 
HETATM   10  S   UNK N   1      32.399  14.556   8.714  0.00  0.00    -0.033 SA
BRANCH   9  11
HETATM   11  O   UNK N   1      33.399  16.781   8.873  0.00  0.00    -0.327 OA
BRANCH  11  12
HETATM   12  C   UNK N   1      34.284  16.826   7.810  0.00  0.00     0.183 C 
BRANCH  12  13
HETATM   13  C   UNK N   1      33.771  17.775   6.743  0.00  0.00     0.066 C 
BRANCH  13  14
HETATM   14  C   UNK N   1      33.544  17.045   5.461  0.00  0.00    -0.049 A 
HETATM   15  C   UNK N   1      32.833  17.623   4.374  0.00  0.00     0.015 A 
HETATM   16  C   UNK N   1      32.722  16.776   3.268  0.00  0.00     0.050 A 
HETATM   17  S   UNK N   1      33.499  15.374   3.697  0.00  0.00    -0.113 SA
HETATM   18  C   UNK N   1      33.996  15.742   5.233  0.00  0.00     0.056 A 
ENDBRANCH  13  14
ENDBRANCH  12  13
ENDBRANCH  11  12
ENDBRANCH   9  11
ENDBRANCH   7   9
ENDBRANCH   6   7
BRANCH   3  19
HETATM   19  S   UNK N   1      27.265  19.384   5.436  0.00  0.00     0.256 S 
HETATM   20  O   UNK N   1      27.394  20.866   5.058  0.00  0.00    -0.201 OA
HETATM   21  O   UNK N   1      25.790  18.978   5.296  0.00  0.00    -0.201 OA
BRANCH  19  22
HETATM   22  N   UNK N   1      26.740  20.050   6.987  0.00  0.00    -0.324 N 
HETATM   23  H   UNK N   1      26.598  20.349   7.951  0.00  0.00     0.169 HD
HETATM   24  H   UNK N   1      25.899  20.498   6.621  0.00  0.00     0.169 HD
ENDBRANCH  19  22
ENDBRANCH   3  19
TORSDOF 8
ENDMDL
MODEL 3
REMARK VINA RESULT:      -5.2     21.922     24.072
REMARK  8 active torsions:
REMARK  status: ('A' for Active; 'I' for Inactive)
REMARK    1  A    between atoms: S_1  and  N_4 
REMARK    2  A    between atoms: S_1  and  C_7 
REMARK    3  A    between atoms: C_10  and  N_11 
REMARK    4  A    between atoms: N_11  and  C_12 
REMARK    5  A    between atoms: C_12  and  O_14 
REMARK    6  A    between atoms: O_14  and  C_15 
REMARK    7  A    between atoms: C_15  and  C_16 
REMARK    8  A    between atoms: C_16  and  C_17 
ROOT
HETATM    1  C   UNK N   1      34.078  14.050   9.703  0.00  0.00     0.031 A 
HETATM    2  C   UNK N   1      34.077  15.113   8.804  0.00  0.00     0.027 A 
HETATM    3  C   UNK N   1      34.593  16.352   9.187  0.00  0.00     0.079 A 
HETATM    4  C   UNK N   1      35.143  16.513  10.466  0.00  0.00     0.027 A 
HETATM    5  C   UNK N   1      35.146  15.438  11.365  0.00  0.00     0.031 A 
HETATM    6  C   UNK N   1      34.600  14.200  10.995  0.00  0.00     0.034 A 
ENDROOT
BRANCH   6   7
HETATM    7  N   UNK N   1      34.580  13.138  11.952  0.00  0.00    -0.328 N 
HETATM    8  H   UNK N   1      33.906  12.438  11.796  0.00  0.00     0.169 HD
BRANCH   7   9
HETATM    9  C   UNK N   1      35.409  12.952  13.112  0.00  0.00     0.214 C 
HETATM   10  S   UNK N   1      36.691  12.280  13.031  0.00  0.00    -0.033 SA
BRANCH   9  11
HETATM   11  O   UNK N   1      34.938  13.406  14.310  0.00  0.00    -0.327 OA
BRANCH  11  12
HETATM   12  C   UNK N   1      35.695  13.521  15.463  0.00  0.00     0.183 C 
BRANCH  12  13
HETATM   13  C   UNK N   1      34.862  13.150  16.675  0.00  0.00     0.066 C 
BRANCH  13  14
HETATM   14  C   UNK N   1      35.407  11.924  17.328  0.00  0.00    -0.049 A 
HETATM   15  C   UNK N   1      35.332  11.714  18.732  0.00  0.00     0.015 A 
HETATM   16  C   UNK N   1      35.906  10.509  19.147  0.00  0.00     0.050 A 
HETATM   17  S   UNK N   1      36.470   9.782  17.765  0.00  0.00    -0.113 SA
HETATM   18  C   UNK N   1      36.040  10.898  16.620  0.00  0.00     0.056 A 
ENDBRANCH  13  14
ENDBRANCH  12  13
ENDBRANCH  11  12
ENDBRANCH   9  11
ENDBRANCH   7   9
ENDBRANCH   6   7
BRANCH   3  19
HETATM   19  S   UNK N   1      34.550  17.719   8.028  0.00  0.00     0.256 S 
HETATM   20  O   UNK N   1      34.922  19.166   8.383  0.00  0.00    -0.201 OA
HETATM   21  O   UNK N   1      33.545  17.752   6.867  0.00  0.00    -0.201 OA
BRANCH  19  22
HETATM   22  N   UNK N   1      33.130  18.072   9.020  0.00  0.00    -0.324 N 
HETATM   23  H   UNK N   1      32.259  18.092   9.550  0.00  0.00     0.169 HD
HETATM   24  H   UNK N   1      33.401  19.029   9.243  0.00  0.00     0.169 HD
ENDBRANCH  19  22
ENDBRANCH   3  19
TORSDOF 8
ENDMDL
MODEL 4
REMARK VINA RESULT:      -4.9     22.015     24.180
REMARK  8 active torsions:
REMARK  status: ('A' for Active; 'I' for Inactive)
REMARK    1  A    between atoms: S_1  and  N_4 
REMARK    2  A    between atoms: S_1  and  C_7 
REMARK    3  A    between atoms: C_10  and  N_11 
REMARK    4  A    between atoms: N_11  and  C_12 
REMARK    5  A    between atoms: C_12  and  O_14 
REMARK    6  A    between atoms: O_14  and  C_15 
REMARK    7  A    between atoms: C_15  and  C_16 
REMARK    8  A    between atoms: C_16  and  C_17 
ROOT
HETATM    1  C   UNK N   1      36.079  15.672  11.514  0.00  0.00     0.031 A 
HETATM    2  C   UNK N   1      35.312  16.570  10.778  0.00  0.00     0.027 A 
HETATM    3  C   UNK N   1      34.986  16.286   9.450  0.00  0.00     0.079 A 
HETATM    4  C   UNK N   1      35.404  15.079   8.873  0.00  0.00     0.027 A 
HETATM    5  C   UNK N   1      36.170  14.176   9.621  0.00  0.00     0.031 A 
HETATM    6  C   UNK N   1      36.527  14.472  10.946  0.00  0.00     0.034 A 
ENDROOT
BRANCH   6   7
HETATM    7  N   UNK N   1      37.347  13.548  11.665  0.00  0.00    -0.328 N 
HETATM    8  H   UNK N   1      38.316  13.633  11.513  0.00  0.00     0.169 HD
BRANCH   7   9
HETATM    9  C   UNK N   1      36.952  12.512  12.579  0.00  0.00     0.214 C 
HETATM   10  S   UNK N   1      37.005  11.111  12.211  0.00  0.00    -0.033 SA
BRANCH   9  11
HETATM   11  O   UNK N   1      36.494  12.888  13.809  0.00  0.00    -0.327 OA
BRANCH  11  12
HETATM   12  C   UNK N   1      36.051  12.016  14.787  0.00  0.00     0.183 C 
BRANCH  12  13
HETATM   13  C   UNK N   1      34.938  12.657  15.595  0.00  0.00     0.066 C 
BRANCH  13  14
HETATM   14  C   UNK N   1      35.102  12.347  17.047  0.00  0.00    -0.049 A 
HETATM   15  C   UNK N   1      35.086  13.359  18.044  0.00  0.00     0.015 A 
HETATM   16  C   UNK N   1      35.262  12.865  19.340  0.00  0.00     0.050 A 
HETATM   17  S   UNK N   1      35.430  11.222  19.176  0.00  0.00    -0.113 SA
HETATM   18  C   UNK N   1      35.295  11.052  17.534  0.00  0.00     0.056 A 
ENDBRANCH  13  14
ENDBRANCH  12  13
ENDBRANCH  11  12
ENDBRANCH   9  11
ENDBRANCH   7   9
ENDBRANCH   6   7
BRANCH   3  19
HETATM   19  S   UNK N   1      34.029  17.472   8.506  0.00  0.00     0.256 S 
HETATM   20  O   UNK N   1      32.495  17.487   8.437  0.00  0.00    -0.201 OA
HETATM   21  O   UNK N   1      34.575  18.090   7.211  0.00  0.00    -0.201 OA
BRANCH  19  22
HETATM   22  N   UNK N   1      33.843  16.021   7.514  0.00  0.00    -0.324 N 
HETATM   23  H   UNK N   1      33.544  15.223   6.954  0.00  0.00     0.169 HD
HETATM   24  H   UNK N   1      34.841  15.824   7.441  0.00  0.00     0.169 HD
ENDBRANCH  19  22
ENDBRANCH   3  19
TORSDOF 8
ENDMDL
MODEL 5
REMARK VINA RESULT:      -4.8     21.288     23.535
REMARK  8 active torsions:
REMARK  status: ('A' for Active; 'I' for Inactive)
REMARK    1  A    between atoms: S_1  and  N_4 
REMARK    2  A    between atoms: S_1  and  C_7 
REMARK    3  A    between atoms: C_10  and  N_11 
REMARK    4  A    between atoms: N_11  and  C_12 
REMARK    5  A    between atoms: C_12  and  O_14 
REMARK    6  A    between atoms: O_14  and  C_15 
REMARK    7  A    between atoms: C_15  and  C_16 
REMARK    8  A    between atoms: C_16  and  C_17 
ROOT
HETATM    1  C   UNK N   1      35.790  13.621  10.457  0.00  0.00     0.031 A 
HETATM    2  C   UNK N   1      35.245  14.231   9.332  0.00  0.00     0.027 A 
HETATM    3  C   UNK N   1      35.068  15.615   9.304  0.00  0.00     0.079 A 
HETATM    4  C   UNK N   1      35.473  16.391  10.398  0.00  0.00     0.027 A 
HETATM    5  C   UNK N   1      36.027  15.772  11.527  0.00  0.00     0.031 A 
HETATM    6  C   UNK N   1      36.177  14.378  11.571  0.00  0.00     0.034 A 
ENDROOT
BRANCH   6   7
HETATM    7  N   UNK N   1      36.705  13.776  12.756  0.00  0.00    -0.328 N 
HETATM    8  H   UNK N   1      37.596  13.367  12.664  0.00  0.00     0.169 HD
BRANCH   7   9
HETATM    9  C   UNK N   1      36.114  13.685  14.063  0.00  0.00     0.214 C 
HETATM   10  S   UNK N   1      36.811  14.147  15.247  0.00  0.00    -0.033 SA
BRANCH   9  11
HETATM   11  O   UNK N   1      34.876  13.119  14.163  0.00  0.00    -0.327 OA
BRANCH  11  12
HETATM   12  C   UNK N   1      34.491  12.233  15.154  0.00  0.00     0.183 C 
BRANCH  12  13
HETATM   13  C   UNK N   1      33.665  11.108  14.559  0.00  0.00     0.066 C 
BRANCH  13  14
HETATM   14  C   UNK N   1      34.444  10.386  13.510  0.00  0.00    -0.049 A 
HETATM   15  C   UNK N   1      33.986  10.272  12.169  0.00  0.00     0.015 A 
HETATM   16  C   UNK N   1      34.856   9.552  11.344  0.00  0.00     0.050 A 
HETATM   17  S   UNK N   1      36.125   9.102  12.314  0.00  0.00    -0.113 SA
HETATM   18  C   UNK N   1      35.668   9.761  13.763  0.00  0.00     0.056 A 
ENDBRANCH  13  14
ENDBRANCH  12  13
ENDBRANCH  11  12
ENDBRANCH   9  11
ENDBRANCH   7   9
ENDBRANCH   6   7
BRANCH   3  19
HETATM   19  S   UNK N   1      34.330  16.379   7.860  0.00  0.00     0.256 S 
HETATM   20  O   UNK N   1      34.626  17.812   7.392  0.00  0.00    -0.201 OA
HETATM   21  O   UNK N   1      32.918  16.002   7.389  0.00  0.00    -0.201 OA
BRANCH  19  22
HETATM   22  N   UNK N   1      33.471  17.214   9.160  0.00  0.00    -0.324 N 
HETATM   23  H   UNK N   1      32.980  17.848   9.789  0.00  0.00     0.169 HD
HETATM   24  H   UNK N   1      33.442  16.411   9.789  0.00  0.00     0.169 HD
ENDBRANCH  19  22
ENDBRANCH   3  19
TORSDOF 8
ENDMDL
MODEL 6
REMARK VINA RESULT:      -4.8     17.691     20.013
REMARK  8 active torsions:
REMARK  status: ('A' for Active; 'I' for Inactive)
REMARK    1  A    between atoms: S_1  and  N_4 
REMARK    2  A    between atoms: S_1  and  C_7 
REMARK    3  A    between atoms: C_10  and  N_11 
REMARK    4  A    between atoms: N_11  and  C_12 
REMARK    5  A    between atoms: C_12  and  O_14 
REMARK    6  A    between atoms: O_14  and  C_15 
REMARK    7  A    between atoms: C_15  and  C_16 
REMARK    8  A    between atoms: C_16  and  C_17 
ROOT
HETATM    1  C   UNK N   1      35.433  16.720  10.684  0.00  0.00     0.031 A 
HETATM    2  C   UNK N   1      35.609  15.736  11.652  0.00  0.00     0.027 A 
HETATM    3  C   UNK N   1      35.145  14.439  11.422  0.00  0.00     0.079 A 
HETATM    4  C   UNK N   1      34.535  14.124  10.201  0.00  0.00     0.027 A 
HETATM    5  C   UNK N   1      34.365  15.117   9.228  0.00  0.00     0.031 A 
HETATM    6  C   UNK N   1      34.802  16.429   9.467  0.00  0.00     0.034 A 
ENDROOT
BRANCH   6   7
HETATM    7  N   UNK N   1      34.573  17.427   8.469  0.00  0.00    -0.328 N 
HETATM    8  H   UNK N   1      35.286  18.099   8.369  0.00  0.00     0.169 HD
BRANCH   7   9
HETATM    9  C   UNK N   1      33.446  17.585   7.591  0.00  0.00     0.214 C 
HETATM   10  S   UNK N   1      33.560  17.374   6.161  0.00  0.00    -0.033 SA
BRANCH   9  11
HETATM   11  O   UNK N   1      32.259  17.971   8.142  0.00  0.00    -0.327 OA
BRANCH  11  12
HETATM   12  C   UNK N   1      31.242  17.107   8.509  0.00  0.00     0.183 C 
BRANCH  12  13
HETATM   13  C   UNK N   1      29.996  17.892   8.878  0.00  0.00     0.066 C 
BRANCH  13  14
HETATM   14  C   UNK N   1      29.151  18.129   7.671  0.00  0.00    -0.049 A 
HETATM   15  C   UNK N   1      29.255  17.327   6.503  0.00  0.00     0.015 A 
HETATM   16  C   UNK N   1      28.383  17.715   5.481  0.00  0.00     0.050 A 
HETATM   17  S   UNK N   1      27.547  19.019   6.077  0.00  0.00    -0.113 SA
HETATM   18  C   UNK N   1      28.209  19.158   7.589  0.00  0.00     0.056 A 
ENDBRANCH  13  14
ENDBRANCH  12  13
ENDBRANCH  11  12
ENDBRANCH   9  11
ENDBRANCH   7   9
ENDBRANCH   6   7
BRANCH   3  19
HETATM   19  S   UNK N   1      35.347  13.195  12.697  0.00  0.00     0.256 S 
HETATM   20  O   UNK N   1      34.956  13.392  14.168  0.00  0.00    -0.201 OA
HETATM   21  O   UNK N   1      36.484  12.165  12.635  0.00  0.00    -0.201 OA
BRANCH  19  22
HETATM   22  N   UNK N   1      36.643  14.321  13.116  0.00  0.00    -0.324 N 
HETATM   23  H   UNK N   1      37.313  14.965  13.537  0.00  0.00     0.169 HD
HETATM   24  H   UNK N   1      37.056  14.347  12.184  0.00  0.00     0.169 HD
ENDBRANCH  19  22
ENDBRANCH   3  19
TORSDOF 8
ENDMDL
MODEL 7
REMARK VINA RESULT:      -4.7     21.817     23.977
REMARK  8 active torsions:
REMARK  status: ('A' for Active; 'I' for Inactive)
REMARK    1  A    between atoms: S_1  and  N_4 
REMARK    2  A    between atoms: S_1  and  C_7 
REMARK    3  A    between atoms: C_10  and  N_11 
REMARK    4  A    between atoms: N_11  and  C_12 
REMARK    5  A    between atoms: C_12  and  O_14 
REMARK    6  A    between atoms: O_14  and  C_15 
REMARK    7  A    between atoms: C_15  and  C_16 
REMARK    8  A    between atoms: C_16  and  C_17 
ROOT
HETATM    1  C   UNK N   1      35.715  16.156  11.326  0.00  0.00     0.031 A 
HETATM    2  C   UNK N   1      35.106  16.772  10.237  0.00  0.00     0.027 A 
HETATM    3  C   UNK N   1      34.608  16.001   9.186  0.00  0.00     0.079 A 
HETATM    4  C   UNK N   1      34.692  14.603   9.247  0.00  0.00     0.027 A 
HETATM    5  C   UNK N   1      35.301  13.988  10.349  0.00  0.00     0.031 A 
HETATM    6  C   UNK N   1      35.831  14.762  11.392  0.00  0.00     0.034 A 
ENDROOT
BRANCH   6   7
HETATM    7  N   UNK N   1      36.485  14.102  12.480  0.00  0.00    -0.328 N 
HETATM    8  H   UNK N   1      37.406  13.802  12.303  0.00  0.00     0.169 HD
BRANCH   7   9
HETATM    9  C   UNK N   1      35.983  13.815  13.795  0.00  0.00     0.214 C 
HETATM   10  S   UNK N   1      36.725  14.172  14.988  0.00  0.00    -0.033 SA
BRANCH   9  11
HETATM   11  O   UNK N   1      34.787  13.163  13.892  0.00  0.00    -0.327 OA
BRANCH  11  12
HETATM   12  C   UNK N   1      34.579  11.840  13.546  0.00  0.00     0.183 C 
BRANCH  12  13
HETATM   13  C   UNK N   1      33.834  11.119  14.654  0.00  0.00     0.066 C 
BRANCH  13  14
HETATM   14  C   UNK N   1      34.796  10.505  15.616  0.00  0.00    -0.049 A 
HETATM   15  C   UNK N   1      35.196  11.161  16.812  0.00  0.00     0.015 A 
HETATM   16  C   UNK N   1      36.107  10.423  17.573  0.00  0.00     0.050 A 
HETATM   17  S   UNK N   1      36.366   9.018  16.727  0.00  0.00    -0.113 SA
HETATM   18  C   UNK N   1      35.385   9.254  15.414  0.00  0.00     0.056 A 
ENDBRANCH  13  14
ENDBRANCH  12  13
ENDBRANCH  11  12
ENDBRANCH   9  11
ENDBRANCH   7   9
ENDBRANCH   6   7
BRANCH   3  19
HETATM   19  S   UNK N   1      33.860  16.814   7.775  0.00  0.00     0.256 S 
HETATM   20  O   UNK N   1      32.826  16.160   6.847  0.00  0.00    -0.201 OA
HETATM   21  O   UNK N   1      34.618  17.882   6.973  0.00  0.00    -0.201 OA
BRANCH  19  22
HETATM   22  N   UNK N   1      34.967  15.695   6.971  0.00  0.00    -0.324 N 
HETATM   23  H   UNK N   1      35.684  15.210   6.432  0.00  0.00     0.169 HD
HETATM   24  H   UNK N   1      34.559  14.850   7.373  0.00  0.00     0.169 HD
ENDBRANCH  19  22
ENDBRANCH   3  19
TORSDOF 8
ENDMDL
MODEL 8
REMARK VINA RESULT:      -4.7     19.616     21.937
REMARK  8 active torsions:
REMARK  status: ('A' for Active; 'I' for Inactive)
REMARK    1  A    between atoms: S_1  and  N_4 
REMARK    2  A    between atoms: S_1  and  C_7 
REMARK    3  A    between atoms: C_10  and  N_11 
REMARK    4  A    between atoms: N_11  and  C_12 
REMARK    5  A    between atoms: C_12  and  O_14 
REMARK    6  A    between atoms: O_14  and  C_15 
REMARK    7  A    between atoms: C_15  and  C_16 
REMARK    8  A    between atoms: C_16  and  C_17 
ROOT
HETATM    1  C   UNK N   1      34.065  14.442  10.767  0.00  0.00     0.031 A 
HETATM    2  C   UNK N   1      33.676  15.163   9.643  0.00  0.00     0.027 A 
HETATM    3  C   UNK N   1      34.281  16.387   9.353  0.00  0.00     0.079 A 
HETATM    4  C   UNK N   1      35.305  16.871  10.179  0.00  0.00     0.027 A 
HETATM    5  C   UNK N   1      35.697  16.138  11.307  0.00  0.00     0.031 A 
HETATM    6  C   UNK N   1      35.069  14.922  11.618  0.00  0.00     0.034 A 
ENDROOT
BRANCH   6   7
HETATM    7  N   UNK N   1      35.464  14.222  12.802  0.00  0.00    -0.328 N 
HETATM    8  H   UNK N   1      35.492  14.762  13.625  0.00  0.00     0.169 HD
BRANCH   7   9
HETATM    9  C   UNK N   1      35.827  12.840  12.955  0.00  0.00     0.214 C 
HETATM   10  S   UNK N   1      34.847  11.830  13.302  0.00  0.00    -0.033 SA
BRANCH   9  11
HETATM   11  O   UNK N   1      37.140  12.505  12.790  0.00  0.00    -0.327 OA
BRANCH  11  12
HETATM   12  C   UNK N   1      37.665  11.901  11.661  0.00  0.00     0.183 C 
BRANCH  12  13
HETATM   13  C   UNK N   1      38.119  12.954  10.667  0.00  0.00     0.066 C 
BRANCH  13  14
HETATM   14  C   UNK N   1      37.240  12.947   9.461  0.00  0.00    -0.049 A 
HETATM   15  C   UNK N   1      36.287  11.920   9.222  0.00  0.00     0.015 A 
HETATM   16  C   UNK N   1      35.569  12.092   8.035  0.00  0.00     0.050 A 
HETATM   17  S   UNK N   1      36.152  13.490   7.356  0.00  0.00    -0.113 SA
HETATM   18  C   UNK N   1      37.292  13.934   8.473  0.00  0.00     0.056 A 
ENDBRANCH  13  14
ENDBRANCH  12  13
ENDBRANCH  11  12
ENDBRANCH   9  11
ENDBRANCH   7   9
ENDBRANCH   6   7
BRANCH   3  19
HETATM   19  S   UNK N   1      33.740  17.319   7.921  0.00  0.00     0.256 S 
HETATM   20  O   UNK N   1      34.607  17.581   6.681  0.00  0.00    -0.201 OA
HETATM   21  O   UNK N   1      32.726  18.465   8.048  0.00  0.00    -0.201 OA
BRANCH  19  22
HETATM   22  N   UNK N   1      34.852  18.470   8.672  0.00  0.00    -0.324 N 
HETATM   23  H   UNK N   1      35.376  19.269   9.028  0.00  0.00     0.169 HD
HETATM   24  H   UNK N   1      35.461  17.763   9.084  0.00  0.00     0.169 HD
ENDBRANCH  19  22
ENDBRANCH   3  19
TORSDOF 8
ENDMDL
MODEL 9
REMARK VINA RESULT:      -4.6     12.009     13.799
REMARK  8 active torsions:
REMARK  status: ('A' for Active; 'I' for Inactive)
REMARK    1  A    between atoms: S_1  and  N_4 
REMARK    2  A    between atoms: S_1  and  C_7 
REMARK    3  A    between atoms: C_10  and  N_11 
REMARK    4  A    between atoms: N_11  and  C_12 
REMARK    5  A    between atoms: C_12  and  O_14 
REMARK    6  A    between atoms: O_14  and  C_15 
REMARK    7  A    between atoms: C_15  and  C_16 
REMARK    8  A    between atoms: C_16  and  C_17 
ROOT
HETATM    1  C   UNK N   1      23.826  18.329   4.710  0.00  0.00     0.031 A 
HETATM    2  C   UNK N   1      22.737  18.831   4.004  0.00  0.00     0.027 A 
HETATM    3  C   UNK N   1      22.893  19.944   3.176  0.00  0.00     0.079 A 
HETATM    4  C   UNK N   1      24.157  20.533   3.032  0.00  0.00     0.027 A 
HETATM    5  C   UNK N   1      25.251  20.020   3.741  0.00  0.00     0.031 A 
HETATM    6  C   UNK N   1      25.091  18.920   4.598  0.00  0.00     0.034 A 
ENDROOT
BRANCH   6   7
HETATM    7  N   UNK N   1      26.220  18.451   5.339  0.00  0.00    -0.328 N 
HETATM    8  H   UNK N   1      26.162  17.521   5.658  0.00  0.00     0.169 HD
BRANCH   7   9
HETATM    9  C   UNK N   1      27.428  19.149   5.684  0.00  0.00     0.214 C 
HETATM   10  S   UNK N   1      27.437  20.213   6.670  0.00  0.00    -0.033 SA
BRANCH   9  11
HETATM   11  O   UNK N   1      28.575  18.800   5.031  0.00  0.00    -0.327 OA
BRANCH  11  12
HETATM   12  C   UNK N   1      29.063  17.509   4.930  0.00  0.00     0.183 C 
BRANCH  12  13
HETATM   13  C   UNK N   1      29.653  17.068   6.256  0.00  0.00     0.066 C 
BRANCH  13  14
HETATM   14  C   UNK N   1      31.143  17.168   6.224  0.00  0.00    -0.049 A 
HETATM   15  C   UNK N   1      31.923  17.253   7.408  0.00  0.00     0.015 A 
HETATM   16  C   UNK N   1      33.297  17.347   7.164  0.00  0.00     0.050 A 
HETATM   17  S   UNK N   1      33.462  17.322   5.513  0.00  0.00    -0.113 SA
HETATM   18  C   UNK N   1      31.880  17.197   5.037  0.00  0.00     0.056 A 
ENDBRANCH  13  14
ENDBRANCH  12  13
ENDBRANCH  11  12
ENDBRANCH   9  11
ENDBRANCH   7   9
ENDBRANCH   6   7
BRANCH   3  19
HETATM   19  S   UNK N   1      21.471  20.599   2.304  0.00  0.00     0.256 S 
HETATM   20  O   UNK N   1      20.059  20.694   2.900  0.00  0.00    -0.201 OA
HETATM   21  O   UNK N   1      21.342  20.476   0.779  0.00  0.00    -0.201 OA
BRANCH  19  22
HETATM   22  N   UNK N   1      21.111  18.869   2.286  0.00  0.00    -0.324 N 
HETATM   23  H   UNK N   1      21.060  17.858   2.161  0.00  0.00     0.169 HD
HETATM   24  H   UNK N   1      20.291  18.933   2.890  0.00  0.00     0.169 HD
ENDBRANCH  19  22
ENDBRANCH   3  19
TORSDOF 8
ENDMDL
