MODEL 1
REMARK VINA RESULT:      -7.2      0.000      0.000
REMARK  9 active torsions:
REMARK  status: ('A' for Active; 'I' for Inactive)
REMARK       I    between atoms: C_1  and  N_2 
REMARK    1  A    between atoms: C_21  and  C_1 
REMARK    2  A    between atoms: C_3  and  N_2 
REMARK    3  A    between atoms: C_3  and  C_5 
REMARK    4  A    between atoms: C_3  and  C_14 
REMARK    5  A    between atoms: C_4  and  O_12 
REMARK    6  A    between atoms: C_5  and  C_6 
REMARK    7  A    between atoms: O_12  and  C_14 
REMARK    8  A    between atoms: N_22  and  S_23 
REMARK    9  A    between atoms: S_23  and  C_24 
ROOT
HETATM    1  C   UNK N   1      25.661  22.967  -6.740  0.00  0.00     0.238 C 
HETATM    2  N   UNK N   1      25.674  23.577  -5.515  0.00  0.00    -0.345 N 
HETATM    3  O   UNK N   1      24.913  22.018  -6.909  0.00  0.00    -0.272 OA
HETATM    4  H   UNK N   1      25.175  23.134  -4.792  0.00  0.00     0.163 HD
ENDROOT
BRANCH   1   5
HETATM    5  C   UNK N   1      26.518  23.436  -7.914  0.00  0.00     0.175 C 
HETATM    6  C   UNK N   1      25.604  23.561  -9.142  0.00  0.00     0.104 C 
HETATM    7  S   UNK N   1      26.608  23.591 -10.658  0.00  0.00    -0.166 SA
HETATM    8  C   UNK N   1      27.060  21.818 -10.483  0.00  0.00     0.089 C 
HETATM    9  C   UNK N   1      27.293  21.388  -9.025  0.00  0.00     0.118 C 
HETATM   10  N   UNK N   1      27.669  22.544  -8.209  0.00  0.00    -0.191 NA
BRANCH  10  11
HETATM   11  S   UNK N   1      28.683  22.031  -6.833  0.00  0.00     0.244 S 
HETATM   12  O   UNK N   1      28.747  20.592  -7.375  0.00  0.00    -0.206 OA
HETATM   13  O   UNK N   1      29.876  22.460  -7.704  0.00  0.00    -0.206 OA
BRANCH  11  14
HETATM   14  C   UNK N   1      29.984  21.730  -5.601  0.00  0.00     0.074 A 
HETATM   15  C   UNK N   1      31.193  21.145  -5.997  0.00  0.00     0.025 A 
HETATM   16  C   UNK N   1      32.206  20.915  -5.056  0.00  0.00     0.008 A 
HETATM   17  C   UNK N   1      32.018  21.275  -3.718  0.00  0.00    -0.062 A 
HETATM   18  C   UNK N   1      30.822  21.871  -3.318  0.00  0.00     0.008 A 
HETATM   19  C   UNK N   1      33.089  21.024  -2.718  0.00  0.00     0.048 C 
HETATM   20  C   UNK N   1      29.811  22.098  -4.253  0.00  0.00     0.025 A 
ENDBRANCH  11  14
ENDBRANCH  10  11
ENDBRANCH   1   5
BRANCH   2  21
HETATM   21  C   UNK N   1      26.354  24.817  -5.180  0.00  0.00     0.188 C 
BRANCH  21  22
HETATM   22  C   UNK N   1      25.356  25.993  -5.268  0.00  0.00     0.074 C 
BRANCH  22  23
HETATM   23  C   UNK N   1      25.960  27.359  -5.131  0.00  0.00    -0.056 A 
HETATM   24  C   UNK N   1      26.846  27.810  -6.116  0.00  0.00     0.007 A 
HETATM   25  C   UNK N   1      27.478  29.048  -5.978  0.00  0.00     0.001 A 
HETATM   26  C   UNK N   1      27.228  29.838  -4.854  0.00  0.00     0.000 A 
HETATM   27  C   UNK N   1      26.338  29.394  -3.870  0.00  0.00     0.001 A 
HETATM   28  C   UNK N   1      25.705  28.154  -4.005  0.00  0.00     0.007 A 
ENDBRANCH  22  23
ENDBRANCH  21  22
BRANCH  21  29
HETATM   29  C   UNK N   1      27.022  24.703  -3.828  0.00  0.00     0.282 C 
HETATM   30  O   UNK N   1      26.474  24.073  -2.936  0.00  0.00    -0.263 OA
BRANCH  29  31
HETATM   31  O   UNK N   1      28.249  25.256  -3.632  0.00  0.00    -0.320 OA
BRANCH  31  32
HETATM   32  C   UNK N   1      29.135  25.500  -4.660  0.00  0.00     0.174 C 
HETATM   33  C   UNK N   1      29.969  26.736  -4.379  0.00  0.00     0.034 C 
ENDBRANCH  31  32
ENDBRANCH  29  31
ENDBRANCH  21  29
ENDBRANCH   2  21
TORSDOF 9
ENDMDL
MODEL 2
REMARK VINA RESULT:      -6.7     17.543     22.023
REMARK  9 active torsions:
REMARK  status: ('A' for Active; 'I' for Inactive)
REMARK       I    between atoms: C_1  and  N_2 
REMARK    1  A    between atoms: C_21  and  C_1 
REMARK    2  A    between atoms: C_3  and  N_2 
REMARK    3  A    between atoms: C_3  and  C_5 
REMARK    4  A    between atoms: C_3  and  C_14 
REMARK    5  A    between atoms: C_4  and  O_12 
REMARK    6  A    between atoms: C_5  and  C_6 
REMARK    7  A    between atoms: O_12  and  C_14 
REMARK    8  A    between atoms: N_22  and  S_23 
REMARK    9  A    between atoms: S_23  and  C_24 
ROOT
HETATM    1  C   UNK N   1      37.657  13.855  10.328  0.00  0.00     0.238 C 
HETATM    2  N   UNK N   1      37.299  14.165  11.611  0.00  0.00    -0.345 N 
HETATM    3  O   UNK N   1      38.517  14.529   9.785  0.00  0.00    -0.272 OA
HETATM    4  H   UNK N   1      37.660  15.001  11.985  0.00  0.00     0.163 HD
ENDROOT
BRANCH   1   5
HETATM    5  C   UNK N   1      37.051  12.686   9.553  0.00  0.00     0.175 C 
HETATM    6  C   UNK N   1      38.158  11.646   9.331  0.00  0.00     0.104 C 
HETATM    7  S   UNK N   1      37.678  10.509   7.995  0.00  0.00    -0.166 SA
HETATM    8  C   UNK N   1      37.876  11.812   6.714  0.00  0.00     0.089 C 
HETATM    9  C   UNK N   1      37.422  13.203   7.182  0.00  0.00     0.118 C 
HETATM   10  N   UNK N   1      36.437  13.081   8.258  0.00  0.00    -0.191 NA
BRANCH  10  11
HETATM   11  S   UNK N   1      35.341  14.489   8.264  0.00  0.00     0.244 S 
HETATM   12  O   UNK N   1      35.402  14.583   6.730  0.00  0.00    -0.206 OA
HETATM   13  O   UNK N   1      34.203  13.456   8.201  0.00  0.00    -0.206 OA
BRANCH  11  14
HETATM   14  C   UNK N   1      33.961  15.664   8.381  0.00  0.00     0.074 A 
HETATM   15  C   UNK N   1      32.687  15.206   8.735  0.00  0.00     0.025 A 
HETATM   16  C   UNK N   1      31.616  16.104   8.834  0.00  0.00     0.008 A 
HETATM   17  C   UNK N   1      31.817  17.467   8.588  0.00  0.00    -0.062 A 
HETATM   18  C   UNK N   1      33.085  17.934   8.248  0.00  0.00     0.008 A 
HETATM   19  C   UNK N   1      30.680  18.420   8.686  0.00  0.00     0.048 C 
HETATM   20  C   UNK N   1      34.152  17.040   8.145  0.00  0.00     0.025 A 
ENDBRANCH  11  14
ENDBRANCH  10  11
ENDBRANCH   1   5
BRANCH   2  21
HETATM   21  C   UNK N   1      36.437  13.378  12.478  0.00  0.00     0.188 C 
BRANCH  21  22
HETATM   22  C   UNK N   1      36.518  13.924  13.921  0.00  0.00     0.074 C 
BRANCH  22  23
HETATM   23  C   UNK N   1      36.342  12.903  15.005  0.00  0.00    -0.056 A 
HETATM   24  C   UNK N   1      37.036  11.691  14.914  0.00  0.00     0.007 A 
HETATM   25  C   UNK N   1      36.836  10.694  15.871  0.00  0.00     0.001 A 
HETATM   26  C   UNK N   1      35.939  10.904  16.922  0.00  0.00     0.000 A 
HETATM   27  C   UNK N   1      35.247  12.117  17.020  0.00  0.00     0.001 A 
HETATM   28  C   UNK N   1      35.445  13.116  16.061  0.00  0.00     0.007 A 
ENDBRANCH  22  23
ENDBRANCH  21  22
BRANCH  21  29
HETATM   29  C   UNK N   1      35.028  13.345  11.932  0.00  0.00     0.282 C 
HETATM   30  O   UNK N   1      34.405  14.389  11.810  0.00  0.00    -0.263 OA
BRANCH  29  31
HETATM   31  O   UNK N   1      34.485  12.164  11.532  0.00  0.00    -0.320 OA
BRANCH  31  32
HETATM   32  C   UNK N   1      34.850  10.949  12.074  0.00  0.00     0.174 C 
HETATM   33  C   UNK N   1      33.965  10.592  13.254  0.00  0.00     0.034 C 
ENDBRANCH  31  32
ENDBRANCH  29  31
ENDBRANCH  21  29
ENDBRANCH   2  21
TORSDOF 9
ENDMDL
MODEL 3
REMARK VINA RESULT:      -6.6     14.250     16.217
REMARK  9 active torsions:
REMARK  status: ('A' for Active; 'I' for Inactive)
REMARK       I    between atoms: C_1  and  N_2 
REMARK    1  A    between atoms: C_21  and  C_1 
REMARK    2  A    between atoms: C_3  and  N_2 
REMARK    3  A    between atoms: C_3  and  C_5 
REMARK    4  A    between atoms: C_3  and  C_14 
REMARK    5  A    between atoms: C_4  and  O_12 
REMARK    6  A    between atoms: C_5  and  C_6 
REMARK    7  A    between atoms: O_12  and  C_14 
REMARK    8  A    between atoms: N_22  and  S_23 
REMARK    9  A    between atoms: S_23  and  C_24 
ROOT
HETATM    1  C   UNK N   1      22.965  16.691   5.699  0.00  0.00     0.238 C 
HETATM    2  N   UNK N   1      24.329  16.693   5.806  0.00  0.00    -0.345 N 
HETATM    3  O   UNK N   1      22.343  17.627   6.172  0.00  0.00    -0.272 OA
HETATM    4  H   UNK N   1      24.729  17.388   6.378  0.00  0.00     0.163 HD
ENDROOT
BRANCH   1   5
HETATM    5  C   UNK N   1      22.188  15.583   4.990  0.00  0.00     0.175 C 
HETATM    6  C   UNK N   1      21.510  16.201   3.758  0.00  0.00     0.104 C 
HETATM    7  S   UNK N   1      20.172  15.114   3.180  0.00  0.00    -0.166 SA
HETATM    8  C   UNK N   1      19.125  15.500   4.641  0.00  0.00     0.089 C 
HETATM    9  C   UNK N   1      19.926  15.650   5.944  0.00  0.00     0.118 C 
HETATM   10  N   UNK N   1      21.185  14.908   5.854  0.00  0.00    -0.191 NA
BRANCH  10  11
HETATM   11  S   UNK N   1      21.717  14.386   7.475  0.00  0.00     0.244 S 
HETATM   12  O   UNK N   1      20.781  15.407   8.146  0.00  0.00    -0.206 OA
HETATM   13  O   UNK N   1      20.590  13.345   7.382  0.00  0.00    -0.206 OA
BRANCH  11  14
HETATM   14  C   UNK N   1      22.068  13.531   9.039  0.00  0.00     0.074 A 
HETATM   15  C   UNK N   1      23.390  13.221   9.380  0.00  0.00     0.025 A 
HETATM   16  C   UNK N   1      23.673  12.567  10.586  0.00  0.00     0.008 A 
HETATM   17  C   UNK N   1      22.636  12.228  11.462  0.00  0.00    -0.062 A 
HETATM   18  C   UNK N   1      21.318  12.546  11.138  0.00  0.00     0.008 A 
HETATM   19  C   UNK N   1      22.935  11.528  12.740  0.00  0.00     0.048 C 
HETATM   20  C   UNK N   1      21.034  13.194   9.934  0.00  0.00     0.025 A 
ENDBRANCH  11  14
ENDBRANCH  10  11
ENDBRANCH   1   5
BRANCH   2  21
HETATM   21  C   UNK N   1      25.245  15.770   5.157  0.00  0.00     0.188 C 
BRANCH  21  22
HETATM   22  C   UNK N   1      25.667  16.341   3.785  0.00  0.00     0.074 C 
BRANCH  22  23
HETATM   23  C   UNK N   1      25.982  17.808   3.768  0.00  0.00    -0.056 A 
HETATM   24  C   UNK N   1      24.996  18.707   3.343  0.00  0.00     0.007 A 
HETATM   25  C   UNK N   1      25.284  20.070   3.249  0.00  0.00     0.001 A 
HETATM   26  C   UNK N   1      26.559  20.539   3.576  0.00  0.00     0.000 A 
HETATM   27  C   UNK N   1      27.544  19.645   4.007  0.00  0.00     0.001 A 
HETATM   28  C   UNK N   1      27.259  18.278   4.101  0.00  0.00     0.007 A 
ENDBRANCH  22  23
ENDBRANCH  21  22
BRANCH  21  29
HETATM   29  C   UNK N   1      26.418  15.466   6.061  0.00  0.00     0.282 C 
HETATM   30  O   UNK N   1      27.178  14.553   5.776  0.00  0.00    -0.263 OA
BRANCH  29  31
HETATM   31  O   UNK N   1      26.647  16.243   7.153  0.00  0.00    -0.320 OA
BRANCH  31  32
HETATM   32  C   UNK N   1      27.846  16.886   7.379  0.00  0.00     0.174 C 
HETATM   33  C   UNK N   1      27.954  17.349   8.820  0.00  0.00     0.034 C 
ENDBRANCH  31  32
ENDBRANCH  29  31
ENDBRANCH  21  29
ENDBRANCH   2  21
TORSDOF 9
ENDMDL
MODEL 4
REMARK VINA RESULT:      -6.4     17.033     21.131
REMARK  9 active torsions:
REMARK  status: ('A' for Active; 'I' for Inactive)
REMARK       I    between atoms: C_1  and  N_2 
REMARK    1  A    between atoms: C_21  and  C_1 
REMARK    2  A    between atoms: C_3  and  N_2 
REMARK    3  A    between atoms: C_3  and  C_5 
REMARK    4  A    between atoms: C_3  and  C_14 
REMARK    5  A    between atoms: C_4  and  O_12 
REMARK    6  A    between atoms: C_5  and  C_6 
REMARK    7  A    between atoms: O_12  and  C_14 
REMARK    8  A    between atoms: N_22  and  S_23 
REMARK    9  A    between atoms: S_23  and  C_24 
ROOT
HETATM    1  C   UNK N   1      37.529  12.957  11.238  0.00  0.00     0.238 C 
HETATM    2  N   UNK N   1      37.150  14.210  11.637  0.00  0.00    -0.345 N 
HETATM    3  O   UNK N   1      38.675  12.790  10.857  0.00  0.00    -0.272 OA
HETATM    4  H   UNK N   1      37.787  14.942  11.470  0.00  0.00     0.163 HD
ENDROOT
BRANCH   1   5
HETATM    5  C   UNK N   1      36.590  11.753  11.274  0.00  0.00     0.175 C 
HETATM    6  C   UNK N   1      37.178  10.730  12.257  0.00  0.00     0.104 C 
HETATM    7  S   UNK N   1      36.437   9.095  11.964  0.00  0.00    -0.166 SA
HETATM    8  C   UNK N   1      37.321   8.898  10.365  0.00  0.00     0.089 C 
HETATM    9  C   UNK N   1      37.437  10.205   9.566  0.00  0.00     0.118 C 
HETATM   10  N   UNK N   1      36.365  11.129   9.944  0.00  0.00    -0.191 NA
BRANCH  10  11
HETATM   11  S   UNK N   1      35.969  12.214   8.585  0.00  0.00     0.244 S 
HETATM   12  O   UNK N   1      36.169  11.073   7.573  0.00  0.00    -0.206 OA
HETATM   13  O   UNK N   1      34.509  11.801   8.833  0.00  0.00    -0.206 OA
BRANCH  11  14
HETATM   14  C   UNK N   1      35.210  13.309   7.350  0.00  0.00     0.074 A 
HETATM   15  C   UNK N   1      35.894  14.453   6.921  0.00  0.00     0.025 A 
HETATM   16  C   UNK N   1      35.321  15.300   5.965  0.00  0.00     0.008 A 
HETATM   17  C   UNK N   1      34.065  15.005   5.425  0.00  0.00    -0.062 A 
HETATM   18  C   UNK N   1      33.382  13.861   5.836  0.00  0.00     0.008 A 
HETATM   19  C   UNK N   1      33.453  15.908   4.415  0.00  0.00     0.048 C 
HETATM   20  C   UNK N   1      33.950  13.017   6.792  0.00  0.00     0.025 A 
ENDBRANCH  11  14
ENDBRANCH  10  11
ENDBRANCH   1   5
BRANCH   2  21
HETATM   21  C   UNK N   1      35.898  14.565  12.284  0.00  0.00     0.188 C 
BRANCH  21  22
HETATM   22  C   UNK N   1      34.714  14.159  11.378  0.00  0.00     0.074 C 
BRANCH  22  23
HETATM   23  C   UNK N   1      34.248  15.213  10.419  0.00  0.00    -0.056 A 
HETATM   24  C   UNK N   1      33.033  15.029   9.749  0.00  0.00     0.007 A 
HETATM   25  C   UNK N   1      32.608  15.959   8.798  0.00  0.00     0.001 A 
HETATM   26  C   UNK N   1      33.399  17.074   8.509  0.00  0.00     0.000 A 
HETATM   27  C   UNK N   1      34.611  17.265   9.181  0.00  0.00     0.001 A 
HETATM   28  C   UNK N   1      35.039  16.334  10.134  0.00  0.00     0.007 A 
ENDBRANCH  22  23
ENDBRANCH  21  22
BRANCH  21  29
HETATM   29  C   UNK N   1      35.827  13.955  13.666  0.00  0.00     0.282 C 
HETATM   30  O   UNK N   1      34.809  13.378  14.018  0.00  0.00    -0.263 OA
BRANCH  29  31
HETATM   31  O   UNK N   1      36.912  14.006  14.483  0.00  0.00    -0.320 OA
BRANCH  31  32
HETATM   32  C   UNK N   1      36.843  14.418  15.798  0.00  0.00     0.174 C 
HETATM   33  C   UNK N   1      37.433  15.806  15.966  0.00  0.00     0.034 C 
ENDBRANCH  31  32
ENDBRANCH  29  31
ENDBRANCH  21  29
ENDBRANCH   2  21
TORSDOF 9
ENDMDL
MODEL 5
REMARK VINA RESULT:      -6.3     12.067     15.953
REMARK  9 active torsions:
REMARK  status: ('A' for Active; 'I' for Inactive)
REMARK       I    between atoms: C_1  and  N_2 
REMARK    1  A    between atoms: C_21  and  C_1 
REMARK    2  A    between atoms: C_3  and  N_2 
REMARK    3  A    between atoms: C_3  and  C_5 
REMARK    4  A    between atoms: C_3  and  C_14 
REMARK    5  A    between atoms: C_4  and  O_12 
REMARK    6  A    between atoms: C_5  and  C_6 
REMARK    7  A    between atoms: O_12  and  C_14 
REMARK    8  A    between atoms: N_22  and  S_23 
REMARK    9  A    between atoms: S_23  and  C_24 
ROOT
HETATM    1  C   UNK N   1      32.270  16.311   4.250  0.00  0.00     0.238 C 
HETATM    2  N   UNK N   1      33.066  16.980   5.139  0.00  0.00    -0.345 N 
HETATM    3  O   UNK N   1      32.289  16.655   3.080  0.00  0.00    -0.272 OA
HETATM    4  H   UNK N   1      33.514  17.793   4.812  0.00  0.00     0.163 HD
ENDROOT
BRANCH   1   5
HETATM    5  C   UNK N   1      31.381  15.135   4.649  0.00  0.00     0.175 C 
HETATM    6  C   UNK N   1      32.024  13.853   4.100  0.00  0.00     0.104 C 
HETATM    7  S   UNK N   1      30.796  12.513   4.064  0.00  0.00    -0.166 SA
HETATM    8  C   UNK N   1      29.868  13.299   2.686  0.00  0.00     0.089 C 
HETATM    9  C   UNK N   1      29.811  14.832   2.785  0.00  0.00     0.118 C 
HETATM   10  N   UNK N   1      29.977  15.258   4.176  0.00  0.00    -0.191 NA
BRANCH  10  11
HETATM   11  S   UNK N   1      29.151  16.815   4.453  0.00  0.00     0.244 S 
HETATM   12  O   UNK N   1      27.820  16.236   3.944  0.00  0.00    -0.206 OA
HETATM   13  O   UNK N   1      28.888  16.289   5.875  0.00  0.00    -0.206 OA
BRANCH  11  14
HETATM   14  C   UNK N   1      28.362  18.314   5.109  0.00  0.00     0.074 A 
HETATM   15  C   UNK N   1      27.798  19.245   4.228  0.00  0.00     0.025 A 
HETATM   16  C   UNK N   1      27.182  20.401   4.722  0.00  0.00     0.008 A 
HETATM   17  C   UNK N   1      27.118  20.629   6.101  0.00  0.00    -0.062 A 
HETATM   18  C   UNK N   1      27.664  19.701   6.987  0.00  0.00     0.008 A 
HETATM   19  C   UNK N   1      26.470  21.860   6.627  0.00  0.00     0.048 C 
HETATM   20  C   UNK N   1      28.282  18.550   6.496  0.00  0.00     0.025 A 
ENDBRANCH  11  14
ENDBRANCH  10  11
ENDBRANCH   1   5
BRANCH   2  21
HETATM   21  C   UNK N   1      33.315  16.605   6.522  0.00  0.00     0.188 C 
BRANCH  21  22
HETATM   22  C   UNK N   1      34.459  15.569   6.578  0.00  0.00     0.074 C 
BRANCH  22  23
HETATM   23  C   UNK N   1      34.387  14.593   7.715  0.00  0.00    -0.056 A 
HETATM   24  C   UNK N   1      35.332  14.681   8.743  0.00  0.00     0.007 A 
HETATM   25  C   UNK N   1      35.334  13.743   9.777  0.00  0.00     0.001 A 
HETATM   26  C   UNK N   1      34.393  12.710   9.784  0.00  0.00     0.000 A 
HETATM   27  C   UNK N   1      33.442  12.622   8.761  0.00  0.00     0.001 A 
HETATM   28  C   UNK N   1      33.440  13.561   7.724  0.00  0.00     0.007 A 
ENDBRANCH  22  23
ENDBRANCH  21  22
BRANCH  21  29
HETATM   29  C   UNK N   1      33.582  17.834   7.361  0.00  0.00     0.282 C 
HETATM   30  O   UNK N   1      34.653  18.414   7.257  0.00  0.00    -0.263 OA
BRANCH  29  31
HETATM   31  O   UNK N   1      32.612  18.314   8.184  0.00  0.00    -0.320 OA
BRANCH  31  32
HETATM   32  C   UNK N   1      31.424  17.651   8.411  0.00  0.00     0.174 C 
HETATM   33  C   UNK N   1      30.455  18.519   9.192  0.00  0.00     0.034 C 
ENDBRANCH  31  32
ENDBRANCH  29  31
ENDBRANCH  21  29
ENDBRANCH   2  21
TORSDOF 9
ENDMDL
MODEL 6
REMARK VINA RESULT:      -6.3     15.874     19.985
REMARK  9 active torsions:
REMARK  status: ('A' for Active; 'I' for Inactive)
REMARK       I    between atoms: C_1  and  N_2 
REMARK    1  A    between atoms: C_21  and  C_1 
REMARK    2  A    between atoms: C_3  and  N_2 
REMARK    3  A    between atoms: C_3  and  C_5 
REMARK    4  A    between atoms: C_3  and  C_14 
REMARK    5  A    between atoms: C_4  and  O_12 
REMARK    6  A    between atoms: C_5  and  C_6 
REMARK    7  A    between atoms: O_12  and  C_14 
REMARK    8  A    between atoms: N_22  and  S_23 
REMARK    9  A    between atoms: S_23  and  C_24 
ROOT
HETATM    1  C   UNK N   1      37.403  14.184  10.165  0.00  0.00     0.238 C 
HETATM    2  N   UNK N   1      36.747  15.297  10.615  0.00  0.00    -0.345 N 
HETATM    3  O   UNK N   1      38.531  14.315   9.720  0.00  0.00    -0.272 OA
HETATM    4  H   UNK N   1      37.169  16.167  10.432  0.00  0.00     0.163 HD
ENDROOT
BRANCH   1   5
HETATM    5  C   UNK N   1      36.800  12.782  10.222  0.00  0.00     0.175 C 
HETATM    6  C   UNK N   1      37.737  11.903  11.064  0.00  0.00     0.104 C 
HETATM    7  S   UNK N   1      37.388  10.147  10.744  0.00  0.00    -0.166 SA
HETATM    8  C   UNK N   1      38.091  10.239   9.048  0.00  0.00     0.089 C 
HETATM    9  C   UNK N   1      37.785  11.564   8.331  0.00  0.00     0.118 C 
HETATM   10  N   UNK N   1      36.574  12.173   8.885  0.00  0.00    -0.191 NA
BRANCH  10  11
HETATM   11  S   UNK N   1      35.761  13.176   7.654  0.00  0.00     0.244 S 
HETATM   12  O   UNK N   1      36.135  12.175   6.546  0.00  0.00    -0.206 OA
HETATM   13  O   UNK N   1      34.495  12.378   8.010  0.00  0.00    -0.206 OA
BRANCH  11  14
HETATM   14  C   UNK N   1      34.611  14.085   6.581  0.00  0.00     0.074 A 
HETATM   15  C   UNK N   1      35.026  15.271   5.965  0.00  0.00     0.025 A 
HETATM   16  C   UNK N   1      34.150  15.977   5.131  0.00  0.00     0.008 A 
HETATM   17  C   UNK N   1      32.856  15.496   4.902  0.00  0.00    -0.062 A 
HETATM   18  C   UNK N   1      32.438  14.308   5.500  0.00  0.00     0.008 A 
HETATM   19  C   UNK N   1      31.923  16.249   4.022  0.00  0.00     0.048 C 
HETATM   20  C   UNK N   1      33.309  13.605   6.334  0.00  0.00     0.025 A 
ENDBRANCH  11  14
ENDBRANCH  10  11
ENDBRANCH   1   5
BRANCH   2  21
HETATM   21  C   UNK N   1      35.485  15.319  11.337  0.00  0.00     0.188 C 
BRANCH  21  22
HETATM   22  C   UNK N   1      34.352  14.822  10.413  0.00  0.00     0.074 C 
BRANCH  22  23
HETATM   23  C   UNK N   1      33.760  15.861   9.507  0.00  0.00    -0.056 A 
HETATM   24  C   UNK N   1      34.536  16.969   9.149  0.00  0.00     0.007 A 
HETATM   25  C   UNK N   1      33.987  17.987   8.366  0.00  0.00     0.001 A 
HETATM   26  C   UNK N   1      32.658  17.902   7.941  0.00  0.00     0.000 A 
HETATM   27  C   UNK N   1      31.881  16.792   8.291  0.00  0.00     0.001 A 
HETATM   28  C   UNK N   1      32.429  15.772   9.077  0.00  0.00     0.007 A 
ENDBRANCH  22  23
ENDBRANCH  21  22
BRANCH  21  29
HETATM   29  C   UNK N   1      35.598  14.526  12.620  0.00  0.00     0.282 C 
HETATM   30  O   UNK N   1      36.449  14.829  13.443  0.00  0.00    -0.263 OA
BRANCH  29  31
HETATM   31  O   UNK N   1      34.720  13.519  12.870  0.00  0.00    -0.320 OA
BRANCH  31  32
HETATM   32  C   UNK N   1      34.976  12.507  13.772  0.00  0.00     0.174 C 
HETATM   33  C   UNK N   1      34.553  11.160  13.214  0.00  0.00     0.034 C 
ENDBRANCH  31  32
ENDBRANCH  29  31
ENDBRANCH  21  29
ENDBRANCH   2  21
TORSDOF 9
ENDMDL
MODEL 7
REMARK VINA RESULT:      -6.3     14.490     16.876
REMARK  9 active torsions:
REMARK  status: ('A' for Active; 'I' for Inactive)
REMARK       I    between atoms: C_1  and  N_2 
REMARK    1  A    between atoms: C_21  and  C_1 
REMARK    2  A    between atoms: C_3  and  N_2 
REMARK    3  A    between atoms: C_3  and  C_5 
REMARK    4  A    between atoms: C_3  and  C_14 
REMARK    5  A    between atoms: C_4  and  O_12 
REMARK    6  A    between atoms: C_5  and  C_6 
REMARK    7  A    between atoms: O_12  and  C_14 
REMARK    8  A    between atoms: N_22  and  S_23 
REMARK    9  A    between atoms: S_23  and  C_24 
ROOT
HETATM    1  C   UNK N   1      22.714  16.826   5.752  0.00  0.00     0.238 C 
HETATM    2  N   UNK N   1      24.078  16.821   5.864  0.00  0.00    -0.345 N 
HETATM    3  O   UNK N   1      22.096  17.775   6.206  0.00  0.00    -0.272 OA
HETATM    4  H   UNK N   1      24.480  17.523   6.425  0.00  0.00     0.163 HD
ENDROOT
BRANCH   1   5
HETATM    5  C   UNK N   1      21.932  15.712   5.059  0.00  0.00     0.175 C 
HETATM    6  C   UNK N   1      21.181  16.334   3.873  0.00  0.00     0.104 C 
HETATM    7  S   UNK N   1      19.844  15.223   3.337  0.00  0.00    -0.166 SA
HETATM    8  C   UNK N   1      18.859  15.555   4.852  0.00  0.00     0.089 C 
HETATM    9  C   UNK N   1      19.717  15.702   6.119  0.00  0.00     0.118 C 
HETATM   10  N   UNK N   1      20.989  14.995   5.956  0.00  0.00    -0.191 NA
BRANCH  10  11
HETATM   11  S   UNK N   1      21.611  14.458   7.540  0.00  0.00     0.244 S 
HETATM   12  O   UNK N   1      20.766  15.518   8.267  0.00  0.00    -0.206 OA
HETATM   13  O   UNK N   1      20.438  13.463   7.532  0.00  0.00    -0.206 OA
BRANCH  11  14
HETATM   14  C   UNK N   1      22.034  13.594   9.081  0.00  0.00     0.074 A 
HETATM   15  C   UNK N   1      21.017  13.205   9.961  0.00  0.00     0.025 A 
HETATM   16  C   UNK N   1      21.331  12.533  11.149  0.00  0.00     0.008 A 
HETATM   17  C   UNK N   1      22.664  12.239  11.460  0.00  0.00    -0.062 A 
HETATM   18  C   UNK N   1      23.682  12.611  10.583  0.00  0.00     0.008 A 
HETATM   19  C   UNK N   1      22.999  11.532  12.724  0.00  0.00     0.048 C 
HETATM   20  C   UNK N   1      23.371  13.284   9.400  0.00  0.00     0.025 A 
ENDBRANCH  11  14
ENDBRANCH  10  11
ENDBRANCH   1   5
BRANCH   2  21
HETATM   21  C   UNK N   1      24.990  15.881   5.235  0.00  0.00     0.188 C 
BRANCH  21  22
HETATM   22  C   UNK N   1      25.609  16.527   3.976  0.00  0.00     0.074 C 
BRANCH  22  23
HETATM   23  C   UNK N   1      26.687  15.726   3.306  0.00  0.00    -0.056 A 
HETATM   24  C   UNK N   1      27.990  16.236   3.276  0.00  0.00     0.007 A 
HETATM   25  C   UNK N   1      28.998  15.547   2.598  0.00  0.00     0.001 A 
HETATM   26  C   UNK N   1      28.705  14.346   1.945  0.00  0.00     0.000 A 
HETATM   27  C   UNK N   1      27.405  13.830   1.979  0.00  0.00     0.001 A 
HETATM   28  C   UNK N   1      26.394  14.520   2.656  0.00  0.00     0.007 A 
ENDBRANCH  22  23
ENDBRANCH  21  22
BRANCH  21  29
HETATM   29  C   UNK N   1      26.023  15.402   6.229  0.00  0.00     0.282 C 
HETATM   30  O   UNK N   1      26.739  16.217   6.793  0.00  0.00    -0.263 OA
BRANCH  29  31
HETATM   31  O   UNK N   1      26.113  14.078   6.526  0.00  0.00    -0.320 OA
BRANCH  31  32
HETATM   32  C   UNK N   1      25.185  13.150   6.103  0.00  0.00     0.174 C 
HETATM   33  C   UNK N   1      25.842  12.060   5.275  0.00  0.00     0.034 C 
ENDBRANCH  31  32
ENDBRANCH  29  31
ENDBRANCH  21  29
ENDBRANCH   2  21
TORSDOF 9
ENDMDL
MODEL 8
REMARK VINA RESULT:      -6.2     17.729     22.300
REMARK  9 active torsions:
REMARK  status: ('A' for Active; 'I' for Inactive)
REMARK       I    between atoms: C_1  and  N_2 
REMARK    1  A    between atoms: C_21  and  C_1 
REMARK    2  A    between atoms: C_3  and  N_2 
REMARK    3  A    between atoms: C_3  and  C_5 
REMARK    4  A    between atoms: C_3  and  C_14 
REMARK    5  A    between atoms: C_4  and  O_12 
REMARK    6  A    between atoms: C_5  and  C_6 
REMARK    7  A    between atoms: O_12  and  C_14 
REMARK    8  A    between atoms: N_22  and  S_23 
REMARK    9  A    between atoms: S_23  and  C_24 
ROOT
HETATM    1  C   UNK N   1      37.833  13.670  10.091  0.00  0.00     0.238 C 
HETATM    2  N   UNK N   1      37.460  13.854  11.394  0.00  0.00    -0.345 N 
HETATM    3  O   UNK N   1      38.632  14.449   9.599  0.00  0.00    -0.272 OA
HETATM    4  H   UNK N   1      37.755  14.687  11.828  0.00  0.00     0.163 HD
ENDROOT
BRANCH   1   5
HETATM    5  C   UNK N   1      37.317  12.517   9.232  0.00  0.00     0.175 C 
HETATM    6  C   UNK N   1      38.473  11.524   9.038  0.00  0.00     0.104 C 
HETATM    7  S   UNK N   1      38.116  10.431   7.628  0.00  0.00    -0.166 SA
HETATM    8  C   UNK N   1      38.347  11.793   6.417  0.00  0.00     0.089 C 
HETATM    9  C   UNK N   1      37.816  13.148   6.912  0.00  0.00     0.118 C 
HETATM   10  N   UNK N   1      36.772  12.946   7.918  0.00  0.00    -0.191 NA
BRANCH  10  11
HETATM   11  S   UNK N   1      35.628  14.316   7.913  0.00  0.00     0.244 S 
HETATM   12  O   UNK N   1      35.247  14.034   6.449  0.00  0.00    -0.206 OA
HETATM   13  O   UNK N   1      34.592  13.302   8.426  0.00  0.00    -0.206 OA
BRANCH  11  14
HETATM   14  C   UNK N   1      34.260  15.488   8.147  0.00  0.00     0.074 A 
HETATM   15  C   UNK N   1      32.964  15.007   8.369  0.00  0.00     0.025 A 
HETATM   16  C   UNK N   1      31.903  15.901   8.558  0.00  0.00     0.008 A 
HETATM   17  C   UNK N   1      32.132  17.281   8.534  0.00  0.00    -0.062 A 
HETATM   18  C   UNK N   1      33.422  17.769   8.327  0.00  0.00     0.008 A 
HETATM   19  C   UNK N   1      31.005  18.231   8.727  0.00  0.00     0.048 C 
HETATM   20  C   UNK N   1      34.480  16.879   8.136  0.00  0.00     0.025 A 
ENDBRANCH  11  14
ENDBRANCH  10  11
ENDBRANCH   1   5
BRANCH   2  21
HETATM   21  C   UNK N   1      36.669  12.939  12.201  0.00  0.00     0.188 C 
BRANCH  21  22
HETATM   22  C   UNK N   1      37.592  11.864  12.816  0.00  0.00     0.074 C 
BRANCH  22  23
HETATM   23  C   UNK N   1      36.909  10.852  13.688  0.00  0.00    -0.056 A 
HETATM   24  C   UNK N   1      37.288  10.749  15.031  0.00  0.00     0.007 A 
HETATM   25  C   UNK N   1      36.720   9.769  15.847  0.00  0.00     0.001 A 
HETATM   26  C   UNK N   1      35.773   8.885  15.322  0.00  0.00     0.000 A 
HETATM   27  C   UNK N   1      35.387   8.989  13.982  0.00  0.00     0.001 A 
HETATM   28  C   UNK N   1      35.956   9.970  13.162  0.00  0.00     0.007 A 
ENDBRANCH  22  23
ENDBRANCH  21  22
BRANCH  21  29
HETATM   29  C   UNK N   1      35.870  13.700  13.234  0.00  0.00     0.282 C 
HETATM   30  O   UNK N   1      34.688  13.436  13.397  0.00  0.00    -0.263 OA
BRANCH  29  31
HETATM   31  O   UNK N   1      36.484  14.634  14.008  0.00  0.00    -0.320 OA
BRANCH  31  32
HETATM   32  C   UNK N   1      36.876  14.391  15.308  0.00  0.00     0.174 C 
HETATM   33  C   UNK N   1      37.439  15.645  15.951  0.00  0.00     0.034 C 
ENDBRANCH  31  32
ENDBRANCH  29  31
ENDBRANCH  21  29
ENDBRANCH   2  21
TORSDOF 9
ENDMDL
MODEL 9
REMARK VINA RESULT:      -6.1      2.343      7.064
REMARK  9 active torsions:
REMARK  status: ('A' for Active; 'I' for Inactive)
REMARK       I    between atoms: C_1  and  N_2 
REMARK    1  A    between atoms: C_21  and  C_1 
REMARK    2  A    between atoms: C_3  and  N_2 
REMARK    3  A    between atoms: C_3  and  C_5 
REMARK    4  A    between atoms: C_3  and  C_14 
REMARK    5  A    between atoms: C_4  and  O_12 
REMARK    6  A    between atoms: C_5  and  C_6 
REMARK    7  A    between atoms: O_12  and  C_14 
REMARK    8  A    between atoms: N_22  and  S_23 
REMARK    9  A    between atoms: S_23  and  C_24 
ROOT
HETATM    1  C   UNK N   1      28.716  23.451  -7.596  0.00  0.00     0.238 C 
HETATM    2  N   UNK N   1      29.904  23.195  -6.968  0.00  0.00    -0.345 N 
HETATM    3  O   UNK N   1      28.726  24.138  -8.604  0.00  0.00    -0.272 OA
HETATM    4  H   UNK N   1      30.692  23.691  -7.288  0.00  0.00     0.163 HD
ENDROOT
BRANCH   1   5
HETATM    5  C   UNK N   1      27.380  22.892  -7.110  0.00  0.00     0.175 C 
HETATM    6  C   UNK N   1      27.069  21.635  -7.935  0.00  0.00     0.104 C 
HETATM    7  S   UNK N   1      25.301  21.229  -7.799  0.00  0.00    -0.166 SA
HETATM    8  C   UNK N   1      24.812  22.687  -8.804  0.00  0.00     0.089 C 
HETATM    9  C   UNK N   1      25.671  23.932  -8.534  0.00  0.00     0.118 C 
HETATM   10  N   UNK N   1      26.258  23.863  -7.195  0.00  0.00    -0.191 NA
BRANCH  10  11
HETATM   11  S   UNK N   1      26.543  25.504  -6.554  0.00  0.00     0.244 S 
HETATM   12  O   UNK N   1      25.946  26.138  -7.823  0.00  0.00    -0.206 OA
HETATM   13  O   UNK N   1      25.152  25.369  -5.912  0.00  0.00    -0.206 OA
BRANCH  11  14
HETATM   14  C   UNK N   1      26.554  27.081  -5.652  0.00  0.00     0.074 A 
HETATM   15  C   UNK N   1      27.355  28.135  -6.106  0.00  0.00     0.025 A 
HETATM   16  C   UNK N   1      27.366  29.358  -5.422  0.00  0.00     0.008 A 
HETATM   17  C   UNK N   1      26.570  29.535  -4.285  0.00  0.00    -0.062 A 
HETATM   18  C   UNK N   1      25.758  28.495  -3.834  0.00  0.00     0.008 A 
HETATM   19  C   UNK N   1      26.587  30.830  -3.555  0.00  0.00     0.048 C 
HETATM   20  C   UNK N   1      25.749  27.275  -4.512  0.00  0.00     0.025 A 
ENDBRANCH  11  14
ENDBRANCH  10  11
ENDBRANCH   1   5
BRANCH   2  21
HETATM   21  C   UNK N   1      30.116  22.262  -5.874  0.00  0.00     0.188 C 
BRANCH  21  22
HETATM   22  C   UNK N   1      31.307  21.337  -6.208  0.00  0.00     0.074 C 
BRANCH  22  23
HETATM   23  C   UNK N   1      30.993  20.190  -7.123  0.00  0.00    -0.056 A 
HETATM   24  C   UNK N   1      31.944  19.804  -8.075  0.00  0.00     0.007 A 
HETATM   25  C   UNK N   1      31.651  18.787  -8.987  0.00  0.00     0.001 A 
HETATM   26  C   UNK N   1      30.405  18.156  -8.952  0.00  0.00     0.000 A 
HETATM   27  C   UNK N   1      29.454  18.535  -7.998  0.00  0.00     0.001 A 
HETATM   28  C   UNK N   1      29.745  19.554  -7.085  0.00  0.00     0.007 A 
ENDBRANCH  22  23
ENDBRANCH  21  22
BRANCH  21  29
HETATM   29  C   UNK N   1      30.289  23.008  -4.570  0.00  0.00     0.282 C 
HETATM   30  O   UNK N   1      31.370  23.511  -4.303  0.00  0.00    -0.263 OA
BRANCH  29  31
HETATM   31  O   UNK N   1      29.228  23.158  -3.733  0.00  0.00    -0.320 OA
BRANCH  31  32
HETATM   32  C   UNK N   1      28.555  24.352  -3.581  0.00  0.00     0.174 C 
HETATM   33  C   UNK N   1      27.131  24.119  -3.111  0.00  0.00     0.034 C 
ENDBRANCH  31  32
ENDBRANCH  29  31
ENDBRANCH  21  29
ENDBRANCH   2  21
TORSDOF 9
ENDMDL
