REMARK  9 active torsions:
REMARK  status: ('A' for Active; 'I' for Inactive)
REMARK       I    between atoms: C_1  and  N_2 
REMARK    1  A    between atoms: C_21  and  C_1 
REMARK    2  A    between atoms: C_3  and  N_2 
REMARK    3  A    between atoms: C_3  and  C_5 
REMARK    4  A    between atoms: C_3  and  C_14 
REMARK    5  A    between atoms: C_4  and  O_12 
REMARK    6  A    between atoms: C_5  and  C_6 
REMARK    7  A    between atoms: O_12  and  C_14 
REMARK    8  A    between atoms: N_22  and  S_23 
REMARK    9  A    between atoms: S_23  and  C_24 
ROOT
HETATM    1  C   UNK N   1      -2.115  -0.374   1.189  0.00  0.00     0.238 C 
HETATM    2  N   UNK N   1      -1.674   0.918   1.099  0.00  0.00    -0.345 N 
HETATM    3  O   UNK N   1      -2.171  -0.894   2.291  0.00  0.00    -0.272 OA
HETATM    4  H   UNK N   1      -1.298   1.318   1.916  0.00  0.00     0.163 HD
ENDROOT
BRANCH   1   5
HETATM    5  C   UNK N   1      -2.567  -1.186  -0.023  0.00  0.00     0.175 C 
HETATM    6  C   UNK N   1      -4.097  -1.306   0.037  0.00  0.00     0.104 C 
HETATM    7  S   UNK N   1      -4.652  -2.667  -1.034  0.00  0.00    -0.166 SA
HETATM    8  C   UNK N   1      -3.952  -3.939   0.093  0.00  0.00     0.089 C 
HETATM    9  C   UNK N   1      -2.616  -3.523   0.729  0.00  0.00     0.118 C 
HETATM   10  N   UNK N   1      -1.941  -2.531  -0.110  0.00  0.00    -0.191 NA
BRANCH  10  11
HETATM   11  S   UNK N   1      -0.173  -2.629   0.109  0.00  0.00     0.244 S 
HETATM   12  O   UNK N   1      -0.144  -4.043  -0.497  0.00  0.00    -0.206 OA
HETATM   13  O   UNK N   1      -0.082  -1.981  -1.283  0.00  0.00    -0.206 OA
BRANCH  11  14
HETATM   14  C   UNK N   1       1.635  -2.461   0.054  0.00  0.00     0.074 A 
HETATM   15  C   UNK N   1       2.258  -1.425   0.760  0.00  0.00     0.025 A 
HETATM   16  C   UNK N   1       3.652  -1.290   0.730  0.00  0.00     0.008 A 
HETATM   17  C   UNK N   1       4.431  -2.195   0.001  0.00  0.00    -0.062 A 
HETATM   18  C   UNK N   1       3.820  -3.238  -0.694  0.00  0.00     0.008 A 
HETATM   19  C   UNK N   1       5.910  -2.048  -0.037  0.00  0.00     0.048 C 
HETATM   20  C   UNK N   1       2.431  -3.372  -0.668  0.00  0.00     0.025 A 
ENDBRANCH  11  14
ENDBRANCH  10  11
ENDBRANCH   1   5
BRANCH   2  21
HETATM   21  C   UNK N   1      -1.708   1.758  -0.087  0.00  0.00     0.188 C 
BRANCH  21  22
HETATM   22  C   UNK N   1      -2.399   3.098   0.249  0.00  0.00     0.074 C 
BRANCH  22  23
HETATM   23  C   UNK N   1      -1.481   4.275   0.398  0.00  0.00    -0.056 A 
HETATM   24  C   UNK N   1      -1.539   5.303  -0.550  0.00  0.00     0.007 A 
HETATM   25  C   UNK N   1      -0.648   6.376  -0.477  0.00  0.00     0.001 A 
HETATM   26  C   UNK N   1       0.307   6.423   0.542  0.00  0.00     0.000 A 
HETATM   27  C   UNK N   1       0.364   5.400   1.495  0.00  0.00     0.001 A 
HETATM   28  C   UNK N   1      -0.527   4.324   1.423  0.00  0.00     0.007 A 
ENDBRANCH  22  23
ENDBRANCH  21  22
BRANCH  21  29
HETATM   29  C   UNK N   1      -0.316   1.931  -0.651  0.00  0.00     0.282 C 
HETATM   30  O   UNK N   1      -0.159   2.563  -1.685  0.00  0.00    -0.263 OA
BRANCH  29  31
HETATM   31  O   UNK N   1       0.753   1.429   0.023  0.00  0.00    -0.320 OA
BRANCH  31  32
HETATM   32  C   UNK N   1       2.058   1.705  -0.327  0.00  0.00     0.174 C 
HETATM   33  C   UNK N   1       2.437   1.001  -1.617  0.00  0.00     0.034 C 
ENDBRANCH  31  32
ENDBRANCH  29  31
ENDBRANCH  21  29
ENDBRANCH   2  21
TORSDOF 9
