MODEL 1
REMARK VINA RESULT:      -7.3      0.000      0.000
REMARK  5 active torsions:
REMARK  status: ('A' for Active; 'I' for Inactive)
REMARK    1  A    between atoms: C_2  and  C_4 
REMARK    2  A    between atoms: C_4  and  C_5 
REMARK    3  A    between atoms: C_5  and  C_6 
REMARK    4  A    between atoms: C_5  and  C_12 
REMARK    5  A    between atoms: C_13  and  O_14 
ROOT
HETATM    1  C   UNK N   1      28.191  24.545  -4.127  0.00  0.00     0.060 A 
HETATM    2  C   UNK N   1      28.538  25.697  -4.868  0.00  0.00     0.091 A 
HETATM    3  C   UNK N   1      27.791  26.870  -4.723  0.00  0.00     0.032 A 
HETATM    4  C   UNK N   1      28.115  28.035  -5.433  0.00  0.00     0.017 A 
HETATM    5  C   UNK N   1      27.357  29.197  -5.257  0.00  0.00     0.001 A 
HETATM    6  C   UNK N   1      26.276  29.200  -4.372  0.00  0.00     0.003 A 
HETATM    7  C   UNK N   1      25.945  28.041  -3.665  0.00  0.00     0.038 A 
HETATM    8  C   UNK N   1      26.699  26.875  -3.837  0.00  0.00     0.092 A 
HETATM    9  O   UNK N   1      26.378  25.780  -3.163  0.00  0.00    -0.274 OA
HETATM   10  C   UNK N   1      27.056  24.639  -3.268  0.00  0.00     0.298 A 
HETATM   11  O   UNK N   1      26.675  23.683  -2.621  0.00  0.00    -0.259 OA
ENDROOT
BRANCH   1  12
HETATM   12  C   UNK N   1      29.058  23.280  -4.289  0.00  0.00     0.067 C 
BRANCH  12  13
HETATM   13  C   UNK N   1      30.517  23.615  -3.916  0.00  0.00     0.092 C 
BRANCH  13  14
HETATM   14  C   UNK N   1      31.010  22.832  -2.727  0.00  0.00     0.124 C 
HETATM   15  C   UNK N   1      32.029  21.765  -2.921  0.00  0.00     0.091 C 
HETATM   16  O   UNK N   1      30.582  23.059  -1.607  0.00  0.00    -0.298 OA
ENDBRANCH  13  14
ENDBRANCH  12  13
BRANCH  12  17
HETATM   17  C   UNK N   1      28.967  22.583  -5.641  0.00  0.00    -0.049 A 
HETATM   18  C   UNK N   1      27.829  22.774  -6.442  0.00  0.00     0.008 A 
HETATM   19  C   UNK N   1      27.720  22.138  -7.682  0.00  0.00     0.001 A 
HETATM   20  C   UNK N   1      28.744  21.303  -8.133  0.00  0.00     0.000 A 
HETATM   21  C   UNK N   1      29.879  21.101  -7.346  0.00  0.00     0.001 A 
HETATM   22  C   UNK N   1      29.990  21.735  -6.106  0.00  0.00     0.008 A 
ENDBRANCH  12  17
ENDBRANCH   1  12
BRANCH   2  23
HETATM   23  O   UNK N   1      29.594  25.678  -5.705  0.00  0.00    -0.359 OA
HETATM   24  H   UNK N   1      29.681  26.267  -6.429  0.00  0.00     0.217 HD
ENDBRANCH   2  23
TORSDOF 5
ENDMDL
MODEL 2
REMARK VINA RESULT:      -7.3     12.964     17.036
REMARK  5 active torsions:
REMARK  status: ('A' for Active; 'I' for Inactive)
REMARK    1  A    between atoms: C_2  and  C_4 
REMARK    2  A    between atoms: C_4  and  C_5 
REMARK    3  A    between atoms: C_5  and  C_6 
REMARK    4  A    between atoms: C_5  and  C_12 
REMARK    5  A    between atoms: C_13  and  O_14 
ROOT
HETATM    1  C   UNK N   1      33.501  16.614   8.391  0.00  0.00     0.060 A 
HETATM    2  C   UNK N   1      33.471  15.388   9.092  0.00  0.00     0.091 A 
HETATM    3  C   UNK N   1      34.321  15.189  10.184  0.00  0.00     0.032 A 
HETATM    4  C   UNK N   1      34.309  13.989  10.910  0.00  0.00     0.017 A 
HETATM    5  C   UNK N   1      35.163  13.824  12.006  0.00  0.00     0.001 A 
HETATM    6  C   UNK N   1      36.028  14.855  12.380  0.00  0.00     0.003 A 
HETATM    7  C   UNK N   1      36.048  16.051  11.658  0.00  0.00     0.038 A 
HETATM    8  C   UNK N   1      35.198  16.222  10.560  0.00  0.00     0.092 A 
HETATM    9  O   UNK N   1      35.224  17.359   9.881  0.00  0.00    -0.274 OA
HETATM   10  C   UNK N   1      34.436  17.596   8.834  0.00  0.00     0.298 A 
HETATM   11  O   UNK N   1      34.544  18.664   8.264  0.00  0.00    -0.259 OA
ENDROOT
BRANCH   1  12
HETATM   12  C   UNK N   1      32.525  16.809   7.213  0.00  0.00     0.067 C 
BRANCH  12  13
HETATM   13  C   UNK N   1      33.237  17.593   6.090  0.00  0.00     0.092 C 
BRANCH  13  14
HETATM   14  C   UNK N   1      33.366  16.800   4.816  0.00  0.00     0.124 C 
HETATM   15  C   UNK N   1      32.603  17.218   3.609  0.00  0.00     0.091 C 
HETATM   16  O   UNK N   1      34.087  15.817   4.761  0.00  0.00    -0.298 OA
ENDBRANCH  13  14
ENDBRANCH  12  13
BRANCH  12  17
HETATM   17  C   UNK N   1      31.177  17.424   7.565  0.00  0.00    -0.049 A 
HETATM   18  C   UNK N   1      30.110  17.316   6.658  0.00  0.00     0.008 A 
HETATM   19  C   UNK N   1      28.866  17.879   6.956  0.00  0.00     0.001 A 
HETATM   20  C   UNK N   1      28.676  18.559   8.161  0.00  0.00     0.000 A 
HETATM   21  C   UNK N   1      29.729  18.678   9.070  0.00  0.00     0.001 A 
HETATM   22  C   UNK N   1      30.973  18.116   8.774  0.00  0.00     0.008 A 
ENDBRANCH  12  17
ENDBRANCH   1  12
BRANCH   2  23
HETATM   23  O   UNK N   1      32.617  14.411   8.724  0.00  0.00    -0.359 OA
HETATM   24  H   UNK N   1      32.086  13.942   9.337  0.00  0.00     0.217 HD
ENDBRANCH   2  23
TORSDOF 5
ENDMDL
MODEL 3
REMARK VINA RESULT:      -7.2      0.887      2.389
REMARK  5 active torsions:
REMARK  status: ('A' for Active; 'I' for Inactive)
REMARK    1  A    between atoms: C_2  and  C_4 
REMARK    2  A    between atoms: C_4  and  C_5 
REMARK    3  A    between atoms: C_5  and  C_6 
REMARK    4  A    between atoms: C_5  and  C_12 
REMARK    5  A    between atoms: C_13  and  O_14 
ROOT
HETATM    1  C   UNK N   1      28.993  24.475  -4.809  0.00  0.00     0.060 A 
HETATM    2  C   UNK N   1      27.926  24.894  -3.984  0.00  0.00     0.091 A 
HETATM    3  C   UNK N   1      27.355  26.156  -4.169  0.00  0.00     0.032 A 
HETATM    4  C   UNK N   1      26.287  26.599  -3.375  0.00  0.00     0.017 A 
HETATM    5  C   UNK N   1      25.728  27.862  -3.593  0.00  0.00     0.001 A 
HETATM    6  C   UNK N   1      26.232  28.686  -4.602  0.00  0.00     0.003 A 
HETATM    7  C   UNK N   1      27.299  28.253  -5.393  0.00  0.00     0.038 A 
HETATM    8  C   UNK N   1      27.864  26.990  -5.180  0.00  0.00     0.092 A 
HETATM    9  O   UNK N   1      28.876  26.588  -5.935  0.00  0.00    -0.274 OA
HETATM   10  C   UNK N   1      29.454  25.397  -5.797  0.00  0.00     0.298 A 
HETATM   11  O   UNK N   1      30.388  25.123  -6.525  0.00  0.00    -0.259 OA
ENDROOT
BRANCH   1  12
HETATM   12  C   UNK N   1      29.575  23.063  -4.597  0.00  0.00     0.067 C 
BRANCH  12  13
HETATM   13  C   UNK N   1      31.061  23.182  -4.201  0.00  0.00     0.092 C 
BRANCH  13  14
HETATM   14  C   UNK N   1      31.362  22.554  -2.865  0.00  0.00     0.124 C 
HETATM   15  C   UNK N   1      32.347  21.442  -2.780  0.00  0.00     0.091 C 
HETATM   16  O   UNK N   1      30.806  22.945  -1.852  0.00  0.00    -0.298 OA
ENDBRANCH  13  14
ENDBRANCH  12  13
BRANCH  12  17
HETATM   17  C   UNK N   1      29.372  22.084  -5.746  0.00  0.00    -0.049 A 
HETATM   18  C   UNK N   1      30.244  20.991  -5.885  0.00  0.00     0.008 A 
HETATM   19  C   UNK N   1      30.082  20.084  -6.936  0.00  0.00     0.001 A 
HETATM   20  C   UNK N   1      29.050  20.260  -7.861  0.00  0.00     0.000 A 
HETATM   21  C   UNK N   1      28.179  21.344  -7.737  0.00  0.00     0.001 A 
HETATM   22  C   UNK N   1      28.339  22.252  -6.688  0.00  0.00     0.008 A 
ENDBRANCH  12  17
ENDBRANCH   1  12
BRANCH   2  23
HETATM   23  O   UNK N   1      27.444  24.077  -3.025  0.00  0.00    -0.359 OA
HETATM   24  H   UNK N   1      27.708  23.183  -2.937  0.00  0.00     0.217 HD
ENDBRANCH   2  23
TORSDOF 5
ENDMDL
MODEL 4
REMARK VINA RESULT:      -7.2     16.538     19.150
REMARK  5 active torsions:
REMARK  status: ('A' for Active; 'I' for Inactive)
REMARK    1  A    between atoms: C_2  and  C_4 
REMARK    2  A    between atoms: C_4  and  C_5 
REMARK    3  A    between atoms: C_5  and  C_6 
REMARK    4  A    between atoms: C_5  and  C_12 
REMARK    5  A    between atoms: C_13  and  O_14 
ROOT
HETATM    1  C   UNK N   1      20.740  15.036   8.191  0.00  0.00     0.060 A 
HETATM    2  C   UNK N   1      20.626  14.142   9.279  0.00  0.00     0.091 A 
HETATM    3  C   UNK N   1      21.745  13.426   9.714  0.00  0.00     0.032 A 
HETATM    4  C   UNK N   1      21.670  12.540  10.798  0.00  0.00     0.017 A 
HETATM    5  C   UNK N   1      22.810  11.848  11.218  0.00  0.00     0.001 A 
HETATM    6  C   UNK N   1      24.027  12.039  10.559  0.00  0.00     0.003 A 
HETATM    7  C   UNK N   1      24.107  12.917   9.476  0.00  0.00     0.038 A 
HETATM    8  C   UNK N   1      22.970  13.612   9.049  0.00  0.00     0.092 A 
HETATM    9  O   UNK N   1      23.055  14.443   8.021  0.00  0.00    -0.274 OA
HETATM   10  C   UNK N   1      22.019  15.145   7.567  0.00  0.00     0.298 A 
HETATM   11  O   UNK N   1      22.191  15.869   6.607  0.00  0.00    -0.259 OA
ENDROOT
BRANCH   1  12
HETATM   12  C   UNK N   1      19.491  15.832   7.761  0.00  0.00     0.067 C 
BRANCH  12  13
HETATM   13  C   UNK N   1      19.690  16.347   6.320  0.00  0.00     0.092 C 
BRANCH  13  14
HETATM   14  C   UNK N   1      18.780  15.671   5.328  0.00  0.00     0.124 C 
HETATM   15  C   UNK N   1      19.349  15.104   4.075  0.00  0.00     0.091 C 
HETATM   16  O   UNK N   1      17.581  15.584   5.537  0.00  0.00    -0.298 OA
ENDBRANCH  13  14
ENDBRANCH  12  13
BRANCH  12  17
HETATM   17  C   UNK N   1      19.059  16.946   8.705  0.00  0.00    -0.049 A 
HETATM   18  C   UNK N   1      19.937  18.012   8.964  0.00  0.00     0.008 A 
HETATM   19  C   UNK N   1      19.564  19.042   9.833  0.00  0.00     0.001 A 
HETATM   20  C   UNK N   1      18.314  19.017  10.454  0.00  0.00     0.000 A 
HETATM   21  C   UNK N   1      17.433  17.962  10.209  0.00  0.00     0.001 A 
HETATM   22  C   UNK N   1      17.803  16.932   9.341  0.00  0.00     0.008 A 
ENDBRANCH  12  17
ENDBRANCH   1  12
BRANCH   2  23
HETATM   23  O   UNK N   1      19.445  13.983   9.911  0.00  0.00    -0.359 OA
HETATM   24  H   UNK N   1      19.379  13.754  10.817  0.00  0.00     0.217 HD
ENDBRANCH   2  23
TORSDOF 5
ENDMDL
MODEL 5
REMARK VINA RESULT:      -7.1     12.447     16.350
REMARK  5 active torsions:
REMARK  status: ('A' for Active; 'I' for Inactive)
REMARK    1  A    between atoms: C_2  and  C_4 
REMARK    2  A    between atoms: C_4  and  C_5 
REMARK    3  A    between atoms: C_5  and  C_6 
REMARK    4  A    between atoms: C_5  and  C_12 
REMARK    5  A    between atoms: C_13  and  O_14 
ROOT
HETATM    1  C   UNK N   1      32.522  16.188   7.991  0.00  0.00     0.060 A 
HETATM    2  C   UNK N   1      33.423  16.746   8.926  0.00  0.00     0.091 A 
HETATM    3  C   UNK N   1      34.285  15.913   9.645  0.00  0.00     0.032 A 
HETATM    4  C   UNK N   1      35.200  16.434  10.572  0.00  0.00     0.017 A 
HETATM    5  C   UNK N   1      36.059  15.576  11.266  0.00  0.00     0.001 A 
HETATM    6  C   UNK N   1      36.009  14.199  11.038  0.00  0.00     0.003 A 
HETATM    7  C   UNK N   1      35.097  13.674  10.119  0.00  0.00     0.038 A 
HETATM    8  C   UNK N   1      34.233  14.526   9.422  0.00  0.00     0.092 A 
HETATM    9  O   UNK N   1      33.371  14.019   8.553  0.00  0.00    -0.274 OA
HETATM   10  C   UNK N   1      32.528  14.769   7.846  0.00  0.00     0.298 A 
HETATM   11  O   UNK N   1      31.762  14.211   7.085  0.00  0.00    -0.259 OA
ENDROOT
BRANCH   1  12
HETATM   12  C   UNK N   1      31.610  17.142   7.194  0.00  0.00     0.067 C 
BRANCH  12  13
HETATM   13  C   UNK N   1      30.151  16.958   7.663  0.00  0.00     0.092 C 
BRANCH  13  14
HETATM   14  C   UNK N   1      29.751  17.947   8.726  0.00  0.00     0.124 C 
HETATM   15  C   UNK N   1      28.400  17.856   9.345  0.00  0.00     0.091 C 
HETATM   16  O   UNK N   1      30.519  18.824   9.085  0.00  0.00    -0.298 OA
ENDBRANCH  13  14
ENDBRANCH  12  13
BRANCH  12  17
HETATM   17  C   UNK N   1      31.730  17.059   5.677  0.00  0.00    -0.049 A 
HETATM   18  C   UNK N   1      30.595  16.750   4.909  0.00  0.00     0.008 A 
HETATM   19  C   UNK N   1      30.684  16.661   3.517  0.00  0.00     0.001 A 
HETATM   20  C   UNK N   1      31.907  16.877   2.878  0.00  0.00     0.000 A 
HETATM   21  C   UNK N   1      33.044  17.181   3.629  0.00  0.00     0.001 A 
HETATM   22  C   UNK N   1      32.958  17.270   5.020  0.00  0.00     0.008 A 
ENDBRANCH  12  17
ENDBRANCH   1  12
BRANCH   2  23
HETATM   23  O   UNK N   1      33.466  18.079   9.121  0.00  0.00    -0.359 OA
HETATM   24  H   UNK N   1      34.236  18.592   8.968  0.00  0.00     0.217 HD
ENDBRANCH   2  23
TORSDOF 5
ENDMDL
MODEL 6
REMARK VINA RESULT:      -7.1     12.124     14.589
REMARK  5 active torsions:
REMARK  status: ('A' for Active; 'I' for Inactive)
REMARK    1  A    between atoms: C_2  and  C_4 
REMARK    2  A    between atoms: C_4  and  C_5 
REMARK    3  A    between atoms: C_5  and  C_6 
REMARK    4  A    between atoms: C_5  and  C_12 
REMARK    5  A    between atoms: C_13  and  O_14 
ROOT
HETATM    1  C   UNK N   1      22.280  17.573   5.128  0.00  0.00     0.060 A 
HETATM    2  C   UNK N   1      21.572  17.590   6.349  0.00  0.00     0.091 A 
HETATM    3  C   UNK N   1      21.380  16.403   7.061  0.00  0.00     0.032 A 
HETATM    4  C   UNK N   1      20.691  16.386   8.283  0.00  0.00     0.017 A 
HETATM    5  C   UNK N   1      20.527  15.183   8.978  0.00  0.00     0.001 A 
HETATM    6  C   UNK N   1      21.049  13.997   8.458  0.00  0.00     0.003 A 
HETATM    7  C   UNK N   1      21.732  14.006   7.239  0.00  0.00     0.038 A 
HETATM    8  C   UNK N   1      21.899  15.205   6.537  0.00  0.00     0.092 A 
HETATM    9  O   UNK N   1      22.548  15.205   5.382  0.00  0.00    -0.274 OA
HETATM   10  C   UNK N   1      22.754  16.309   4.666  0.00  0.00     0.298 A 
HETATM   11  O   UNK N   1      23.346  16.206   3.610  0.00  0.00    -0.259 OA
ENDROOT
BRANCH   1  12
HETATM   12  C   UNK N   1      22.500  18.908   4.388  0.00  0.00     0.067 C 
BRANCH  12  13
HETATM   13  C   UNK N   1      21.685  18.901   3.078  0.00  0.00     0.092 C 
BRANCH  13  14
HETATM   14  C   UNK N   1      20.356  19.599   3.214  0.00  0.00     0.124 C 
HETATM   15  C   UNK N   1      19.140  18.990   2.609  0.00  0.00     0.091 C 
HETATM   16  O   UNK N   1      20.264  20.658   3.812  0.00  0.00    -0.298 OA
ENDBRANCH  13  14
ENDBRANCH  12  13
BRANCH  12  17
HETATM   17  C   UNK N   1      23.952  19.300   4.147  0.00  0.00    -0.049 A 
HETATM   18  C   UNK N   1      24.278  20.101   3.040  0.00  0.00     0.008 A 
HETATM   19  C   UNK N   1      25.604  20.467   2.795  0.00  0.00     0.001 A 
HETATM   20  C   UNK N   1      26.620  20.035   3.652  0.00  0.00     0.000 A 
HETATM   21  C   UNK N   1      26.311  19.236   4.754  0.00  0.00     0.001 A 
HETATM   22  C   UNK N   1      24.987  18.868   5.000  0.00  0.00     0.008 A 
ENDBRANCH  12  17
ENDBRANCH   1  12
BRANCH   2  23
HETATM   23  O   UNK N   1      21.088  18.749   6.842  0.00  0.00    -0.359 OA
HETATM   24  H   UNK N   1      21.169  19.567   6.392  0.00  0.00     0.217 HD
ENDBRANCH   2  23
TORSDOF 5
ENDMDL
MODEL 7
REMARK VINA RESULT:      -7.0     12.536     16.552
REMARK  5 active torsions:
REMARK  status: ('A' for Active; 'I' for Inactive)
REMARK    1  A    between atoms: C_2  and  C_4 
REMARK    2  A    between atoms: C_4  and  C_5 
REMARK    3  A    between atoms: C_5  and  C_6 
REMARK    4  A    between atoms: C_5  and  C_12 
REMARK    5  A    between atoms: C_13  and  O_14 
ROOT
HETATM    1  C   UNK N   1      33.326  17.016   8.270  0.00  0.00     0.060 A 
HETATM    2  C   UNK N   1      33.233  15.766   8.920  0.00  0.00     0.091 A 
HETATM    3  C   UNK N   1      34.143  15.436   9.929  0.00  0.00     0.032 A 
HETATM    4  C   UNK N   1      34.073  14.208  10.603  0.00  0.00     0.017 A 
HETATM    5  C   UNK N   1      34.989  13.912  11.618  0.00  0.00     0.001 A 
HETATM    6  C   UNK N   1      35.976  14.839  11.962  0.00  0.00     0.003 A 
HETATM    7  C   UNK N   1      36.054  16.062  11.291  0.00  0.00     0.038 A 
HETATM    8  C   UNK N   1      35.141  16.364  10.274  0.00  0.00     0.092 A 
HETATM    9  O   UNK N   1      35.223  17.526   9.643  0.00  0.00    -0.274 OA
HETATM   10  C   UNK N   1      34.382  17.886   8.675  0.00  0.00     0.298 A 
HETATM   11  O   UNK N   1      34.547  18.966   8.142  0.00  0.00    -0.259 OA
ENDROOT
BRANCH   1  12
HETATM   12  C   UNK N   1      32.284  17.358   7.185  0.00  0.00     0.067 C 
BRANCH  12  13
HETATM   13  C   UNK N   1      30.905  16.820   7.619  0.00  0.00     0.092 C 
BRANCH  13  14
HETATM   14  C   UNK N   1      29.935  17.916   7.972  0.00  0.00     0.124 C 
HETATM   15  C   UNK N   1      30.084  18.644   9.262  0.00  0.00     0.091 C 
HETATM   16  O   UNK N   1      29.026  18.215   7.215  0.00  0.00    -0.298 OA
ENDBRANCH  13  14
ENDBRANCH  12  13
BRANCH  12  17
HETATM   17  C   UNK N   1      32.639  16.927   5.768  0.00  0.00    -0.049 A 
HETATM   18  C   UNK N   1      32.011  17.552   4.678  0.00  0.00     0.008 A 
HETATM   19  C   UNK N   1      32.315  17.167   3.369  0.00  0.00     0.001 A 
HETATM   20  C   UNK N   1      33.246  16.153   3.135  0.00  0.00     0.000 A 
HETATM   21  C   UNK N   1      33.874  15.520   4.209  0.00  0.00     0.001 A 
HETATM   22  C   UNK N   1      33.572  15.902   5.518  0.00  0.00     0.008 A 
ENDBRANCH  12  17
ENDBRANCH   1  12
BRANCH   2  23
HETATM   23  O   UNK N   1      32.264  14.891   8.584  0.00  0.00    -0.359 OA
HETATM   24  H   UNK N   1      31.441  14.846   9.030  0.00  0.00     0.217 HD
ENDBRANCH   2  23
TORSDOF 5
ENDMDL
MODEL 8
REMARK VINA RESULT:      -6.8     10.832     13.830
REMARK  5 active torsions:
REMARK  status: ('A' for Active; 'I' for Inactive)
REMARK    1  A    between atoms: C_2  and  C_4 
REMARK    2  A    between atoms: C_4  and  C_5 
REMARK    3  A    between atoms: C_5  and  C_6 
REMARK    4  A    between atoms: C_5  and  C_12 
REMARK    5  A    between atoms: C_13  and  O_14 
ROOT
HETATM    1  C   UNK N   1      30.000  17.496   6.450  0.00  0.00     0.060 A 
HETATM    2  C   UNK N   1      29.439  18.028   5.268  0.00  0.00     0.091 A 
HETATM    3  C   UNK N   1      28.399  18.959   5.348  0.00  0.00     0.032 A 
HETATM    4  C   UNK N   1      27.827  19.516   4.195  0.00  0.00     0.017 A 
HETATM    5  C   UNK N   1      26.796  20.455   4.308  0.00  0.00     0.001 A 
HETATM    6  C   UNK N   1      26.335  20.841   5.569  0.00  0.00     0.003 A 
HETATM    7  C   UNK N   1      26.898  20.286   6.721  0.00  0.00     0.038 A 
HETATM    8  C   UNK N   1      27.929  19.345   6.616  0.00  0.00     0.092 A 
HETATM    9  O   UNK N   1      28.457  18.824   7.714  0.00  0.00    -0.274 OA
HETATM   10  C   UNK N   1      29.446  17.933   7.690  0.00  0.00     0.298 A 
HETATM   11  O   UNK N   1      29.854  17.499   8.750  0.00  0.00    -0.259 OA
ENDROOT
BRANCH   1  12
HETATM   12  C   UNK N   1      31.168  16.497   6.323  0.00  0.00     0.067 C 
BRANCH  12  13
HETATM   13  C   UNK N   1      30.623  15.060   6.464  0.00  0.00     0.092 C 
BRANCH  13  14
HETATM   14  C   UNK N   1      30.928  14.200   5.266  0.00  0.00     0.124 C 
HETATM   15  C   UNK N   1      31.849  14.706   4.212  0.00  0.00     0.091 C 
HETATM   16  O   UNK N   1      30.429  13.093   5.147  0.00  0.00    -0.298 OA
ENDBRANCH  13  14
ENDBRANCH  12  13
BRANCH  12  17
HETATM   17  C   UNK N   1      32.355  16.744   7.245  0.00  0.00    -0.049 A 
HETATM   18  C   UNK N   1      32.678  15.793   8.227  0.00  0.00     0.008 A 
HETATM   19  C   UNK N   1      33.757  16.003   9.089  0.00  0.00     0.001 A 
HETATM   20  C   UNK N   1      34.525  17.165   8.981  0.00  0.00     0.000 A 
HETATM   21  C   UNK N   1      34.213  18.121   8.013  0.00  0.00     0.001 A 
HETATM   22  C   UNK N   1      33.134  17.914   7.150  0.00  0.00     0.008 A 
ENDBRANCH  12  17
ENDBRANCH   1  12
BRANCH   2  23
HETATM   23  O   UNK N   1      29.908  17.654   4.061  0.00  0.00    -0.359 OA
HETATM   24  H   UNK N   1      30.483  18.190   3.549  0.00  0.00     0.217 HD
ENDBRANCH   2  23
TORSDOF 5
ENDMDL
MODEL 9
REMARK VINA RESULT:      -6.8     17.631     21.740
REMARK  5 active torsions:
REMARK  status: ('A' for Active; 'I' for Inactive)
REMARK    1  A    between atoms: C_2  and  C_4 
REMARK    2  A    between atoms: C_4  and  C_5 
REMARK    3  A    between atoms: C_5  and  C_6 
REMARK    4  A    between atoms: C_5  and  C_12 
REMARK    5  A    between atoms: C_13  and  O_14 
ROOT
HETATM    1  C   UNK N   1      35.722  13.644  12.041  0.00  0.00     0.060 A 
HETATM    2  C   UNK N   1      36.044  14.005  13.368  0.00  0.00     0.091 A 
HETATM    3  C   UNK N   1      35.630  13.196  14.430  0.00  0.00     0.032 A 
HETATM    4  C   UNK N   1      35.943  13.519  15.759  0.00  0.00     0.017 A 
HETATM    5  C   UNK N   1      35.526  12.682  16.800  0.00  0.00     0.001 A 
HETATM    6  C   UNK N   1      34.798  11.523  16.518  0.00  0.00     0.003 A 
HETATM    7  C   UNK N   1      34.480  11.199  15.196  0.00  0.00     0.038 A 
HETATM    8  C   UNK N   1      34.893  12.032  14.150  0.00  0.00     0.092 A 
HETATM    9  O   UNK N   1      34.586  11.717  12.900  0.00  0.00    -0.274 OA
HETATM   10  C   UNK N   1      34.955  12.456  11.855  0.00  0.00     0.298 A 
HETATM   11  O   UNK N   1      34.612  12.094  10.747  0.00  0.00    -0.259 OA
ENDROOT
BRANCH   1  12
HETATM   12  C   UNK N   1      36.224  14.544  10.893  0.00  0.00     0.067 C 
BRANCH  12  13
HETATM   13  C   UNK N   1      35.011  15.147  10.155  0.00  0.00     0.092 C 
BRANCH  13  14
HETATM   14  C   UNK N   1      35.129  16.636   9.956  0.00  0.00     0.124 C 
HETATM   15  C   UNK N   1      34.319  17.304   8.901  0.00  0.00     0.091 C 
HETATM   16  O   UNK N   1      35.882  17.301  10.647  0.00  0.00    -0.298 OA
ENDBRANCH  13  14
ENDBRANCH  12  13
BRANCH  12  17
HETATM   17  C   UNK N   1      37.209  13.898   9.928  0.00  0.00    -0.049 A 
HETATM   18  C   UNK N   1      36.941  13.918   8.549  0.00  0.00     0.008 A 
HETATM   19  C   UNK N   1      37.827  13.325   7.645  0.00  0.00     0.001 A 
HETATM   20  C   UNK N   1      38.989  12.704   8.109  0.00  0.00     0.000 A 
HETATM   21  C   UNK N   1      39.266  12.673   9.477  0.00  0.00     0.001 A 
HETATM   22  C   UNK N   1      38.382  13.264  10.382  0.00  0.00     0.008 A 
ENDBRANCH  12  17
ENDBRANCH   1  12
BRANCH   2  23
HETATM   23  O   UNK N   1      36.760  15.120  13.618  0.00  0.00    -0.359 OA
HETATM   24  H   UNK N   1      37.624  15.257  13.281  0.00  0.00     0.217 HD
ENDBRANCH   2  23
TORSDOF 5
ENDMDL
