REMARK  5 active torsions:
REMARK  status: ('A' for Active; 'I' for Inactive)
REMARK    1  A    between atoms: C_2  and  C_4 
REMARK    2  A    between atoms: C_4  and  C_5 
REMARK    3  A    between atoms: C_5  and  C_6 
REMARK    4  A    between atoms: C_5  and  C_12 
REMARK    5  A    between atoms: C_13  and  O_14 
ROOT
HETATM    1  C   UNK N   1       0.900  -0.291   0.016  0.00  0.00     0.060 A 
HETATM    2  C   UNK N   1       2.065   0.471  -0.223  0.00  0.00     0.091 A 
HETATM    3  C   UNK N   1       3.325  -0.113  -0.063  0.00  0.00     0.032 A 
HETATM    4  C   UNK N   1       4.502   0.611  -0.303  0.00  0.00     0.017 A 
HETATM    5  C   UNK N   1       5.748  -0.005  -0.147  0.00  0.00     0.001 A 
HETATM    6  C   UNK N   1       5.823  -1.343   0.248  0.00  0.00     0.003 A 
HETATM    7  C   UNK N   1       4.654  -2.068   0.493  0.00  0.00     0.038 A 
HETATM    8  C   UNK N   1       3.404  -1.458   0.340  0.00  0.00     0.092 A 
HETATM    9  O   UNK N   1       2.301  -2.153   0.575  0.00  0.00    -0.274 OA
HETATM   10  C   UNK N   1       1.079  -1.642   0.439  0.00  0.00     0.298 A 
HETATM   11  O   UNK N   1       0.127  -2.353   0.694  0.00  0.00    -0.259 OA
ENDROOT
BRANCH   1  12
HETATM   12  C   UNK N   1      -0.472   0.378  -0.203  0.00  0.00     0.067 C 
BRANCH  12  13
HETATM   13  C   UNK N   1      -0.619   1.564   0.773  0.00  0.00     0.092 C 
BRANCH  13  14
HETATM   14  C   UNK N   1      -1.565   2.622   0.268  0.00  0.00     0.124 C 
HETATM   15  C   UNK N   1      -1.096   4.029   0.143  0.00  0.00     0.091 C 
HETATM   16  O   UNK N   1      -2.712   2.341  -0.038  0.00  0.00    -0.298 OA
ENDBRANCH  13  14
ENDBRANCH  12  13
BRANCH  12  17
HETATM   17  C   UNK N   1      -1.678  -0.551  -0.149  0.00  0.00    -0.049 A 
HETATM   18  C   UNK N   1      -1.842  -1.530  -1.143  0.00  0.00     0.008 A 
HETATM   19  C   UNK N   1      -2.945  -2.388  -1.118  0.00  0.00     0.001 A 
HETATM   20  C   UNK N   1      -3.897  -2.276  -0.102  0.00  0.00     0.000 A 
HETATM   21  C   UNK N   1      -3.749  -1.305   0.890  0.00  0.00     0.001 A 
HETATM   22  C   UNK N   1      -2.648  -0.446   0.867  0.00  0.00     0.008 A 
ENDBRANCH  12  17
ENDBRANCH   1  12
BRANCH   2  23
HETATM   23  O   UNK N   1       1.971   1.757  -0.618  0.00  0.00    -0.359 OA
HETATM   24  H   UNK N   1       2.712   2.261  -0.892  0.00  0.00     0.217 HD
ENDBRANCH   2  23
TORSDOF 5
