MODEL 1
REMARK VINA RESULT:      -6.2      0.000      0.000
REMARK  13 active torsions:
REMARK  status: ('A' for Active; 'I' for Inactive)
REMARK    1  A    between atoms: O_1  and  C_2 
REMARK    2  A    between atoms: C_2  and  C_3 
REMARK    3  A    between atoms: C_3  and  C_5 
REMARK    4  A    between atoms: C_5  and  C_6 
REMARK    5  A    between atoms: C_5  and  N_13 
REMARK    6  A    between atoms: C_6  and  C_7 
REMARK       I    between atoms: N_13  and  C_14 
REMARK    7  A    between atoms: C_14  and  C_16 
REMARK    8  A    between atoms: C_16  and  C_17 
REMARK    9  A    between atoms: C_16  and  N_24 
REMARK   10  A    between atoms: C_17  and  C_18 
REMARK       I    between atoms: N_24  and  C_25 
REMARK   11  A    between atoms: C_25  and  O_27 
REMARK   12  A    between atoms: O_27  and  C_28 
REMARK   13  A    between atoms: C_28  and  C_29 
ROOT
HETATM    1  C   UNK N   1      22.519  17.987   4.068  0.00  0.00     0.183 C 
ENDROOT
BRANCH   1   2
HETATM    2  C   UNK N   1      21.423  17.389   4.911  0.00  0.00     0.241 C 
HETATM    3  N   UNK N   1      21.743  16.830   6.113  0.00  0.00    -0.347 N 
HETATM    4  H   UNK N   1      22.618  17.084   6.483  0.00  0.00     0.163 HD
HETATM    5  O   UNK N   1      20.293  17.312   4.456  0.00  0.00    -0.271 OA
BRANCH   3   6
HETATM    6  C   UNK N   1      20.956  15.904   6.922  0.00  0.00     0.160 C 
BRANCH   6   7
HETATM    7  C   UNK N   1      20.563  16.381   8.313  0.00  0.00     0.172 C 
HETATM    8  O   UNK N   1      20.798  15.702   9.299  0.00  0.00    -0.293 OA
BRANCH   7   9
HETATM    9  C   UNK N   1      19.745  17.629   8.472  0.00  0.00     0.244 C 
BRANCH   9  10
HETATM   10  O   UNK N   1      20.464  18.745   8.041  0.00  0.00    -0.394 OA
HETATM   11  H   UNK N   1      20.854  19.599   8.286  0.00  0.00     0.209 HD
ENDBRANCH   9  10
ENDBRANCH   7   9
ENDBRANCH   6   7
BRANCH   6  12
HETATM   12  C   UNK N   1      21.468  14.453   6.835  0.00  0.00     0.071 C 
BRANCH  12  13
HETATM   13  C   UNK N   1      22.892  14.119   6.499  0.00  0.00    -0.056 A 
HETATM   14  C   UNK N   1      23.888  14.063   7.482  0.00  0.00     0.007 A 
HETATM   15  C   UNK N   1      25.165  13.587   7.170  0.00  0.00     0.001 A 
HETATM   16  C   UNK N   1      25.447  13.135   5.878  0.00  0.00     0.000 A 
HETATM   17  C   UNK N   1      24.455  13.173   4.896  0.00  0.00     0.001 A 
HETATM   18  C   UNK N   1      23.180  13.658   5.207  0.00  0.00     0.007 A 
ENDBRANCH  12  13
ENDBRANCH   6  12
ENDBRANCH   3   6
ENDBRANCH   1   2
BRANCH   1  19
HETATM   19  C   UNK N   1      23.329  16.929   3.312  0.00  0.00     0.073 C 
BRANCH  19  20
HETATM   20  C   UNK N   1      24.715  16.766   3.839  0.00  0.00    -0.056 A 
HETATM   21  C   UNK N   1      24.977  16.960   5.198  0.00  0.00     0.007 A 
HETATM   22  C   UNK N   1      26.268  16.761   5.693  0.00  0.00     0.001 A 
HETATM   23  C   UNK N   1      27.296  16.374   4.829  0.00  0.00     0.000 A 
HETATM   24  C   UNK N   1      27.037  16.193   3.467  0.00  0.00     0.001 A 
HETATM   25  C   UNK N   1      25.746  16.386   2.972  0.00  0.00     0.007 A 
ENDBRANCH  19  20
ENDBRANCH   1  19
BRANCH   1  26
HETATM   26  N   UNK N   1      21.921  18.922   3.128  0.00  0.00    -0.323 N 
HETATM   27  C   UNK N   1      22.412  20.152   2.858  0.00  0.00     0.361 C 
HETATM   28  O   UNK N   1      21.851  20.854   2.029  0.00  0.00    -0.238 OA
HETATM   29  H   UNK N   1      21.105  18.639   2.655  0.00  0.00     0.165 HD
BRANCH  27  30
HETATM   30  O   UNK N   1      23.519  20.602   3.485  0.00  0.00    -0.299 OA
BRANCH  30  31
HETATM   31  C   UNK N   1      24.757  20.429   2.914  0.00  0.00     0.219 C 
BRANCH  31  32
HETATM   32  C   UNK N   1      25.838  20.282   3.926  0.00  0.00    -0.034 A 
HETATM   33  C   UNK N   1      25.561  20.578   5.264  0.00  0.00     0.009 A 
HETATM   34  C   UNK N   1      26.575  20.512   6.223  0.00  0.00     0.001 A 
HETATM   35  C   UNK N   1      27.870  20.148   5.843  0.00  0.00     0.000 A 
HETATM   36  C   UNK N   1      28.150  19.849   4.506  0.00  0.00     0.001 A 
HETATM   37  C   UNK N   1      27.137  19.922   3.545  0.00  0.00     0.009 A 
ENDBRANCH  31  32
ENDBRANCH  30  31
ENDBRANCH  27  30
ENDBRANCH   1  26
TORSDOF 13
ENDMDL
MODEL 2
REMARK VINA RESULT:      -6.2      1.669      2.933
REMARK  13 active torsions:
REMARK  status: ('A' for Active; 'I' for Inactive)
REMARK    1  A    between atoms: O_1  and  C_2 
REMARK    2  A    between atoms: C_2  and  C_3 
REMARK    3  A    between atoms: C_3  and  C_5 
REMARK    4  A    between atoms: C_5  and  C_6 
REMARK    5  A    between atoms: C_5  and  N_13 
REMARK    6  A    between atoms: C_6  and  C_7 
REMARK       I    between atoms: N_13  and  C_14 
REMARK    7  A    between atoms: C_14  and  C_16 
REMARK    8  A    between atoms: C_16  and  C_17 
REMARK    9  A    between atoms: C_16  and  N_24 
REMARK   10  A    between atoms: C_17  and  C_18 
REMARK       I    between atoms: N_24  and  C_25 
REMARK   11  A    between atoms: C_25  and  O_27 
REMARK   12  A    between atoms: O_27  and  C_28 
REMARK   13  A    between atoms: C_28  and  C_29 
ROOT
HETATM    1  C   UNK N   1      22.323  16.998   5.186  0.00  0.00     0.183 C 
ENDROOT
BRANCH   1   2
HETATM    2  C   UNK N   1      21.032  16.703   5.905  0.00  0.00     0.241 C 
HETATM    3  N   UNK N   1      21.032  16.642   7.267  0.00  0.00    -0.347 N 
HETATM    4  H   UNK N   1      21.806  17.055   7.713  0.00  0.00     0.163 HD
HETATM    5  O   UNK N   1      20.041  16.410   5.256  0.00  0.00    -0.271 OA
BRANCH   3   6
HETATM    6  C   UNK N   1      20.034  16.044   8.149  0.00  0.00     0.160 C 
BRANCH   6   7
HETATM    7  C   UNK N   1      18.956  16.974   8.684  0.00  0.00     0.172 C 
HETATM    8  O   UNK N   1      17.774  16.749   8.480  0.00  0.00    -0.293 OA
BRANCH   7   9
HETATM    9  C   UNK N   1      19.342  18.265   9.345  0.00  0.00     0.244 C 
BRANCH   9  10
HETATM   10  O   UNK N   1      20.108  19.048   8.480  0.00  0.00    -0.394 OA
HETATM   11  H   UNK N   1      20.174  19.884   7.991  0.00  0.00     0.209 HD
ENDBRANCH   9  10
ENDBRANCH   7   9
ENDBRANCH   6   7
BRANCH   6  12
HETATM   12  C   UNK N   1      20.652  15.077   9.178  0.00  0.00     0.071 C 
BRANCH  12  13
HETATM   13  C   UNK N   1      21.520  13.920   8.778  0.00  0.00    -0.056 A 
HETATM   14  C   UNK N   1      22.471  13.376   9.650  0.00  0.00     0.007 A 
HETATM   15  C   UNK N   1      23.147  12.198   9.317  0.00  0.00     0.001 A 
HETATM   16  C   UNK N   1      22.853  11.538   8.121  0.00  0.00     0.000 A 
HETATM   17  C   UNK N   1      21.894  12.066   7.252  0.00  0.00     0.001 A 
HETATM   18  C   UNK N   1      21.227  13.250   7.583  0.00  0.00     0.007 A 
ENDBRANCH  12  13
ENDBRANCH   6  12
ENDBRANCH   3   6
ENDBRANCH   1   2
BRANCH   1  19
HETATM   19  C   UNK N   1      22.855  15.792   4.403  0.00  0.00     0.073 C 
BRANCH  19  20
HETATM   20  C   UNK N   1      23.767  14.928   5.207  0.00  0.00    -0.056 A 
HETATM   21  C   UNK N   1      24.201  13.701   4.699  0.00  0.00     0.007 A 
HETATM   22  C   UNK N   1      25.091  12.918   5.437  0.00  0.00     0.001 A 
HETATM   23  C   UNK N   1      25.542  13.359   6.685  0.00  0.00     0.000 A 
HETATM   24  C   UNK N   1      25.096  14.580   7.200  0.00  0.00     0.001 A 
HETATM   25  C   UNK N   1      24.210  15.366   6.460  0.00  0.00     0.007 A 
ENDBRANCH  19  20
ENDBRANCH   1  19
BRANCH   1  26
HETATM   26  N   UNK N   1      22.107  18.119   4.286  0.00  0.00    -0.323 N 
HETATM   27  C   UNK N   1      23.066  18.995   3.913  0.00  0.00     0.361 C 
HETATM   28  O   UNK N   1      22.789  19.891   3.128  0.00  0.00    -0.238 OA
HETATM   29  H   UNK N   1      21.201  18.248   3.924  0.00  0.00     0.165 HD
BRANCH  27  30
HETATM   30  O   UNK N   1      24.324  18.880   4.388  0.00  0.00    -0.299 OA
BRANCH  30  31
HETATM   31  C   UNK N   1      25.369  18.633   3.530  0.00  0.00     0.219 C 
BRANCH  31  32
HETATM   32  C   UNK N   1      26.218  17.495   3.974  0.00  0.00    -0.034 A 
HETATM   33  C   UNK N   1      26.842  17.562   5.224  0.00  0.00     0.009 A 
HETATM   34  C   UNK N   1      27.698  16.537   5.637  0.00  0.00     0.001 A 
HETATM   35  C   UNK N   1      27.928  15.441   4.799  0.00  0.00     0.000 A 
HETATM   36  C   UNK N   1      27.303  15.371   3.550  0.00  0.00     0.001 A 
HETATM   37  C   UNK N   1      26.453  16.401   3.133  0.00  0.00     0.009 A 
ENDBRANCH  31  32
ENDBRANCH  30  31
ENDBRANCH  27  30
ENDBRANCH   1  26
TORSDOF 13
ENDMDL
MODEL 3
REMARK VINA RESULT:      -6.0      7.503     10.041
REMARK  13 active torsions:
REMARK  status: ('A' for Active; 'I' for Inactive)
REMARK    1  A    between atoms: O_1  and  C_2 
REMARK    2  A    between atoms: C_2  and  C_3 
REMARK    3  A    between atoms: C_3  and  C_5 
REMARK    4  A    between atoms: C_5  and  C_6 
REMARK    5  A    between atoms: C_5  and  N_13 
REMARK    6  A    between atoms: C_6  and  C_7 
REMARK       I    between atoms: N_13  and  C_14 
REMARK    7  A    between atoms: C_14  and  C_16 
REMARK    8  A    between atoms: C_16  and  C_17 
REMARK    9  A    between atoms: C_16  and  N_24 
REMARK   10  A    between atoms: C_17  and  C_18 
REMARK       I    between atoms: N_24  and  C_25 
REMARK   11  A    between atoms: C_25  and  O_27 
REMARK   12  A    between atoms: O_27  and  C_28 
REMARK   13  A    between atoms: C_28  and  C_29 
ROOT
HETATM    1  C   UNK N   1      31.584  16.600   8.352  0.00  0.00     0.183 C 
ENDROOT
BRANCH   1   2
HETATM    2  C   UNK N   1      32.620  15.706   8.984  0.00  0.00     0.241 C 
HETATM    3  N   UNK N   1      33.926  15.847   8.619  0.00  0.00    -0.347 N 
HETATM    4  H   UNK N   1      34.156  16.692   8.171  0.00  0.00     0.163 HD
HETATM    5  O   UNK N   1      32.260  14.801   9.718  0.00  0.00    -0.271 OA
BRANCH   3   6
HETATM    6  C   UNK N   1      35.027  14.907   8.805  0.00  0.00     0.160 C 
BRANCH   6   7
HETATM    7  C   UNK N   1      36.069  15.278   9.850  0.00  0.00     0.172 C 
HETATM    8  O   UNK N   1      37.129  14.678   9.921  0.00  0.00    -0.293 OA
BRANCH   7   9
HETATM    9  C   UNK N   1      35.740  16.294  10.905  0.00  0.00     0.244 C 
BRANCH   9  10
HETATM   10  O   UNK N   1      35.590  17.560  10.337  0.00  0.00    -0.394 OA
HETATM   11  H   UNK N   1      35.533  18.515  10.496  0.00  0.00     0.209 HD
ENDBRANCH   9  10
ENDBRANCH   7   9
ENDBRANCH   6   7
BRANCH   6  12
HETATM   12  C   UNK N   1      35.583  14.367   7.473  0.00  0.00     0.071 C 
BRANCH  12  13
HETATM   13  C   UNK N   1      34.719  14.162   6.263  0.00  0.00    -0.056 A 
HETATM   14  C   UNK N   1      35.064  14.690   5.013  0.00  0.00     0.007 A 
HETATM   15  C   UNK N   1      34.334  14.345   3.871  0.00  0.00     0.001 A 
HETATM   16  C   UNK N   1      33.270  13.444   3.968  0.00  0.00     0.000 A 
HETATM   17  C   UNK N   1      32.929  12.901   5.209  0.00  0.00     0.001 A 
HETATM   18  C   UNK N   1      33.655  13.255   6.351  0.00  0.00     0.007 A 
ENDBRANCH  12  13
ENDBRANCH   6  12
ENDBRANCH   3   6
ENDBRANCH   1   2
BRANCH   1  19
HETATM   19  C   UNK N   1      30.836  15.919   7.201  0.00  0.00     0.073 C 
BRANCH  19  20
HETATM   20  C   UNK N   1      31.310  16.354   5.855  0.00  0.00    -0.056 A 
HETATM   21  C   UNK N   1      30.672  15.891   4.702  0.00  0.00     0.007 A 
HETATM   22  C   UNK N   1      31.091  16.338   3.447  0.00  0.00     0.001 A 
HETATM   23  C   UNK N   1      32.152  17.243   3.346  0.00  0.00     0.000 A 
HETATM   24  C   UNK N   1      32.800  17.696   4.500  0.00  0.00     0.001 A 
HETATM   25  C   UNK N   1      32.377  17.253   5.755  0.00  0.00     0.007 A 
ENDBRANCH  19  20
ENDBRANCH   1  19
BRANCH   1  26
HETATM   26  N   UNK N   1      30.644  17.017   9.379  0.00  0.00    -0.323 N 
HETATM   27  C   UNK N   1      29.720  17.991   9.220  0.00  0.00     0.361 C 
HETATM   28  O   UNK N   1      28.955  18.250  10.138  0.00  0.00    -0.238 OA
HETATM   29  H   UNK N   1      30.681  16.558  10.249  0.00  0.00     0.165 HD
BRANCH  27  30
HETATM   30  O   UNK N   1      29.630  18.667   8.056  0.00  0.00    -0.299 OA
BRANCH  30  31
HETATM   31  C   UNK N   1      28.400  19.027   7.557  0.00  0.00     0.219 C 
BRANCH  31  32
HETATM   32  C   UNK N   1      28.034  18.265   6.332  0.00  0.00    -0.034 A 
HETATM   33  C   UNK N   1      28.263  18.843   5.079  0.00  0.00     0.009 A 
HETATM   34  C   UNK N   1      27.867  18.178   3.917  0.00  0.00     0.001 A 
HETATM   35  C   UNK N   1      27.243  16.930   4.005  0.00  0.00     0.000 A 
HETATM   36  C   UNK N   1      27.015  16.349   5.257  0.00  0.00     0.001 A 
HETATM   37  C   UNK N   1      27.404  17.018   6.422  0.00  0.00     0.009 A 
ENDBRANCH  31  32
ENDBRANCH  30  31
ENDBRANCH  27  30
ENDBRANCH   1  26
TORSDOF 13
ENDMDL
MODEL 4
REMARK VINA RESULT:      -6.0      2.541      4.733
REMARK  13 active torsions:
REMARK  status: ('A' for Active; 'I' for Inactive)
REMARK    1  A    between atoms: O_1  and  C_2 
REMARK    2  A    between atoms: C_2  and  C_3 
REMARK    3  A    between atoms: C_3  and  C_5 
REMARK    4  A    between atoms: C_5  and  C_6 
REMARK    5  A    between atoms: C_5  and  N_13 
REMARK    6  A    between atoms: C_6  and  C_7 
REMARK       I    between atoms: N_13  and  C_14 
REMARK    7  A    between atoms: C_14  and  C_16 
REMARK    8  A    between atoms: C_16  and  C_17 
REMARK    9  A    between atoms: C_16  and  N_24 
REMARK   10  A    between atoms: C_17  and  C_18 
REMARK       I    between atoms: N_24  and  C_25 
REMARK   11  A    between atoms: C_25  and  O_27 
REMARK   12  A    between atoms: O_27  and  C_28 
REMARK   13  A    between atoms: C_28  and  C_29 
ROOT
HETATM    1  C   UNK N   1      25.061  19.376   4.199  0.00  0.00     0.183 C 
ENDROOT
BRANCH   1   2
HETATM    2  C   UNK N   1      23.798  19.805   3.499  0.00  0.00     0.241 C 
HETATM    3  N   UNK N   1      22.645  19.116   3.732  0.00  0.00    -0.347 N 
HETATM    4  H   UNK N   1      22.639  18.553   4.539  0.00  0.00     0.163 HD
HETATM    5  O   UNK N   1      23.854  20.682   2.652  0.00  0.00    -0.271 OA
BRANCH   3   6
HETATM    6  C   UNK N   1      21.419  19.104   2.940  0.00  0.00     0.160 C 
BRANCH   6   7
HETATM    7  C   UNK N   1      20.688  20.431   2.797  0.00  0.00     0.172 C 
HETATM    8  O   UNK N   1      20.123  20.943   3.749  0.00  0.00    -0.293 OA
BRANCH   7   9
HETATM    9  C   UNK N   1      20.529  21.054   1.440  0.00  0.00     0.244 C 
BRANCH   9  10
HETATM   10  O   UNK N   1      21.594  20.701   0.611  0.00  0.00    -0.394 OA
HETATM   11  H   UNK N   1      22.546  20.521   0.551  0.00  0.00     0.209 HD
ENDBRANCH   9  10
ENDBRANCH   7   9
ENDBRANCH   6   7
BRANCH   6  12
HETATM   12  C   UNK N   1      20.527  17.882   3.239  0.00  0.00     0.071 C 
BRANCH  12  13
HETATM   13  C   UNK N   1      21.093  16.515   3.494  0.00  0.00    -0.056 A 
HETATM   14  C   UNK N   1      20.870  15.839   4.701  0.00  0.00     0.007 A 
HETATM   15  C   UNK N   1      21.263  14.505   4.849  0.00  0.00     0.001 A 
HETATM   16  C   UNK N   1      21.854  13.828   3.779  0.00  0.00     0.000 A 
HETATM   17  C   UNK N   1      22.066  14.490   2.567  0.00  0.00     0.001 A 
HETATM   18  C   UNK N   1      21.680  15.828   2.424  0.00  0.00     0.007 A 
ENDBRANCH  12  13
ENDBRANCH   6  12
ENDBRANCH   3   6
ENDBRANCH   1   2
BRANCH   1  19
HETATM   19  C   UNK N   1      25.929  18.447   3.343  0.00  0.00     0.073 C 
BRANCH  19  20
HETATM   20  C   UNK N   1      25.709  17.002   3.639  0.00  0.00    -0.056 A 
HETATM   21  C   UNK N   1      26.129  16.027   2.730  0.00  0.00     0.007 A 
HETATM   22  C   UNK N   1      25.962  14.674   3.034  0.00  0.00     0.001 A 
HETATM   23  C   UNK N   1      25.371  14.297   4.244  0.00  0.00     0.000 A 
HETATM   24  C   UNK N   1      24.938  15.273   5.147  0.00  0.00     0.001 A 
HETATM   25  C   UNK N   1      25.109  16.626   4.846  0.00  0.00     0.007 A 
ENDBRANCH  19  20
ENDBRANCH   1  19
BRANCH   1  26
HETATM   26  N   UNK N   1      25.814  20.564   4.565  0.00  0.00    -0.323 N 
HETATM   27  C   UNK N   1      26.659  20.639   5.618  0.00  0.00     0.361 C 
HETATM   28  O   UNK N   1      27.268  21.678   5.826  0.00  0.00    -0.238 OA
HETATM   29  H   UNK N   1      25.702  21.368   4.008  0.00  0.00     0.165 HD
BRANCH  27  30
HETATM   30  O   UNK N   1      26.843  19.576   6.428  0.00  0.00    -0.299 OA
BRANCH  30  31
HETATM   31  C   UNK N   1      28.113  19.173   6.765  0.00  0.00     0.219 C 
BRANCH  31  32
HETATM   32  C   UNK N   1      28.540  17.952   6.030  0.00  0.00    -0.034 A 
HETATM   33  C   UNK N   1      29.183  18.092   4.796  0.00  0.00     0.009 A 
HETATM   34  C   UNK N   1      29.535  16.961   4.055  0.00  0.00     0.001 A 
HETATM   35  C   UNK N   1      29.245  15.686   4.550  0.00  0.00     0.000 A 
HETATM   36  C   UNK N   1      28.604  15.543   5.785  0.00  0.00     0.001 A 
HETATM   37  C   UNK N   1      28.245  16.675   6.523  0.00  0.00     0.009 A 
ENDBRANCH  31  32
ENDBRANCH  30  31
ENDBRANCH  27  30
ENDBRANCH   1  26
TORSDOF 13
ENDMDL
MODEL 5
REMARK VINA RESULT:      -5.9     12.714     15.550
REMARK  13 active torsions:
REMARK  status: ('A' for Active; 'I' for Inactive)
REMARK    1  A    between atoms: O_1  and  C_2 
REMARK    2  A    between atoms: C_2  and  C_3 
REMARK    3  A    between atoms: C_3  and  C_5 
REMARK    4  A    between atoms: C_5  and  C_6 
REMARK    5  A    between atoms: C_5  and  N_13 
REMARK    6  A    between atoms: C_6  and  C_7 
REMARK       I    between atoms: N_13  and  C_14 
REMARK    7  A    between atoms: C_14  and  C_16 
REMARK    8  A    between atoms: C_16  and  C_17 
REMARK    9  A    between atoms: C_16  and  N_24 
REMARK   10  A    between atoms: C_17  and  C_18 
REMARK       I    between atoms: N_24  and  C_25 
REMARK   11  A    between atoms: C_25  and  O_27 
REMARK   12  A    between atoms: O_27  and  C_28 
REMARK   13  A    between atoms: C_28  and  C_29 
ROOT
HETATM    1  C   UNK N   1      36.109  14.172  12.814  0.00  0.00     0.183 C 
ENDROOT
BRANCH   1   2
HETATM    2  C   UNK N   1      35.870  15.040  11.605  0.00  0.00     0.241 C 
HETATM    3  N   UNK N   1      34.853  14.724  10.755  0.00  0.00    -0.347 N 
HETATM    4  H   UNK N   1      34.169  14.114  11.114  0.00  0.00     0.163 HD
HETATM    5  O   UNK N   1      36.658  15.936  11.348  0.00  0.00    -0.271 OA
BRANCH   3   6
HETATM    6  C   UNK N   1      34.646  15.172   9.381  0.00  0.00     0.160 C 
BRANCH   6   7
HETATM    7  C   UNK N   1      33.587  16.245   9.167  0.00  0.00     0.172 C 
HETATM    8  O   UNK N   1      33.881  17.429   9.187  0.00  0.00    -0.293 OA
BRANCH   7   9
HETATM    9  C   UNK N   1      32.140  15.858   9.078  0.00  0.00     0.244 C 
BRANCH   9  10
HETATM   10  O   UNK N   1      31.756  15.130  10.205  0.00  0.00    -0.394 OA
HETATM   11  H   UNK N   1      31.049  14.939  10.840  0.00  0.00     0.209 HD
ENDBRANCH   9  10
ENDBRANCH   7   9
ENDBRANCH   6   7
BRANCH   6  12
HETATM   12  C   UNK N   1      34.628  14.008   8.370  0.00  0.00     0.071 C 
BRANCH  12  13
HETATM   13  C   UNK N   1      34.701  12.570   8.795  0.00  0.00    -0.056 A 
HETATM   14  C   UNK N   1      33.553  11.775   8.904  0.00  0.00     0.007 A 
HETATM   15  C   UNK N   1      33.662  10.401   9.136  0.00  0.00     0.001 A 
HETATM   16  C   UNK N   1      34.924   9.806   9.231  0.00  0.00     0.000 A 
HETATM   17  C   UNK N   1      36.074  10.590   9.109  0.00  0.00     0.001 A 
HETATM   18  C   UNK N   1      35.962  11.966   8.885  0.00  0.00     0.007 A 
ENDBRANCH  12  13
ENDBRANCH   6  12
ENDBRANCH   3   6
ENDBRANCH   1   2
BRANCH   1  19
HETATM   19  C   UNK N   1      36.922  12.915  12.490  0.00  0.00     0.073 C 
BRANCH  19  20
HETATM   20  C   UNK N   1      36.147  11.654  12.670  0.00  0.00    -0.056 A 
HETATM   21  C   UNK N   1      34.750  11.680  12.663  0.00  0.00     0.007 A 
HETATM   22  C   UNK N   1      34.030  10.490  12.787  0.00  0.00     0.001 A 
HETATM   23  C   UNK N   1      34.707   9.274  12.924  0.00  0.00     0.000 A 
HETATM   24  C   UNK N   1      36.105   9.249  12.945  0.00  0.00     0.001 A 
HETATM   25  C   UNK N   1      36.825  10.438  12.816  0.00  0.00     0.007 A 
ENDBRANCH  19  20
ENDBRANCH   1  19
BRANCH   1  26
HETATM   26  N   UNK N   1      36.796  14.963  13.822  0.00  0.00    -0.323 N 
HETATM   27  C   UNK N   1      36.927  14.601  15.119  0.00  0.00     0.361 C 
HETATM   28  O   UNK N   1      37.548  15.323  15.884  0.00  0.00    -0.238 OA
HETATM   29  H   UNK N   1      37.194  15.819  13.542  0.00  0.00     0.165 HD
BRANCH  27  30
HETATM   30  O   UNK N   1      36.391  13.446  15.566  0.00  0.00    -0.299 OA
BRANCH  30  31
HETATM   31  C   UNK N   1      35.612  13.437  16.699  0.00  0.00     0.219 C 
BRANCH  31  32
HETATM   32  C   UNK N   1      35.345  12.061  17.198  0.00  0.00    -0.034 A 
HETATM   33  C   UNK N   1      35.052  11.050  16.278  0.00  0.00     0.009 A 
HETATM   34  C   UNK N   1      34.733   9.765  16.725  0.00  0.00     0.001 A 
HETATM   35  C   UNK N   1      34.707   9.490  18.095  0.00  0.00     0.000 A 
HETATM   36  C   UNK N   1      35.002  10.499  19.018  0.00  0.00     0.001 A 
HETATM   37  C   UNK N   1      35.314  11.787  18.571  0.00  0.00     0.009 A 
ENDBRANCH  31  32
ENDBRANCH  30  31
ENDBRANCH  27  30
ENDBRANCH   1  26
TORSDOF 13
ENDMDL
MODEL 6
REMARK VINA RESULT:      -5.9      8.562     11.222
REMARK  13 active torsions:
REMARK  status: ('A' for Active; 'I' for Inactive)
REMARK    1  A    between atoms: O_1  and  C_2 
REMARK    2  A    between atoms: C_2  and  C_3 
REMARK    3  A    between atoms: C_3  and  C_5 
REMARK    4  A    between atoms: C_5  and  C_6 
REMARK    5  A    between atoms: C_5  and  N_13 
REMARK    6  A    between atoms: C_6  and  C_7 
REMARK       I    between atoms: N_13  and  C_14 
REMARK    7  A    between atoms: C_14  and  C_16 
REMARK    8  A    between atoms: C_16  and  C_17 
REMARK    9  A    between atoms: C_16  and  N_24 
REMARK   10  A    between atoms: C_17  and  C_18 
REMARK       I    between atoms: N_24  and  C_25 
REMARK   11  A    between atoms: C_25  and  O_27 
REMARK   12  A    between atoms: O_27  and  C_28 
REMARK   13  A    between atoms: C_28  and  C_29 
ROOT
HETATM    1  C   UNK N   1      33.625  16.463   8.643  0.00  0.00     0.183 C 
ENDROOT
BRANCH   1   2
HETATM    2  C   UNK N   1      32.512  17.433   8.344  0.00  0.00     0.241 C 
HETATM    3  N   UNK N   1      31.272  16.948   8.053  0.00  0.00    -0.347 N 
HETATM    4  H   UNK N   1      31.105  16.014   8.316  0.00  0.00     0.163 HD
HETATM    5  O   UNK N   1      32.766  18.623   8.252  0.00  0.00    -0.271 OA
BRANCH   3   6
HETATM    6  C   UNK N   1      30.158  17.632   7.403  0.00  0.00     0.160 C 
BRANCH   6   7
HETATM    7  C   UNK N   1      28.956  17.958   8.278  0.00  0.00     0.172 C 
HETATM    8  O   UNK N   1      27.995  18.558   7.825  0.00  0.00    -0.293 OA
BRANCH   7   9
HETATM    9  C   UNK N   1      29.005  17.674   9.750  0.00  0.00     0.244 C 
BRANCH   9  10
HETATM   10  O   UNK N   1      29.772  18.635  10.410  0.00  0.00    -0.394 OA
HETATM   11  H   UNK N   1      30.133  18.938  11.258  0.00  0.00     0.209 HD
ENDBRANCH   9  10
ENDBRANCH   7   9
ENDBRANCH   6   7
BRANCH   6  12
HETATM   12  C   UNK N   1      29.833  17.054   6.012  0.00  0.00     0.071 C 
BRANCH  12  13
HETATM   13  C   UNK N   1      30.899  16.602   5.057  0.00  0.00    -0.056 A 
HETATM   14  C   UNK N   1      30.827  15.366   4.402  0.00  0.00     0.007 A 
HETATM   15  C   UNK N   1      31.741  15.043   3.395  0.00  0.00     0.001 A 
HETATM   16  C   UNK N   1      32.717  15.968   3.014  0.00  0.00     0.000 A 
HETATM   17  C   UNK N   1      32.786  17.209   3.652  0.00  0.00     0.001 A 
HETATM   18  C   UNK N   1      31.876  17.526   4.666  0.00  0.00     0.007 A 
ENDBRANCH  12  13
ENDBRANCH   6  12
ENDBRANCH   3   6
ENDBRANCH   1   2
BRANCH   1  19
HETATM   19  C   UNK N   1      34.630  16.339   7.492  0.00  0.00     0.073 C 
BRANCH  19  20
HETATM   20  C   UNK N   1      34.404  15.132   6.646  0.00  0.00    -0.056 A 
HETATM   21  C   UNK N   1      35.187  14.915   5.509  0.00  0.00     0.007 A 
HETATM   22  C   UNK N   1      35.002  13.760   4.746  0.00  0.00     0.001 A 
HETATM   23  C   UNK N   1      34.030  12.825   5.117  0.00  0.00     0.000 A 
HETATM   24  C   UNK N   1      33.237  13.049   6.247  0.00  0.00     0.001 A 
HETATM   25  C   UNK N   1      33.425  14.202   7.012  0.00  0.00     0.007 A 
ENDBRANCH  19  20
ENDBRANCH   1  19
BRANCH   1  26
HETATM   26  N   UNK N   1      34.305  16.897   9.853  0.00  0.00    -0.323 N 
HETATM   27  C   UNK N   1      34.735  16.065  10.828  0.00  0.00     0.361 C 
HETATM   28  O   UNK N   1      35.321  16.528  11.796  0.00  0.00    -0.238 OA
HETATM   29  H   UNK N   1      34.464  17.862   9.969  0.00  0.00     0.165 HD
BRANCH  27  30
HETATM   30  O   UNK N   1      34.533  14.735  10.734  0.00  0.00    -0.299 OA
BRANCH  30  31
HETATM   31  C   UNK N   1      35.563  13.858  10.977  0.00  0.00     0.219 C 
BRANCH  31  32
HETATM   32  C   UNK N   1      36.115  13.264   9.730  0.00  0.00    -0.034 A 
HETATM   33  C   UNK N   1      37.103  13.961   9.025  0.00  0.00     0.009 A 
HETATM   34  C   UNK N   1      37.590  13.457   7.816  0.00  0.00     0.001 A 
HETATM   35  C   UNK N   1      37.091  12.253   7.311  0.00  0.00     0.000 A 
HETATM   36  C   UNK N   1      36.105  11.553   8.015  0.00  0.00     0.001 A 
HETATM   37  C   UNK N   1      35.611  12.061   9.221  0.00  0.00     0.009 A 
ENDBRANCH  31  32
ENDBRANCH  30  31
ENDBRANCH  27  30
ENDBRANCH   1  26
TORSDOF 13
ENDMDL
MODEL 7
REMARK VINA RESULT:      -5.9     11.907     14.928
REMARK  13 active torsions:
REMARK  status: ('A' for Active; 'I' for Inactive)
REMARK    1  A    between atoms: O_1  and  C_2 
REMARK    2  A    between atoms: C_2  and  C_3 
REMARK    3  A    between atoms: C_3  and  C_5 
REMARK    4  A    between atoms: C_5  and  C_6 
REMARK    5  A    between atoms: C_5  and  N_13 
REMARK    6  A    between atoms: C_6  and  C_7 
REMARK       I    between atoms: N_13  and  C_14 
REMARK    7  A    between atoms: C_14  and  C_16 
REMARK    8  A    between atoms: C_16  and  C_17 
REMARK    9  A    between atoms: C_16  and  N_24 
REMARK   10  A    between atoms: C_17  and  C_18 
REMARK       I    between atoms: N_24  and  C_25 
REMARK   11  A    between atoms: C_25  and  O_27 
REMARK   12  A    between atoms: O_27  and  C_28 
REMARK   13  A    between atoms: C_28  and  C_29 
ROOT
HETATM    1  C   UNK N   1      29.201  23.807  -4.770  0.00  0.00     0.183 C 
ENDROOT
BRANCH   1   2
HETATM    2  C   UNK N   1      27.728  23.897  -5.070  0.00  0.00     0.241 C 
HETATM    3  N   UNK N   1      27.313  23.856  -6.369  0.00  0.00    -0.347 N 
HETATM    4  H   UNK N   1      27.966  23.503  -7.015  0.00  0.00     0.163 HD
HETATM    5  O   UNK N   1      26.946  24.121  -4.161  0.00  0.00    -0.271 OA
BRANCH   3   6
HETATM    6  C   UNK N   1      26.028  24.268  -6.925  0.00  0.00     0.160 C 
BRANCH   6   7
HETATM    7  C   UNK N   1      25.326  23.266  -7.831  0.00  0.00     0.172 C 
HETATM    8  O   UNK N   1      24.669  23.639  -8.789  0.00  0.00    -0.293 OA
BRANCH   7   9
HETATM    9  C   UNK N   1      25.313  21.811  -7.465  0.00  0.00     0.244 C 
BRANCH   9  10
HETATM   10  O   UNK N   1      24.178  21.504  -6.713  0.00  0.00    -0.394 OA
HETATM   11  H   UNK N   1      23.428  21.851  -6.206  0.00  0.00     0.209 HD
ENDBRANCH   9  10
ENDBRANCH   7   9
ENDBRANCH   6   7
BRANCH   6  12
HETATM   12  C   UNK N   1      26.035  25.727  -7.424  0.00  0.00     0.071 C 
BRANCH  12  13
HETATM   13  C   UNK N   1      26.094  26.899  -6.488  0.00  0.00    -0.056 A 
HETATM   14  C   UNK N   1      25.266  26.985  -5.362  0.00  0.00     0.007 A 
HETATM   15  C   UNK N   1      25.456  27.999  -4.418  0.00  0.00     0.001 A 
HETATM   16  C   UNK N   1      26.497  28.917  -4.580  0.00  0.00     0.000 A 
HETATM   17  C   UNK N   1      27.337  28.829  -5.693  0.00  0.00     0.001 A 
HETATM   18  C   UNK N   1      27.138  27.819  -6.641  0.00  0.00     0.007 A 
ENDBRANCH  12  13
ENDBRANCH   6  12
ENDBRANCH   3   6
ENDBRANCH   1   2
BRANCH   1  19
HETATM   19  C   UNK N   1      30.018  24.896  -5.472  0.00  0.00     0.073 C 
BRANCH  19  20
HETATM   20  C   UNK N   1      31.371  24.433  -5.896  0.00  0.00    -0.056 A 
HETATM   21  C   UNK N   1      32.442  24.477  -5.000  0.00  0.00     0.007 A 
HETATM   22  C   UNK N   1      33.695  23.999  -5.389  0.00  0.00     0.001 A 
HETATM   23  C   UNK N   1      33.878  23.484  -6.675  0.00  0.00     0.000 A 
HETATM   24  C   UNK N   1      32.810  23.453  -7.577  0.00  0.00     0.001 A 
HETATM   25  C   UNK N   1      31.556  23.926  -7.187  0.00  0.00     0.007 A 
ENDBRANCH  19  20
ENDBRANCH   1  19
BRANCH   1  26
HETATM   26  N   UNK N   1      29.386  23.895  -3.330  0.00  0.00    -0.323 N 
HETATM   27  C   UNK N   1      29.872  22.896  -2.559  0.00  0.00     0.361 C 
HETATM   28  O   UNK N   1      30.015  23.080  -1.359  0.00  0.00    -0.238 OA
HETATM   29  H   UNK N   1      29.142  24.740  -2.888  0.00  0.00     0.165 HD
BRANCH  27  30
HETATM   30  O   UNK N   1      30.209  21.710  -3.106  0.00  0.00    -0.299 OA
BRANCH  30  31
HETATM   31  C   UNK N   1      31.532  21.360  -3.238  0.00  0.00     0.219 C 
BRANCH  31  32
HETATM   32  C   UNK N   1      31.835  20.761  -4.566  0.00  0.00    -0.034 A 
HETATM   33  C   UNK N   1      33.140  20.336  -4.838  0.00  0.00     0.009 A 
HETATM   34  C   UNK N   1      33.465  19.832  -6.099  0.00  0.00     0.001 A 
HETATM   35  C   UNK N   1      32.485  19.750  -7.092  0.00  0.00     0.000 A 
HETATM   36  C   UNK N   1      31.179  20.172  -6.822  0.00  0.00     0.001 A 
HETATM   37  C   UNK N   1      30.854  20.684  -5.562  0.00  0.00     0.009 A 
ENDBRANCH  31  32
ENDBRANCH  30  31
ENDBRANCH  27  30
ENDBRANCH   1  26
TORSDOF 13
ENDMDL
MODEL 8
REMARK VINA RESULT:      -5.8     12.265     15.183
REMARK  13 active torsions:
REMARK  status: ('A' for Active; 'I' for Inactive)
REMARK    1  A    between atoms: O_1  and  C_2 
REMARK    2  A    between atoms: C_2  and  C_3 
REMARK    3  A    between atoms: C_3  and  C_5 
REMARK    4  A    between atoms: C_5  and  C_6 
REMARK    5  A    between atoms: C_5  and  N_13 
REMARK    6  A    between atoms: C_6  and  C_7 
REMARK       I    between atoms: N_13  and  C_14 
REMARK    7  A    between atoms: C_14  and  C_16 
REMARK    8  A    between atoms: C_16  and  C_17 
REMARK    9  A    between atoms: C_16  and  N_24 
REMARK   10  A    between atoms: C_17  and  C_18 
REMARK       I    between atoms: N_24  and  C_25 
REMARK   11  A    between atoms: C_25  and  O_27 
REMARK   12  A    between atoms: O_27  and  C_28 
REMARK   13  A    between atoms: C_28  and  C_29 
ROOT
HETATM    1  C   UNK N   1      36.175  13.852  11.890  0.00  0.00     0.183 C 
ENDROOT
BRANCH   1   2
HETATM    2  C   UNK N   1      36.103  14.775  10.701  0.00  0.00     0.241 C 
HETATM    3  N   UNK N   1      34.909  14.944  10.066  0.00  0.00    -0.347 N 
HETATM    4  H   UNK N   1      34.112  14.670  10.574  0.00  0.00     0.163 HD
HETATM    5  O   UNK N   1      37.132  15.260  10.259  0.00  0.00    -0.271 OA
BRANCH   3   6
HETATM    6  C   UNK N   1      34.658  15.477   8.731  0.00  0.00     0.160 C 
BRANCH   6   7
HETATM    7  C   UNK N   1      33.705  16.660   8.639  0.00  0.00     0.172 C 
HETATM    8  O   UNK N   1      32.501  16.509   8.773  0.00  0.00    -0.293 OA
BRANCH   7   9
HETATM    9  C   UNK N   1      34.224  18.008   8.232  0.00  0.00     0.244 C 
BRANCH   9  10
HETATM   10  O   UNK N   1      34.519  18.028   6.868  0.00  0.00    -0.394 OA
HETATM   11  H   UNK N   1      35.036  18.443   6.159  0.00  0.00     0.209 HD
ENDBRANCH   9  10
ENDBRANCH   7   9
ENDBRANCH   6   7
BRANCH   6  12
HETATM   12  C   UNK N   1      34.452  14.372   7.676  0.00  0.00     0.071 C 
BRANCH  12  13
HETATM   13  C   UNK N   1      34.588  12.913   8.000  0.00  0.00    -0.056 A 
HETATM   14  C   UNK N   1      33.476  12.122   8.318  0.00  0.00     0.007 A 
HETATM   15  C   UNK N   1      33.607  10.736   8.450  0.00  0.00     0.001 A 
HETATM   16  C   UNK N   1      34.846  10.127   8.234  0.00  0.00     0.000 A 
HETATM   17  C   UNK N   1      35.956  10.907   7.901  0.00  0.00     0.001 A 
HETATM   18  C   UNK N   1      35.825  12.295   7.779  0.00  0.00     0.007 A 
ENDBRANCH  12  13
ENDBRANCH   6  12
ENDBRANCH   3   6
ENDBRANCH   1   2
BRANCH   1  19
HETATM   19  C   UNK N   1      36.950  12.564  11.595  0.00  0.00     0.073 C 
BRANCH  19  20
HETATM   20  C   UNK N   1      36.104  11.339  11.680  0.00  0.00    -0.056 A 
HETATM   21  C   UNK N   1      36.669  10.078  11.469  0.00  0.00     0.007 A 
HETATM   22  C   UNK N   1      35.881   8.932  11.594  0.00  0.00     0.001 A 
HETATM   23  C   UNK N   1      34.527   9.047  11.924  0.00  0.00     0.000 A 
HETATM   24  C   UNK N   1      33.958  10.309  12.121  0.00  0.00     0.001 A 
HETATM   25  C   UNK N   1      34.747  11.455  12.001  0.00  0.00     0.007 A 
ENDBRANCH  19  20
ENDBRANCH   1  19
BRANCH   1  26
HETATM   26  N   UNK N   1      36.798  14.566  12.993  0.00  0.00    -0.323 N 
HETATM   27  C   UNK N   1      36.409  14.467  14.284  0.00  0.00     0.361 C 
HETATM   28  O   UNK N   1      37.016  15.089  15.144  0.00  0.00    -0.238 OA
HETATM   29  H   UNK N   1      37.553  15.162  12.786  0.00  0.00     0.165 HD
BRANCH  27  30
HETATM   30  O   UNK N   1      35.370  13.678  14.629  0.00  0.00    -0.299 OA
BRANCH  30  31
HETATM   31  C   UNK N   1      35.418  12.935  15.784  0.00  0.00     0.219 C 
BRANCH  31  32
HETATM   32  C   UNK N   1      35.815  11.522  15.540  0.00  0.00    -0.034 A 
HETATM   33  C   UNK N   1      34.864  10.510  15.712  0.00  0.00     0.009 A 
HETATM   34  C   UNK N   1      35.228   9.171  15.553  0.00  0.00     0.001 A 
HETATM   35  C   UNK N   1      36.545   8.841  15.221  0.00  0.00     0.000 A 
HETATM   36  C   UNK N   1      37.497   9.850  15.047  0.00  0.00     0.001 A 
HETATM   37  C   UNK N   1      37.135  11.191  15.213  0.00  0.00     0.009 A 
ENDBRANCH  31  32
ENDBRANCH  30  31
ENDBRANCH  27  30
ENDBRANCH   1  26
TORSDOF 13
ENDMDL
MODEL 9
REMARK VINA RESULT:      -5.8     12.497     15.379
REMARK  13 active torsions:
REMARK  status: ('A' for Active; 'I' for Inactive)
REMARK    1  A    between atoms: O_1  and  C_2 
REMARK    2  A    between atoms: C_2  and  C_3 
REMARK    3  A    between atoms: C_3  and  C_5 
REMARK    4  A    between atoms: C_5  and  C_6 
REMARK    5  A    between atoms: C_5  and  N_13 
REMARK    6  A    between atoms: C_6  and  C_7 
REMARK       I    between atoms: N_13  and  C_14 
REMARK    7  A    between atoms: C_14  and  C_16 
REMARK    8  A    between atoms: C_16  and  C_17 
REMARK    9  A    between atoms: C_16  and  N_24 
REMARK   10  A    between atoms: C_17  and  C_18 
REMARK       I    between atoms: N_24  and  C_25 
REMARK   11  A    between atoms: C_25  and  O_27 
REMARK   12  A    between atoms: O_27  and  C_28 
REMARK   13  A    between atoms: C_28  and  C_29 
ROOT
HETATM    1  C   UNK N   1      29.527  24.439  -4.381  0.00  0.00     0.183 C 
ENDROOT
BRANCH   1   2
HETATM    2  C   UNK N   1      29.074  25.839  -4.059  0.00  0.00     0.241 C 
HETATM    3  N   UNK N   1      27.797  26.209  -4.362  0.00  0.00    -0.347 N 
HETATM    4  H   UNK N   1      27.166  25.471  -4.525  0.00  0.00     0.163 HD
HETATM    5  O   UNK N   1      29.886  26.648  -3.642  0.00  0.00    -0.271 OA
BRANCH   3   6
HETATM    6  C   UNK N   1      27.244  27.555  -4.478  0.00  0.00     0.160 C 
BRANCH   6   7
HETATM    7  C   UNK N   1      26.668  28.165  -3.208  0.00  0.00     0.172 C 
HETATM    8  O   UNK N   1      25.524  27.922  -2.858  0.00  0.00    -0.293 OA
BRANCH   7   9
HETATM    9  C   UNK N   1      27.454  29.194  -2.451  0.00  0.00     0.244 C 
BRANCH   9  10
HETATM   10  O   UNK N   1      28.818  29.058  -2.711  0.00  0.00    -0.394 OA
HETATM   11  H   UNK N   1      29.499  28.867  -3.376  0.00  0.00     0.209 HD
ENDBRANCH   9  10
ENDBRANCH   7   9
ENDBRANCH   6   7
BRANCH   6  12
HETATM   12  C   UNK N   1      26.397  27.744  -5.752  0.00  0.00     0.071 C 
BRANCH  12  13
HETATM   13  C   UNK N   1      26.758  27.106  -7.062  0.00  0.00    -0.056 A 
HETATM   14  C   UNK N   1      25.891  26.219  -7.713  0.00  0.00     0.007 A 
HETATM   15  C   UNK N   1      26.175  25.772  -9.007  0.00  0.00     0.001 A 
HETATM   16  C   UNK N   1      27.315  26.233  -9.671  0.00  0.00     0.000 A 
HETATM   17  C   UNK N   1      28.176  27.130  -9.035  0.00  0.00     0.001 A 
HETATM   18  C   UNK N   1      27.895  27.569  -7.737  0.00  0.00     0.007 A 
ENDBRANCH  12  13
ENDBRANCH   6  12
ENDBRANCH   3   6
ENDBRANCH   1   2
BRANCH   1  19
HETATM   19  C   UNK N   1      30.194  24.333  -5.756  0.00  0.00     0.073 C 
BRANCH  19  20
HETATM   20  C   UNK N   1      29.317  23.707  -6.787  0.00  0.00    -0.056 A 
HETATM   21  C   UNK N   1      29.698  23.711  -8.131  0.00  0.00     0.007 A 
HETATM   22  C   UNK N   1      28.894  23.084  -9.085  0.00  0.00     0.001 A 
HETATM   23  C   UNK N   1      27.706  22.457  -8.695  0.00  0.00     0.000 A 
HETATM   24  C   UNK N   1      27.318  22.465  -7.352  0.00  0.00     0.001 A 
HETATM   25  C   UNK N   1      28.124  23.088  -6.397  0.00  0.00     0.007 A 
ENDBRANCH  19  20
ENDBRANCH   1  19
BRANCH   1  26
HETATM   26  N   UNK N   1      30.447  24.000  -3.345  0.00  0.00    -0.323 N 
HETATM   27  C   UNK N   1      30.704  22.706  -3.049  0.00  0.00     0.361 C 
HETATM   28  O   UNK N   1      31.518  22.440  -2.176  0.00  0.00    -0.238 OA
HETATM   29  H   UNK N   1      30.916  24.692  -2.825  0.00  0.00     0.165 HD
BRANCH  27  30
HETATM   30  O   UNK N   1      30.081  21.713  -3.716  0.00  0.00    -0.299 OA
BRANCH  30  31
HETATM   31  C   UNK N   1      30.790  20.617  -4.148  0.00  0.00     0.219 C 
BRANCH  31  32
HETATM   32  C   UNK N   1      31.020  20.627  -5.617  0.00  0.00    -0.034 A 
HETATM   33  C   UNK N   1      30.100  19.986  -6.453  0.00  0.00     0.009 A 
HETATM   34  C   UNK N   1      30.327  19.923  -7.830  0.00  0.00     0.001 A 
HETATM   35  C   UNK N   1      31.476  20.504  -8.374  0.00  0.00     0.000 A 
HETATM   36  C   UNK N   1      32.397  21.147  -7.541  0.00  0.00     0.001 A 
HETATM   37  C   UNK N   1      32.174  21.203  -6.162  0.00  0.00     0.009 A 
ENDBRANCH  31  32
ENDBRANCH  30  31
ENDBRANCH  27  30
ENDBRANCH   1  26
TORSDOF 13
ENDMDL
