REMARK  13 active torsions:
REMARK  status: ('A' for Active; 'I' for Inactive)
REMARK    1  A    between atoms: O_1  and  C_2 
REMARK    2  A    between atoms: C_2  and  C_3 
REMARK    3  A    between atoms: C_3  and  C_5 
REMARK    4  A    between atoms: C_5  and  C_6 
REMARK    5  A    between atoms: C_5  and  N_13 
REMARK    6  A    between atoms: C_6  and  C_7 
REMARK       I    between atoms: N_13  and  C_14 
REMARK    7  A    between atoms: C_14  and  C_16 
REMARK    8  A    between atoms: C_16  and  C_17 
REMARK    9  A    between atoms: C_16  and  N_24 
REMARK   10  A    between atoms: C_17  and  C_18 
REMARK       I    between atoms: N_24  and  C_25 
REMARK   11  A    between atoms: C_25  and  O_27 
REMARK   12  A    between atoms: O_27  and  C_28 
REMARK   13  A    between atoms: C_28  and  C_29 
ROOT
HETATM    1  C   UNK N   1       0.534   0.685  -1.068  0.00  0.00     0.183 C 
ENDROOT
BRANCH   1   2
HETATM    2  C   UNK N   1      -0.655  -0.086  -0.556  0.00  0.00     0.241 C 
HETATM    3  N   UNK N   1      -1.306   0.362   0.555  0.00  0.00    -0.347 N 
HETATM    4  H   UNK N   1      -1.135   1.299   0.802  0.00  0.00     0.163 HD
HETATM    5  O   UNK N   1      -0.941  -1.154  -1.072  0.00  0.00    -0.271 OA
BRANCH   3   6
HETATM    6  C   UNK N   1      -2.223  -0.367   1.426  0.00  0.00     0.160 C 
BRANCH   6   7
HETATM    7  C   UNK N   1      -2.329  -1.868   1.198  0.00  0.00     0.172 C 
HETATM    8  O   UNK N   1      -3.412  -2.401   1.019  0.00  0.00    -0.293 OA
BRANCH   7   9
HETATM    9  C   UNK N   1      -1.111  -2.733   1.340  0.00  0.00     0.244 C 
BRANCH   9  10
HETATM   10  O   UNK N   1      -0.934  -3.521   0.202  0.00  0.00    -0.394 OA
HETATM   11  H   UNK N   1      -1.347  -3.902  -0.589  0.00  0.00     0.209 HD
ENDBRANCH   9  10
ENDBRANCH   7   9
ENDBRANCH   6   7
BRANCH   6  12
HETATM   12  C   UNK N   1      -3.560   0.371   1.636  0.00  0.00     0.071 C 
BRANCH  12  13
HETATM   13  C   UNK N   1      -4.567   0.544   0.536  0.00  0.00    -0.056 A 
HETATM   14  C   UNK N   1      -4.969  -0.528  -0.270  0.00  0.00     0.007 A 
HETATM   15  C   UNK N   1      -6.027  -0.379  -1.172  0.00  0.00     0.001 A 
HETATM   16  C   UNK N   1      -6.711   0.837  -1.252  0.00  0.00     0.000 A 
HETATM   17  C   UNK N   1      -6.326   1.907  -0.440  0.00  0.00     0.001 A 
HETATM   18  C   UNK N   1      -5.261   1.758   0.455  0.00  0.00     0.007 A 
ENDBRANCH  12  13
ENDBRANCH   6  12
ENDBRANCH   3   6
ENDBRANCH   1   2
BRANCH   1  19
HETATM   19  C   UNK N   1       0.136   1.964  -1.812  0.00  0.00     0.073 C 
BRANCH  19  20
HETATM   20  C   UNK N   1      -0.368   3.036  -0.906  0.00  0.00    -0.056 A 
HETATM   21  C   UNK N   1      -1.730   3.119  -0.605  0.00  0.00     0.007 A 
HETATM   22  C   UNK N   1      -2.189   4.097   0.280  0.00  0.00     0.001 A 
HETATM   23  C   UNK N   1      -1.287   4.995   0.859  0.00  0.00     0.000 A 
HETATM   24  C   UNK N   1       0.074   4.921   0.547  0.00  0.00     0.001 A 
HETATM   25  C   UNK N   1       0.534   3.940  -0.334  0.00  0.00     0.007 A 
ENDBRANCH  19  20
ENDBRANCH   1  19
BRANCH   1  26
HETATM   26  N   UNK N   1       1.394   1.011   0.058  0.00  0.00    -0.323 N 
HETATM   27  C   UNK N   1       2.426   0.245   0.478  0.00  0.00     0.361 C 
HETATM   28  O   UNK N   1       3.108   0.621   1.420  0.00  0.00    -0.238 OA
HETATM   29  H   UNK N   1       1.213   1.846   0.547  0.00  0.00     0.165 HD
BRANCH  27  30
HETATM   30  O   UNK N   1       2.714  -0.918  -0.142  0.00  0.00    -0.299 OA
BRANCH  30  31
HETATM   31  C   UNK N   1       3.902  -1.068  -0.817  0.00  0.00     0.219 C 
BRANCH  31  32
HETATM   32  C   UNK N   1       4.848  -1.977  -0.116  0.00  0.00    -0.034 A 
HETATM   33  C   UNK N   1       6.153  -1.539   0.132  0.00  0.00     0.009 A 
HETATM   34  C   UNK N   1       7.080  -2.397   0.729  0.00  0.00     0.001 A 
HETATM   35  C   UNK N   1       6.702  -3.696   1.081  0.00  0.00     0.000 A 
HETATM   36  C   UNK N   1       5.397  -4.136   0.836  0.00  0.00     0.001 A 
HETATM   37  C   UNK N   1       4.471  -3.280   0.231  0.00  0.00     0.009 A 
ENDBRANCH  31  32
ENDBRANCH  30  31
ENDBRANCH  27  30
ENDBRANCH   1  26
TORSDOF 13
