REMARK  2 active torsions:
REMARK  status: ('A' for Active; 'I' for Inactive)
REMARK    1  A    between atoms: C_1  and  N_2 
REMARK       I    between atoms: C_8  and  N_9 
REMARK    2  A    between atoms: C_12  and  N_15 
ROOT
HETATM    1  C   UNK N   1      -2.356  -0.474   0.000  0.00  0.00     0.026 A 
HETATM    2  C   UNK N   1      -2.384   0.926  -0.000  0.00  0.00     0.031 A 
HETATM    3  C   UNK N   1      -1.188   1.654  -0.000  0.00  0.00     0.033 A 
HETATM    4  C   UNK N   1       0.037   0.980  -0.000  0.00  0.00     0.063 A 
HETATM    5  N   UNK N   1       1.204   1.675  -0.000  0.00  0.00    -0.191 N 
ATOM      6  HN  UNK N   1       1.184   2.695  -0.000  1.00  0.00     0.184 HD
HETATM    7  C   UNK N   1       2.400   1.025  -0.000  0.00  0.00     0.677 A 
HETATM    8  N   UNK N   1       3.600   1.762   0.000  0.00  0.00    -0.234 N 
HETATM    9  N   UNK N   1       2.442  -0.335  -0.000  0.00  0.00    -0.176 N 
ATOM     10  HN  UNK N   1       3.345  -0.808   0.000  1.00  0.00     0.186 HD
HETATM   11  C   UNK N   1       1.302  -1.073  -0.000  0.00  0.00     0.127 A 
HETATM   12  C   UNK N   1       0.063  -0.428  -0.000  0.00  0.00     0.037 A 
HETATM   13  C   UNK N   1      -1.136  -1.149   0.000  0.00  0.00     0.046 A 
HETATM   14  H   UNK N   1       4.465   1.294   0.000  0.00  0.00     0.174 HD
HETATM   15  H   UNK N   1       3.573   2.747   0.000  0.00  0.00     0.174 HD
ENDROOT
BRANCH   1  16
HETATM   16  N   UNK N   1      -3.559  -1.205   0.000  0.00  0.00    -0.399 N 
HETATM   17  H   UNK N   1      -4.422  -0.733   0.000  0.00  0.00     0.156 HD
HETATM   18  H   UNK N   1      -3.536  -2.190   0.000  0.00  0.00     0.156 HD
ENDBRANCH   1  16
BRANCH  11  19
HETATM   19  N   UNK N   1       1.381  -2.482  -0.000  0.00  0.00    -0.384 N 
HETATM   20  H   UNK N   1       0.557  -3.022   0.000  0.00  0.00     0.157 HD
HETATM   21  H   UNK N   1       2.259  -2.926  -0.000  0.00  0.00     0.157 HD
ENDBRANCH  11  19
TORSDOF 2
