MODEL 1
REMARK VINA RESULT:      -5.3      0.000      0.000
REMARK  2 active torsions:
REMARK  status: ('A' for Active; 'I' for Inactive)
REMARK    1  A    between atoms: C_1  and  N_2 
REMARK       I    between atoms: C_8  and  N_9 
REMARK    2  A    between atoms: C_12  and  N_15 
ROOT
HETATM    1  C   UNK N   1      31.074  17.280   4.517  0.00  0.00     0.026 A 
HETATM    2  C   UNK N   1      32.397  17.451   4.091  0.00  0.00     0.031 A 
HETATM    3  C   UNK N   1      33.434  17.529   5.029  0.00  0.00     0.033 A 
HETATM    4  C   UNK N   1      33.147  17.434   6.394  0.00  0.00     0.063 A 
HETATM    5  N   UNK N   1      34.144  17.508   7.313  0.00  0.00    -0.191 N 
ATOM      6  HN  UNK N   1      35.108  17.633   7.003  1.00  0.00     0.184 HD
HETATM    7  C   UNK N   1      33.871  17.417   8.643  0.00  0.00     0.677 A 
HETATM    8  N   UNK N   1      34.918  17.495   9.582  0.00  0.00    -0.234 N 
HETATM    9  N   UNK N   1      32.590  17.250   9.071  0.00  0.00    -0.176 N 
ATOM     10  HN  UNK N   1      32.401  17.184  10.071  1.00  0.00     0.186 HD
HETATM   11  C   UNK N   1      31.560  17.171   8.190  0.00  0.00     0.127 A 
HETATM   12  C   UNK N   1      31.816  17.262   6.820  0.00  0.00     0.037 A 
HETATM   13  C   UNK N   1      30.784  17.186   5.878  0.00  0.00     0.046 A 
HETATM   14  H   UNK N   1      34.723  17.430  10.544  0.00  0.00     0.174 HD
HETATM   15  H   UNK N   1      35.847  17.616   9.275  0.00  0.00     0.174 HD
ENDROOT
BRANCH   1  16
HETATM   16  N   UNK N   1      30.032  17.203   3.574  0.00  0.00    -0.399 N 
HETATM   17  H   UNK N   1      30.235  17.009   2.631  0.00  0.00     0.156 HD
HETATM   18  H   UNK N   1      29.099  17.342   3.859  0.00  0.00     0.156 HD
ENDBRANCH   1  16
BRANCH  11  19
HETATM   19  N   UNK N   1      30.243  16.998   8.668  0.00  0.00    -0.384 N 
HETATM   20  H   UNK N   1      29.496  17.475   8.237  0.00  0.00     0.157 HD
HETATM   21  H   UNK N   1      30.071  16.402   9.431  0.00  0.00     0.157 HD
ENDBRANCH  11  19
TORSDOF 2
ENDMDL
MODEL 2
REMARK VINA RESULT:      -5.3      9.432     12.011
REMARK  2 active torsions:
REMARK  status: ('A' for Active; 'I' for Inactive)
REMARK    1  A    between atoms: C_1  and  N_2 
REMARK       I    between atoms: C_8  and  N_9 
REMARK    2  A    between atoms: C_12  and  N_15 
ROOT
HETATM    1  C   UNK N   1      23.088  17.603   5.035  0.00  0.00     0.026 A 
HETATM    2  C   UNK N   1      23.968  18.624   4.655  0.00  0.00     0.031 A 
HETATM    3  C   UNK N   1      23.580  19.567   3.695  0.00  0.00     0.033 A 
HETATM    4  C   UNK N   1      22.309  19.488   3.116  0.00  0.00     0.063 A 
HETATM    5  N   UNK N   1      21.921  20.397   2.184  0.00  0.00    -0.191 N 
ATOM      6  HN  UNK N   1      22.562  21.141   1.907  1.00  0.00     0.184 HD
HETATM    7  C   UNK N   1      20.686  20.326   1.617  0.00  0.00     0.677 A 
HETATM    8  N   UNK N   1      20.300  21.277   0.652  0.00  0.00    -0.234 N 
HETATM    9  N   UNK N   1      19.821  19.339   1.977  0.00  0.00    -0.176 N 
ATOM     10  HN  UNK N   1      18.899  19.299   1.543  1.00  0.00     0.186 HD
HETATM   11  C   UNK N   1      20.164  18.408   2.904  0.00  0.00     0.127 A 
HETATM   12  C   UNK N   1      21.426  18.461   3.500  0.00  0.00     0.037 A 
HETATM   13  C   UNK N   1      21.821  17.522   4.459  0.00  0.00     0.046 A 
HETATM   14  H   UNK N   1      19.408  21.227   0.241  0.00  0.00     0.174 HD
HETATM   15  H   UNK N   1      20.924  21.992   0.389  0.00  0.00     0.174 HD
ENDROOT
BRANCH   1  16
HETATM   16  N   UNK N   1      23.480  16.656   6.000  0.00  0.00    -0.399 N 
HETATM   17  H   UNK N   1      24.428  16.567   6.246  0.00  0.00     0.156 HD
HETATM   18  H   UNK N   1      22.803  16.082   6.428  0.00  0.00     0.156 HD
ENDBRANCH   1  16
BRANCH  11  19
HETATM   19  N   UNK N   1      19.243  17.398   3.255  0.00  0.00    -0.384 N 
HETATM   20  H   UNK N   1      18.277  17.594   3.267  0.00  0.00     0.157 HD
HETATM   21  H   UNK N   1      19.564  16.498   3.487  0.00  0.00     0.157 HD
ENDBRANCH  11  19
TORSDOF 2
ENDMDL
MODEL 3
REMARK VINA RESULT:      -5.3      8.724     10.940
REMARK  2 active torsions:
REMARK  status: ('A' for Active; 'I' for Inactive)
REMARK    1  A    between atoms: C_1  and  N_2 
REMARK       I    between atoms: C_8  and  N_9 
REMARK    2  A    between atoms: C_12  and  N_15 
ROOT
HETATM    1  C   UNK N   1      35.500  14.108  17.987  0.00  0.00     0.026 A 
HETATM    2  C   UNK N   1      36.492  15.054  17.704  0.00  0.00     0.031 A 
HETATM    3  C   UNK N   1      37.019  15.157  16.411  0.00  0.00     0.033 A 
HETATM    4  C   UNK N   1      36.552  14.312  15.400  0.00  0.00     0.063 A 
HETATM    5  N   UNK N   1      37.055  14.402  14.142  0.00  0.00    -0.191 N 
ATOM      6  HN  UNK N   1      37.778  15.091  13.935  1.00  0.00     0.184 HD
HETATM    7  C   UNK N   1      36.605  13.581  13.153  0.00  0.00     0.677 A 
HETATM    8  N   UNK N   1      37.138  13.689  11.854  0.00  0.00    -0.234 N 
HETATM    9  N   UNK N   1      35.641  12.657  13.414  0.00  0.00    -0.176 N 
ATOM     10  HN  UNK N   1      35.314  12.050  12.663  1.00  0.00     0.186 HD
HETATM   11  C   UNK N   1      35.108  12.530  14.656  0.00  0.00     0.127 A 
HETATM   12  C   UNK N   1      35.554  13.360  15.687  0.00  0.00     0.037 A 
HETATM   13  C   UNK N   1      35.032  13.263  16.981  0.00  0.00     0.046 A 
HETATM   14  H   UNK N   1      36.814  13.097  11.138  0.00  0.00     0.174 HD
HETATM   15  H   UNK N   1      37.836  14.357  11.662  0.00  0.00     0.174 HD
ENDROOT
BRANCH   1  16
HETATM   16  N   UNK N   1      34.971  14.005  19.288  0.00  0.00    -0.399 N 
HETATM   17  H   UNK N   1      34.727  14.818  19.786  0.00  0.00     0.156 HD
HETATM   18  H   UNK N   1      34.845  13.119  19.699  0.00  0.00     0.156 HD
ENDBRANCH   1  16
BRANCH  11  19
HETATM   19  N   UNK N   1      34.109  11.560  14.893  0.00  0.00    -0.384 N 
HETATM   20  H   UNK N   1      34.341  10.712  15.337  0.00  0.00     0.157 HD
HETATM   21  H   UNK N   1      33.181  11.731  14.614  0.00  0.00     0.157 HD
ENDBRANCH  11  19
TORSDOF 2
ENDMDL
MODEL 4
REMARK VINA RESULT:      -5.1     10.508     12.633
REMARK  2 active torsions:
REMARK  status: ('A' for Active; 'I' for Inactive)
REMARK    1  A    between atoms: C_1  and  N_2 
REMARK       I    between atoms: C_8  and  N_9 
REMARK    2  A    between atoms: C_12  and  N_15 
ROOT
HETATM    1  C   UNK N   1      35.189  12.499  15.177  0.00  0.00     0.026 A 
HETATM    2  C   UNK N   1      35.165  11.102  15.259  0.00  0.00     0.031 A 
HETATM    3  C   UNK N   1      35.163  10.470  16.509  0.00  0.00     0.033 A 
HETATM    4  C   UNK N   1      35.184  11.238  17.677  0.00  0.00     0.063 A 
HETATM    5  N   UNK N   1      35.182  10.637  18.895  0.00  0.00    -0.191 N 
ATOM      6  HN  UNK N   1      35.165   9.619  18.956  1.00  0.00     0.184 HD
HETATM    7  C   UNK N   1      35.202  11.379  20.036  0.00  0.00     0.677 A 
HETATM    8  N   UNK N   1      35.199  10.739  21.291  0.00  0.00    -0.234 N 
HETATM    9  N   UNK N   1      35.225  12.738  19.971  0.00  0.00    -0.176 N 
ATOM     10  HN  UNK N   1      35.240  13.281  20.834  1.00  0.00     0.186 HD
HETATM   11  C   UNK N   1      35.228  13.384  18.776  0.00  0.00     0.127 A 
HETATM   12  C   UNK N   1      35.207  12.644  17.592  0.00  0.00     0.037 A 
HETATM   13  C   UNK N   1      35.209  13.268  16.340  0.00  0.00     0.046 A 
HETATM   14  H   UNK N   1      35.214  11.273  22.116  0.00  0.00     0.174 HD
HETATM   15  H   UNK N   1      35.183   9.755  21.341  0.00  0.00     0.174 HD
ENDROOT
BRANCH   1  16
HETATM   16  N   UNK N   1      35.191  13.133  13.920  0.00  0.00    -0.399 N 
HETATM   17  H   UNK N   1      35.913  12.950  13.278  0.00  0.00     0.156 HD
HETATM   18  H   UNK N   1      34.469  13.761  13.685  0.00  0.00     0.156 HD
ENDBRANCH   1  16
BRANCH  11  19
HETATM   19  N   UNK N   1      35.252  14.795  18.744  0.00  0.00    -0.384 N 
HETATM   20  H   UNK N   1      34.691  15.312  19.368  0.00  0.00     0.157 HD
HETATM   21  H   UNK N   1      35.828  15.263  18.099  0.00  0.00     0.157 HD
ENDBRANCH  11  19
TORSDOF 2
ENDMDL
MODEL 5
REMARK VINA RESULT:      -5.1      7.660     10.338
REMARK  2 active torsions:
REMARK  status: ('A' for Active; 'I' for Inactive)
REMARK    1  A    between atoms: C_1  and  N_2 
REMARK       I    between atoms: C_8  and  N_9 
REMARK    2  A    between atoms: C_12  and  N_15 
ROOT
HETATM    1  C   UNK N   1      35.042  11.107  16.293  0.00  0.00     0.026 A 
HETATM    2  C   UNK N   1      34.199  10.553  15.321  0.00  0.00     0.031 A 
HETATM    3  C   UNK N   1      34.099  11.145  14.056  0.00  0.00     0.033 A 
HETATM    4  C   UNK N   1      34.843  12.292  13.764  0.00  0.00     0.063 A 
HETATM    5  N   UNK N   1      34.754  12.876  12.541  0.00  0.00    -0.191 N 
ATOM      6  HN  UNK N   1      34.140  12.473  11.832  1.00  0.00     0.184 HD
HETATM    7  C   UNK N   1      35.475  13.993  12.250  0.00  0.00     0.677 A 
HETATM    8  N   UNK N   1      35.370  14.585  10.976  0.00  0.00    -0.234 N 
HETATM    9  N   UNK N   1      36.297  14.542  13.185  0.00  0.00    -0.176 N 
ATOM     10  HN  UNK N   1      36.831  15.379  12.952  1.00  0.00     0.186 HD
HETATM   11  C   UNK N   1      36.419  13.995  14.421  0.00  0.00     0.127 A 
HETATM   12  C   UNK N   1      35.689  12.848  14.743  0.00  0.00     0.037 A 
HETATM   13  C   UNK N   1      35.784  12.251  16.005  0.00  0.00     0.046 A 
HETATM   14  H   UNK N   1      35.890  15.392  10.764  0.00  0.00     0.174 HD
HETATM   15  H   UNK N   1      34.775  14.190  10.297  0.00  0.00     0.174 HD
ENDROOT
BRANCH   1  16
HETATM   16  N   UNK N   1      35.142  10.511  17.564  0.00  0.00    -0.399 N 
HETATM   17  H   UNK N   1      35.340  11.064  18.353  0.00  0.00     0.156 HD
HETATM   18  H   UNK N   1      35.013   9.539  17.663  0.00  0.00     0.156 HD
ENDBRANCH   1  16
BRANCH  11  19
HETATM   19  N   UNK N   1      37.281  14.589  15.368  0.00  0.00    -0.384 N 
HETATM   20  H   UNK N   1      37.590  14.071  16.146  0.00  0.00     0.157 HD
HETATM   21  H   UNK N   1      37.574  15.521  15.250  0.00  0.00     0.157 HD
ENDBRANCH  11  19
TORSDOF 2
ENDMDL
MODEL 6
REMARK VINA RESULT:      -5.0     13.702     15.949
REMARK  2 active torsions:
REMARK  status: ('A' for Active; 'I' for Inactive)
REMARK    1  A    between atoms: C_1  and  N_2 
REMARK       I    between atoms: C_8  and  N_9 
REMARK    2  A    between atoms: C_12  and  N_15 
ROOT
HETATM    1  C   UNK N   1      26.335  27.965  -3.501  0.00  0.00     0.026 A 
HETATM    2  C   UNK N   1      25.544  28.293  -4.609  0.00  0.00     0.031 A 
HETATM    3  C   UNK N   1      25.176  27.303  -5.528  0.00  0.00     0.033 A 
HETATM    4  C   UNK N   1      25.599  25.984  -5.339  0.00  0.00     0.063 A 
HETATM    5  N   UNK N   1      25.249  25.015  -6.224  0.00  0.00    -0.191 N 
ATOM      6  HN  UNK N   1      24.672  25.254  -7.031  1.00  0.00     0.184 HD
HETATM    7  C   UNK N   1      25.658  23.730  -6.045  0.00  0.00     0.677 A 
HETATM    8  N   UNK N   1      25.284  22.738  -6.973  0.00  0.00    -0.234 N 
HETATM    9  N   UNK N   1      26.427  23.397  -4.973  0.00  0.00    -0.176 N 
ATOM     10  HN  UNK N   1      26.726  22.430  -4.852  1.00  0.00     0.186 HD
HETATM   11  C   UNK N   1      26.803  24.330  -4.061  0.00  0.00     0.127 A 
HETATM   12  C   UNK N   1      26.395  25.656  -4.224  0.00  0.00     0.037 A 
HETATM   13  C   UNK N   1      26.759  26.650  -3.309  0.00  0.00     0.046 A 
HETATM   14  H   UNK N   1      25.579  21.809  -6.845  0.00  0.00     0.174 HD
HETATM   15  H   UNK N   1      24.727  22.976  -7.750  0.00  0.00     0.174 HD
ENDROOT
BRANCH   1  16
HETATM   16  N   UNK N   1      26.705  28.960  -2.577  0.00  0.00    -0.399 N 
HETATM   17  H   UNK N   1      27.473  28.816  -1.979  0.00  0.00     0.156 HD
HETATM   18  H   UNK N   1      26.195  29.801  -2.530  0.00  0.00     0.156 HD
ENDBRANCH   1  16
BRANCH  11  19
HETATM   19  N   UNK N   1      27.601  23.952  -2.961  0.00  0.00    -0.384 N 
HETATM   20  H   UNK N   1      27.828  24.612  -2.266  0.00  0.00     0.157 HD
HETATM   21  H   UNK N   1      27.931  23.028  -2.886  0.00  0.00     0.157 HD
ENDBRANCH  11  19
TORSDOF 2
ENDMDL
MODEL 7
REMARK VINA RESULT:      -5.0      1.924      4.321
REMARK  2 active torsions:
REMARK  status: ('A' for Active; 'I' for Inactive)
REMARK    1  A    between atoms: C_1  and  N_2 
REMARK       I    between atoms: C_8  and  N_9 
REMARK    2  A    between atoms: C_12  and  N_15 
ROOT
HETATM    1  C   UNK N   1      33.196  18.002   7.798  0.00  0.00     0.026 A 
HETATM    2  C   UNK N   1      33.050  17.432   6.528  0.00  0.00     0.031 A 
HETATM    3  C   UNK N   1      31.784  17.047   6.070  0.00  0.00     0.033 A 
HETATM    4  C   UNK N   1      30.663  17.233   6.885  0.00  0.00     0.063 A 
HETATM    5  N   UNK N   1      29.430  16.863   6.453  0.00  0.00    -0.191 N 
ATOM      6  HN  UNK N   1      29.323  16.448   5.527  1.00  0.00     0.184 HD
HETATM    7  C   UNK N   1      28.335  17.041   7.241  0.00  0.00     0.677 A 
HETATM    8  N   UNK N   1      27.064  16.652   6.777  0.00  0.00    -0.234 N 
HETATM    9  N   UNK N   1      28.462  17.594   8.478  0.00  0.00    -0.176 N 
ATOM     10  HN  UNK N   1      27.633  17.721   9.058  1.00  0.00     0.186 HD
HETATM   11  C   UNK N   1      29.674  17.979   8.954  0.00  0.00     0.127 A 
HETATM   12  C   UNK N   1      30.812  17.806   8.163  0.00  0.00     0.037 A 
HETATM   13  C   UNK N   1      32.081  18.189   8.614  0.00  0.00     0.046 A 
HETATM   14  H   UNK N   1      26.271  16.780   7.345  0.00  0.00     0.174 HD
HETATM   15  H   UNK N   1      26.968  16.252   5.881  0.00  0.00     0.174 HD
ENDROOT
BRANCH   1  16
HETATM   16  N   UNK N   1      34.470  18.389   8.257  0.00  0.00    -0.399 N 
HETATM   17  H   UNK N   1      35.164  18.657   7.614  0.00  0.00     0.156 HD
HETATM   18  H   UNK N   1      34.665  18.390   9.223  0.00  0.00     0.156 HD
ENDBRANCH   1  16
BRANCH  11  19
HETATM   19  N   UNK N   1      29.771  18.549  10.242  0.00  0.00    -0.384 N 
HETATM   20  H   UNK N   1      29.896  17.970  11.029  0.00  0.00     0.157 HD
HETATM   21  H   UNK N   1      29.715  19.525  10.354  0.00  0.00     0.157 HD
ENDBRANCH  11  19
TORSDOF 2
ENDMDL
MODEL 8
REMARK VINA RESULT:      -5.0      2.332      5.008
REMARK  2 active torsions:
REMARK  status: ('A' for Active; 'I' for Inactive)
REMARK    1  A    between atoms: C_1  and  N_2 
REMARK       I    between atoms: C_8  and  N_9 
REMARK    2  A    between atoms: C_12  and  N_15 
ROOT
HETATM    1  C   UNK N   1      31.731  17.298   8.075  0.00  0.00     0.026 A 
HETATM    2  C   UNK N   1      32.045  16.990   6.745  0.00  0.00     0.031 A 
HETATM    3  C   UNK N   1      31.060  17.069   5.753  0.00  0.00     0.033 A 
HETATM    4  C   UNK N   1      29.760  17.456   6.092  0.00  0.00     0.063 A 
HETATM    5  N   UNK N   1      28.796  17.537   5.139  0.00  0.00    -0.191 N 
ATOM      6  HN  UNK N   1      29.025  17.312   4.170  1.00  0.00     0.184 HD
HETATM    7  C   UNK N   1      27.529  17.913   5.462  0.00  0.00     0.677 A 
HETATM    8  N   UNK N   1      26.542  17.991   4.460  0.00  0.00    -0.234 N 
HETATM    9  N   UNK N   1      27.210  18.215   6.750  0.00  0.00    -0.176 N 
ATOM     10  HN  UNK N   1      26.256  18.495   6.977  1.00  0.00     0.186 HD
HETATM   11  C   UNK N   1      28.139  18.149   7.738  0.00  0.00     0.127 A 
HETATM   12  C   UNK N   1      29.447  17.766   7.430  0.00  0.00     0.037 A 
HETATM   13  C   UNK N   1      30.436  17.685   8.416  0.00  0.00     0.046 A 
HETATM   14  H   UNK N   1      25.626  18.262   4.692  0.00  0.00     0.174 HD
HETATM   15  H   UNK N   1      26.770  17.773   3.527  0.00  0.00     0.174 HD
ENDROOT
BRANCH   1  16
HETATM   16  N   UNK N   1      32.722  17.218   9.072  0.00  0.00    -0.399 N 
HETATM   17  H   UNK N   1      32.808  16.404   9.617  0.00  0.00     0.156 HD
HETATM   18  H   UNK N   1      33.330  17.979   9.223  0.00  0.00     0.156 HD
ENDBRANCH   1  16
BRANCH  11  19
HETATM   19  N   UNK N   1      27.775  18.469   9.063  0.00  0.00    -0.384 N 
HETATM   20  H   UNK N   1      28.471  18.668   9.731  0.00  0.00     0.157 HD
HETATM   21  H   UNK N   1      26.826  18.494   9.321  0.00  0.00     0.157 HD
ENDBRANCH  11  19
TORSDOF 2
ENDMDL
MODEL 9
REMARK VINA RESULT:      -4.9      3.014      5.916
REMARK  2 active torsions:
REMARK  status: ('A' for Active; 'I' for Inactive)
REMARK    1  A    between atoms: C_1  and  N_2 
REMARK       I    between atoms: C_8  and  N_9 
REMARK    2  A    between atoms: C_12  and  N_15 
ROOT
HETATM    1  C   UNK N   1      30.490  17.185   8.588  0.00  0.00     0.026 A 
HETATM    2  C   UNK N   1      29.628  17.825   9.487  0.00  0.00     0.031 A 
HETATM    3  C   UNK N   1      28.548  18.578   9.011  0.00  0.00     0.033 A 
HETATM    4  C   UNK N   1      28.330  18.690   7.634  0.00  0.00     0.063 A 
HETATM    5  N   UNK N   1      27.286  19.418   7.160  0.00  0.00    -0.191 N 
ATOM      6  HN  UNK N   1      26.658  19.885   7.815  1.00  0.00     0.184 HD
HETATM    7  C   UNK N   1      27.069  19.531   5.821  0.00  0.00     0.677 A 
HETATM    8  N   UNK N   1      25.981  20.290   5.348  0.00  0.00    -0.234 N 
HETATM    9  N   UNK N   1      27.898  18.914   4.937  0.00  0.00    -0.176 N 
ATOM     10  HN  UNK N   1      27.723  19.008   3.937  1.00  0.00     0.186 HD
HETATM   11  C   UNK N   1      28.955  18.176   5.363  0.00  0.00     0.127 A 
HETATM   12  C   UNK N   1      29.198  18.045   6.732  0.00  0.00     0.037 A 
HETATM   13  C   UNK N   1      30.276  17.295   7.215  0.00  0.00     0.046 A 
HETATM   14  H   UNK N   1      25.822  20.373   4.381  0.00  0.00     0.174 HD
HETATM   15  H   UNK N   1      25.378  20.738   5.986  0.00  0.00     0.174 HD
ENDROOT
BRANCH   1  16
HETATM   16  N   UNK N   1      31.576  16.428   9.068  0.00  0.00    -0.399 N 
HETATM   17  H   UNK N   1      32.493  16.655   8.796  0.00  0.00     0.156 HD
HETATM   18  H   UNK N   1      31.416  15.669   9.676  0.00  0.00     0.156 HD
ENDBRANCH   1  16
BRANCH  11  19
HETATM   19  N   UNK N   1      29.797  17.549   4.419  0.00  0.00    -0.384 N 
HETATM   20  H   UNK N   1      30.583  18.026   4.067  0.00  0.00     0.157 HD
HETATM   21  H   UNK N   1      29.598  16.636   4.112  0.00  0.00     0.157 HD
ENDBRANCH  11  19
TORSDOF 2
ENDMDL
